data_image0
_chemical_formula_structural       CSH2SFeSFeSCFeS2FeS2FeSFeS3FeHSC2HCHCHCPHCHSC6H4C2HC4H3C2H2C6H4CH2CHC6H4C2H2CH2CHC5PC2H2SC2H2C7H2CH2CHCH4CH2C6PC18H13CH7FeHC4HC2HC2H9CH3SHC12PC18H9CH8C2PC2SC2HSC6H4CHCH5C3HC2H3C3HCH2C5H2FeCHCHC2HC3HSHC2H4CHCH3C4HCSC3HC4SCHFeS2FeSHFeHFeSCS2HFeS2FeSCFeSFeS3FeS2CSHCSHFeSFeS2HC2HC3H2CH4C6H4C6H10SHC6H6CHC3H2C2HC6PC18H16CH3C2H3CHCHCH2CHCSCH2C4HCHCH2SC2H2C2H2PC3HPC9HSC8H4CH2PH6CH4PC10FeSHC3PH9C2HFeCH2CH2C3HC6PHC14PC2H3CH6CHCHC2H2CSH3C2H2C4H2FeC2H3CHC5H2CHC4HCH3C3H2CHC2H2C3FeH3C3HCHC2SC3H2C2HC2H2FeS2FeS2FeSFeS3CSHC2SCSHFeSH2CPH5CH2C2HC6H4C6H4C3HC2H2C7H5C6PC18H16CH2C5HCH6CHCHC3HC3H2C3H4SH2C3HCHC7PC18H6C2H9C2H3CH2CHC3PC7H11C2HCH4C2HC6PC12H3CH3CHCH5SC2HCS2H4C3FeHCHC2HSCFeCFeS2FeHFeS3FeS2FeS2FeHFeS3FeSC2SHFeSHS3HS2CFeS2HCH5CSHC2HC6H4C6H5C4H2CHCFeC2HFeCHC8H4CHC6PC18H20CH3CSC2HSH2C3HC2H4CSC3FeCH6CHC3HC3PC4Fe2SC14H3CH11C6PC8H2C8H11C2H7C2HCHSH2C4HC5HFeC7PC18H18C7HC5H7PHCFeCHC2H2C3HPH3C4HC3H2CH4C5HC3H4CSC3H2CH2C3SCHCHSCHC2H2C4FeSHFeS2FeS2FeSFeS3CH2CH2CH3C7H2CHC4HCH2CHC4H3CHC7H4C5PC4H2C5HC2H2C2H7CHCH5CSC6H5PH2C2H2CHC3H3CH5CH4C10PC8H2C5SHCH10CHCH4CH2CH2PC2PC7H2SC4H2CHCH5CH4CHC7PC18H6CHC2H2CHCHCH2C2HC3H2C2HC3H2CH3CH2CHCH2SH2SC2PS2FeS2FeSHFeSFeS2FeS2FeS2FeSFeS2FeS2Fe2HS2FeS2FeS2FeSFeS3C2HC5H3C8H4C6H5C6H6C2HC5H3C5H3C2SCHC5FeHCSFeHC3H3CHC2H2FeCPHCHC6H5C6PC14H2CH17C3H2C2H7CHCH2C2SC2PC4HC6H2CH2CH5CHC5H2CHC2HC4H3CHC2HCHCHPHCH3SH2C3H3C3H2C4HC2HCHC2HC2H2CHC2H3C9FeHCH2CHC3H2C3HCH3CSH6C3H2C2HCHC5H2C3PC18H3C2H15CH2C2HSCH4C3HCSFeS2H3C2HSHCFeSCFeS2FeS2FeSFeS3HSC6H4C3HC2H3C7H4C6H5C3H3CHC4PHCH4SC3HCSC3H2CHC3PC2HCH8CHC2H2CHC2HCH2SC7PC17H18C5HCHCHCHCH3CH2C3HC2H3CFeC2HFeH3C3PSC2FeCH2C2H3C4HCH3C2HC4SH6C2H2C5SHC2H2CHCHPC2HFeC4H2C2H2C6SH2SH2CH2C2HCHC2HPCHC4HCSH4C3HC2HC2HCHCHC3HCFe2SFeS2FeS2FeSFeS3FeSCFeS2FeSFeS4HCSHCH2C3HSH2CHCHSHCHCHC3HPCHC2H2SH4CH2C4H3C3H2PC2H2C2H2C6H4C6H4C6H4C8PC18H21CHCSH4C2HCH4C4HCHC2H4CHC2HCH2C2HC4HC2HC4H3CHC7HFeHPHC8HFeCHCFeH2SC2H7CHCH2CH2C2SHCH3C2H4CHCHC2SC3PC14HC3HC3H6CH4C2H2CHCH2FeC4SC2HC7HS2CHC2SHCFeSHFeS2FeS2FeSFeS3H3C3H2SH3C7H4C4H2C7H4C6H7C2HC2HC3PC18HC3H17CH3PHC3HC2HC4HSCHC2H3C3H2C3HCHSH3PH4C5H6CHC3HCHCHC6HC4H2C2H5CH2C7PC18H17FeSHCSPCHCH4C4HC2HCHCH2CH2CH3CHPC2HCH2C7PC3H2C4HC6H3CSCH2C3H3CHCH2FeCHC2HCHS3CFeSCFeS2FeSFeS3FeS2FeS2FeSFeS3CFeS2FeCHC4H2C6H4C8H2SC6H4CFeSCH3C3SCH3C7H5C2H3CHFeHCH2PH3C2HC6PC9H7CH2SHSC2SHC3H2C3H3C5H3CHC4HC3HCHC3H3CH3C4HC2H4C2HCFeCHSHCH3C4PFeC3H3C2SH2CHC2HCH2CHC4H2CHCH5C3HC2PC2HC9HCH3C3H3C10PC18H21C2SHSCHFeH2CHCFeCHC3H4CH2CSHC4HC2H2PHCH2CHC3HCH2CH2C2HCFeHC3H2C2HFeS2FeS2FeSFeS3HCHSHCHC2H3CH3SC6H4C2HCHCHPH2C6H2C6H4C2HC3HCHCHCHPC16H11CH5CPHC2HCH3CH2CHC2HC4H7CHCH3CHCH2C2H2CH2CHCHCHC3H3C2H2C3HC8PHCHC7H3C3HC2HCHCHC4H2C2HC2HCSCHCHCHCHCH2CH4CSCHCHC4FeHCH2CH2C3HCH3CHC2H3FeHSFeS2FeHFeCS2FeS2FeS2Fe2S3FeSHFeSFeS2FeS2FeSFeSFeS6C6PH2C6H3SH3CH2C6H4C6H4CHC3HC3H3C2H2CFeH2C6H4C4H2C4SHC2HC4HC2SCHC4HFeCH3CH2CHCH4PC4H4CH2CHC4H2PCH2C9PC15H17C8H6C2PC16H10CH3CH2CHCHCH2C5H2C3HCH4C2H3CH3C6PC18H18SC6HCH2C4HC4H2C2H3FeC2PHC2HC5SH2CSCH2PCHC2HC3HCH2PH2PSC2H2C2H2SFeCH6C7HCSC3HC2HC3HCH2C5H2SH3C2SCHCFeSHFeS2FeS2FeSFeS3CH4C6H5C4H2C6H4C6H7CHCHC2PC9H2C7H8CH7SHC3PC7HS2C10HCH2CH4CSH7CH3CHFeC3SH2C2H3FeC3HC2HCHCHCH3CH2CH2C6PC18H4SHCHCHCHC3HC2HCHCH2C2HPC2HSHC3H4C2HCHFeHC4HC2HSH5CSHC3HCHC2H2CH2C4H5CH3CHCH2CHSCS3FeSFeS2FeSFeS3FeS2FeS2FeSFeCS2FeS2HFeHCS2C2H3C6H4C9H4C6H4CHC4PH3CH2C6H5C3H2C2HSHC2H2C6PC10HCH11SCH5CH3CH2C2SC5H6C3HCH2CSPH3C2H4C4PC15HCH2CH5CFeH5CHC2HFeH3C5H3PH2C2HCHC6HCHCHCHCHC3HSCH3CH4C3H3C3HC3H2C2FeH2C2HCH2C2PC5HC3HC9H6CH6CSC3HC3H2C7H2C4H3FeC4HCFeCFeHC2H2C2HC3H2C2HCHC3PC3H3SC2H3C4FeSH2FeS2FeS2FeSFeS3C5H2C6H5C6H4C7H6CH2CHC2HC2H3C2HC3HCH2C2HCHC8PC18H2PH2CHCH12CH2C2HSH2CSC2H2C5HC2HC4H2CHCPHCHCH3CHC7HCH2CHC2HCHCH6C2HC3H6C6H3C2FeC2H2CPCHCHSH2C2HC3SHPC3HCH3C3HC2H5CHCH2SCHC2HCH2C2HCH2C2HFeHCHCSC2FeS2CSCHSCFePFeSHSHFeSFeS2FeSFeS3FeS2CHFeCFeSCSH3SHSHC4FeHC5H2C6H5C2HCH2CH2C8H4C3HCH2C6H4CH7C5SH2C2SC3H2CHCHC2H5SH2CH2FeHC6PC5HC7SC2H7CFeH8C7PC9HC8H17C3H2CHC6PC7H2C4HCH2SCH4PHC2S2CH2CFe2H2CHFeH2CH3CHCHCHC3HCH2C3H3CHCSH2CHC3SC2SH2C6H3C2HC2FeC9H4C2HSCHC3H2SHC2HC2SHCH3PHC3HC3H
_chemical_formula_sum              "C2880 S384 H2304 Fe192 P96"
_cell_length_a       59.5453
_cell_length_b       59.9764
_cell_length_c       60.3549
_cell_angle_alpha    80.938
_cell_angle_beta     80.8258
_cell_angle_gamma    80.8812

_space_group_name_H-M_alt    "P 1"
_space_group_IT_number       1

loop_
  _space_group_symop_operation_xyz
  'x, y, z'

loop_
  _atom_site_type_symbol
  _atom_site_label
  _atom_site_symmetry_multiplicity
  _atom_site_fract_x
  _atom_site_fract_y
  _atom_site_fract_z
  _atom_site_occupancy
  C   C1        1.0  0.37099  0.01701  0.13698  1.0000
  S   S1        1.0  0.10803  0.28750  0.18615  1.0000
  H   H1        1.0  0.37659  0.41534  0.13312  1.0000
  H   H2        1.0  0.08860  0.20411  0.12604  1.0000
  S   S2        1.0  0.11012  0.23158  0.19815  1.0000
  Fe  Fe1       1.0  0.13453  0.25662  0.18316  1.0000
  S   S3        1.0  0.15601  0.24912  0.15032  1.0000
  Fe  Fe2       1.0  0.08440  0.26241  0.20394  1.0000
  S   S4        1.0  0.04863  0.26321  0.19521  1.0000
  C   C2        1.0  0.24558  0.24904  0.05577  1.0000
  Fe  Fe3       1.0  0.28611  0.17107  0.12557  1.0000
  S   S5        1.0  0.29658  0.19286  0.14801  1.0000
  S   S6        1.0  0.26774  0.14136  0.14198  1.0000
  Fe  Fe4       1.0  0.30441  0.19943  0.08185  1.0000
  S   S7        1.0  0.31653  0.22352  0.10101  1.0000
  S   S8        1.0  0.31278  0.20465  0.04347  1.0000
  Fe  Fe5       1.0  0.32929  0.19240  0.12380  1.0000
  S   S9        1.0  0.36433  0.18509  0.13548  1.0000
  Fe  Fe6       1.0  0.28283  0.22191  0.12351  1.0000
  S   S10       1.0  0.26261  0.25354  0.13630  1.0000
  S   S11       1.0  0.31988  0.16818  0.10299  1.0000
  S   S12       1.0  0.26956  0.20023  0.10265  1.0000
  Fe  Fe7       1.0  0.41158  0.24122  0.22608  1.0000
  H   H3        1.0  0.40925  0.15417  0.19679  1.0000
  S   S13       1.0  0.38821  0.25049  0.19879  1.0000
  C   C3        1.0  0.11855  0.28611  0.03780  1.0000
  C   C4        1.0  0.33085  0.04872  0.20781  1.0000
  H   H4        1.0  0.20036  0.20981  0.01286  1.0000
  C   C5        1.0  0.33889  0.37448  0.20271  1.0000
  H   H5        1.0  0.23490  0.24396  0.02485  1.0000
  C   C6        1.0  0.26869  0.07388  0.14946  1.0000
  H   H6        1.0  0.00427  0.25219  0.19206  1.0000
  C   C7        1.0  0.25162  0.07586  0.16808  1.0000
  P   P1        1.0  0.30371  0.40257  0.18220  1.0000
  H   H7        1.0  0.26406  0.07692  0.13250  1.0000
  C   C8        1.0  0.32051  0.39216  0.20511  1.0000
  H   H8        1.0  0.33622  0.16919  0.20231  1.0000
  S   S14       1.0  0.14774  0.25731  0.21586  1.0000
  C   C9        1.0  0.37051  0.20294  0.15368  1.0000
  C   C10       1.0  0.35412  0.22054  0.16118  1.0000
  C   C11       1.0  0.35963  0.23464  0.17547  1.0000
  C   C12       1.0  0.38130  0.23090  0.18286  1.0000
  C   C13       1.0  0.39758  0.21313  0.17560  1.0000
  C   C14       1.0  0.39229  0.19941  0.16078  1.0000
  H   H9        1.0  0.33737  0.22356  0.15561  1.0000
  H   H10       1.0  0.34716  0.24869  0.18058  1.0000
  H   H11       1.0  0.41443  0.21036  0.18091  1.0000
  H   H12       1.0  0.40507  0.18590  0.15492  1.0000
  C   C15       1.0  0.31611  0.39765  0.13629  1.0000
  C   C16       1.0  0.29879  0.20862  0.00162  1.0000
  H   H13       1.0  0.24095  0.45816  0.21364  1.0000
  C   C17       1.0  0.29244  0.20431  0.02517  1.0000
  C   C18       1.0  0.27007  0.20009  0.03364  1.0000
  C   C19       1.0  0.25414  0.20023  0.01869  1.0000
  C   C20       1.0  0.21347  0.26593  0.20465  1.0000
  H   H14       1.0  0.23377  0.08050  0.16559  1.0000
  H   H15       1.0  0.26503  0.19714  0.05174  1.0000
  H   H16       1.0  0.23690  0.19699  0.02548  1.0000
  C   C21       1.0  0.17557  0.35332  0.21267  1.0000
  C   C22       1.0  0.15770  0.34024  0.21359  1.0000
  H   H17       1.0  0.18281  0.36170  0.19651  1.0000
  H   H18       1.0  0.15109  0.33885  0.19824  1.0000
  C   C23       1.0  0.18552  0.25003  0.14878  1.0000
  C   C24       1.0  0.20107  0.23102  0.14328  1.0000
  C   C25       1.0  0.22475  0.23175  0.14043  1.0000
  C   C26       1.0  0.23302  0.25197  0.14173  1.0000
  C   C27       1.0  0.21748  0.27123  0.14682  1.0000
  C   C28       1.0  0.19373  0.27011  0.15084  1.0000
  H   H19       1.0  0.19485  0.21568  0.14111  1.0000
  H   H20       1.0  0.23653  0.21673  0.13688  1.0000
  H   H21       1.0  0.22379  0.28698  0.14765  1.0000
  H   H22       1.0  0.18174  0.28500  0.15470  1.0000
  C   C29       1.0  0.02807  0.25070  0.21580  1.0000
  H   H23       1.0  0.10170  0.28274  0.03576  1.0000
  H   H24       1.0  0.17890  0.29897  0.04409  1.0000
  C   C30       1.0  0.32299  0.40292  0.15582  1.0000
  H   H25       1.0  0.32211  0.08257  0.21744  1.0000
  C   C31       1.0  0.28101  0.11933  0.21529  1.0000
  C   C32       1.0  0.25903  0.12006  0.20953  1.0000
  C   C33       1.0  0.25501  0.12670  0.18696  1.0000
  C   C34       1.0  0.27275  0.13341  0.17025  1.0000
  C   C35       1.0  0.29443  0.13367  0.17622  1.0000
  C   C36       1.0  0.29872  0.12611  0.19857  1.0000
  H   H26       1.0  0.24516  0.11518  0.22235  1.0000
  H   H27       1.0  0.23814  0.12664  0.18250  1.0000
  H   H28       1.0  0.30797  0.13949  0.16353  1.0000
  H   H29       1.0  0.31572  0.12583  0.20290  1.0000
  C   C37       1.0  0.08238  0.12576  0.23163  1.0000
  C   C38       1.0  0.28212  0.38434  0.18267  1.0000
  H   H30       1.0  0.24442  0.07463  0.20426  1.0000
  H   H31       1.0  0.29925  0.39295  0.13671  1.0000
  C   C39       1.0  0.16210  0.29508  0.04257  1.0000
  H   H32       1.0  0.26371  0.24463  0.04986  1.0000
  H   H33       1.0  0.05747  0.21425  0.16285  1.0000
  C   C40       1.0  0.21686  0.28859  0.20353  1.0000
  H   H34       1.0  0.31676  0.44846  0.16571  1.0000
  C   C41       1.0  0.35252  0.36716  0.22002  1.0000
  C   C42       1.0  0.35285  0.40475  0.11473  1.0000
  C   C43       1.0  0.25730  0.45601  0.20280  1.0000
  C   C44       1.0  0.32697  0.06467  0.22315  1.0000
  C   C45       1.0  0.05412  0.17766  0.22222  1.0000
  P   P2        1.0  0.18434  0.25291  0.03155  1.0000
  C   C46       1.0  0.20570  0.25425  0.04924  1.0000
  C   C47       1.0  0.15958  0.27394  0.03675  1.0000
  H   H35       1.0  0.25993  0.49192  0.19626  1.0000
  H   H36       1.0  0.29772  0.48690  0.17226  1.0000
  S   S15       1.0  0.49618  0.22623  0.23779  1.0000
  C   C48       1.0  0.33987  0.01869  0.23845  1.0000
  C   C49       1.0  0.13775  0.26973  0.03393  1.0000
  H   H37       1.0  0.09132  0.17364  0.21613  1.0000
  H   H38       1.0  0.01963  0.20841  0.18500  1.0000
  C   C50       1.0  0.23863  0.25476  0.07762  1.0000
  C   C51       1.0  0.21528  0.25997  0.08539  1.0000
  C   C52       1.0  0.19885  0.25938  0.07144  1.0000
  C   C53       1.0  0.17678  0.22450  0.03965  1.0000
  C   C54       1.0  0.18768  0.20668  0.02758  1.0000
  C   C55       1.0  0.15596  0.19746  0.06619  1.0000
  C   C56       1.0  0.16117  0.21966  0.05926  1.0000
  H   H39       1.0  0.13078  0.18046  0.22102  1.0000
  H   H40       1.0  0.14487  0.32758  0.05125  1.0000
  C   C57       1.0  0.14287  0.31140  0.04648  1.0000
  H   H41       1.0  0.30192  0.16030  0.22338  1.0000
  H   H42       1.0  0.47020  0.30252  0.21573  1.0000
  C   C58       1.0  0.26797  0.47501  0.19300  1.0000
  H   H43       1.0  0.33863  0.23045  0.22000  1.0000
  C   C59       1.0  0.35769  0.00004  0.13601  1.0000
  H   H44       1.0  0.27059  0.16903  0.19979  1.0000
  H   H45       1.0  0.25132  0.25492  0.08864  1.0000
  H   H46       1.0  0.20986  0.26433  0.10232  1.0000
  H   H47       1.0  0.18084  0.26290  0.07809  1.0000
  C   C60       1.0  0.22918  0.24871  0.04163  1.0000
  H   H48       1.0  0.14390  0.19384  0.08132  1.0000
  H   H49       1.0  0.15320  0.23298  0.06933  1.0000
  C   C61       1.0  0.38619  0.31971  0.18614  1.0000
  C   C62       1.0  0.39300  0.34030  0.17506  1.0000
  C   C63       1.0  0.38295  0.35150  0.15620  1.0000
  C   C64       1.0  0.36613  0.34208  0.14837  1.0000
  C   C65       1.0  0.35914  0.32140  0.15950  1.0000
  C   C66       1.0  0.36932  0.31034  0.17844  1.0000
  P   P3        1.0  0.33921  0.30779  0.14827  1.0000
  C   C67       1.0  0.31906  0.29528  0.17056  1.0000
  C   C68       1.0  0.32252  0.32847  0.13001  1.0000
  C   C69       1.0  0.30023  0.33809  0.13817  1.0000
  C   C70       1.0  0.28679  0.35285  0.12358  1.0000
  C   C71       1.0  0.29555  0.35833  0.10080  1.0000
  C   C72       1.0  0.31790  0.34924  0.09266  1.0000
  C   C73       1.0  0.33139  0.33446  0.10722  1.0000
  C   C74       1.0  0.30568  0.27982  0.16575  1.0000
  C   C75       1.0  0.28833  0.27187  0.18209  1.0000
  C   C76       1.0  0.28442  0.27896  0.20350  1.0000
  C   C77       1.0  0.29798  0.29387  0.20861  1.0000
  C   C78       1.0  0.31485  0.30249  0.19209  1.0000
  C   C79       1.0  0.35492  0.28570  0.13228  1.0000
  C   C80       1.0  0.37664  0.27485  0.13714  1.0000
  C   C81       1.0  0.38826  0.25720  0.12533  1.0000
  C   C82       1.0  0.37845  0.25035  0.10843  1.0000
  C   C83       1.0  0.35711  0.26133  0.10314  1.0000
  C   C84       1.0  0.34525  0.27874  0.11515  1.0000
  H   H50       1.0  0.39423  0.31069  0.20052  1.0000
  H   H51       1.0  0.40619  0.34741  0.18104  1.0000
  H   H52       1.0  0.38845  0.36732  0.14748  1.0000
  H   H53       1.0  0.35885  0.35085  0.13354  1.0000
  H   H54       1.0  0.36457  0.29415  0.18702  1.0000
  H   H55       1.0  0.29296  0.33389  0.15567  1.0000
  H   H56       1.0  0.26941  0.35973  0.12990  1.0000
  H   H57       1.0  0.28496  0.36945  0.08943  1.0000
  H   H58       1.0  0.32464  0.35332  0.07495  1.0000
  H   H59       1.0  0.34857  0.32729  0.10059  1.0000
  H   H60       1.0  0.30810  0.27423  0.14923  1.0000
  H   H61       1.0  0.27781  0.26043  0.17782  1.0000
  H   H62       1.0  0.29496  0.29929  0.22523  1.0000
  C   C85       1.0  0.26795  0.43414  0.19916  1.0000
  H   H63       1.0  0.32407  0.31514  0.19612  1.0000
  H   H64       1.0  0.38442  0.27917  0.15061  1.0000
  H   H65       1.0  0.40450  0.24823  0.12994  1.0000
  H   H66       1.0  0.38713  0.23615  0.09983  1.0000
  H   H67       1.0  0.34955  0.25595  0.09004  1.0000
  H   H68       1.0  0.32837  0.28644  0.11125  1.0000
  H   H69       1.0  0.35046  0.41386  0.16927  1.0000
  Fe  Fe8       1.0  0.12077  0.23491  0.23111  1.0000
  H   H70       1.0  0.20021  0.23723  0.22470  1.0000
  C   C86       1.0  0.24646  0.35785  0.18636  1.0000
  C   C87       1.0  0.14744  0.33018  0.23446  1.0000
  C   C88       1.0  0.29350  0.17765  0.22034  1.0000
  C   C89       1.0  0.00726  0.24743  0.20949  1.0000
  H   H71       1.0  0.29790  0.35597  0.20441  1.0000
  C   C90       1.0  0.33103  0.39850  0.11586  1.0000
  C   C91       1.0  0.35975  0.41027  0.13402  1.0000
  H   H72       1.0  0.17325  0.07924  0.13583  1.0000
  C   C92       1.0  0.28934  0.47213  0.17954  1.0000
  C   C93       1.0  0.26294  0.39247  0.17135  1.0000
  H   H73       1.0  0.40887  0.17177  0.23141  1.0000
  H   H74       1.0  0.09599  0.16183  0.13204  1.0000
  H   H75       1.0  0.20922  0.20220  0.20780  1.0000
  H   H76       1.0  0.13555  0.25385  0.02866  1.0000
  H   H77       1.0  0.27070  0.27325  0.21607  1.0000
  H   H78       1.0  0.34672  0.30736  0.22717  1.0000
  H   H79       1.0  0.09326  0.19617  0.17822  1.0000
  H   H80       1.0  0.37265  0.15349  0.18235  1.0000
  H   H81       1.0  0.36434  0.40549  0.09885  1.0000
  C   C94       1.0  0.26557  0.34956  0.19744  1.0000
  H   H82       1.0  0.28494  0.06643  0.21015  1.0000
  H   H83       1.0  0.26610  0.33339  0.20835  1.0000
  H   H84       1.0  0.25950  0.41965  0.20724  1.0000
  S   S16       1.0  0.20576  0.37317  0.23055  1.0000
  H   H85       1.0  0.16286  0.16263  0.05935  1.0000
  C   C95       1.0  0.05659  0.20351  0.17908  1.0000
  C   C96       1.0  0.30009  0.45025  0.17589  1.0000
  C   C97       1.0  0.03525  0.20035  0.19164  1.0000
  C   C98       1.0  0.15112  0.14831  0.23114  1.0000
  C   C99       1.0  0.07672  0.19348  0.18783  1.0000
  C   C100      1.0  0.24520  0.37925  0.17320  1.0000
  C   C101      1.0  0.10965  0.17165  0.13254  1.0000
  C   C102      1.0  0.10545  0.19546  0.12915  1.0000
  C   C103      1.0  0.12289  0.20814  0.13022  1.0000
  C   C104      1.0  0.14456  0.19704  0.13441  1.0000
  C   C105      1.0  0.14902  0.17316  0.13785  1.0000
  C   C106      1.0  0.13132  0.16050  0.13693  1.0000
  P   P4        1.0  0.17722  0.15930  0.14360  1.0000
  C   C107      1.0  0.17709  0.12935  0.15415  1.0000
  C   C108      1.0  0.19805  0.16166  0.11823  1.0000
  C   C109      1.0  0.19679  0.18129  0.10207  1.0000
  C   C110      1.0  0.21342  0.18313  0.08290  1.0000
  C   C111      1.0  0.23148  0.16548  0.07978  1.0000
  C   C112      1.0  0.23331  0.14627  0.09609  1.0000
  C   C113      1.0  0.21676  0.14436  0.11525  1.0000
  C   C114      1.0  0.17453  0.11417  0.13950  1.0000
  C   C115      1.0  0.17524  0.09085  0.14721  1.0000
  C   C116      1.0  0.17869  0.08248  0.16954  1.0000
  C   C117      1.0  0.18151  0.09742  0.18414  1.0000
  C   C118      1.0  0.18076  0.12074  0.17653  1.0000
  C   C119      1.0  0.18685  0.17278  0.16437  1.0000
  C   C120      1.0  0.17126  0.18502  0.17965  1.0000
  C   C121      1.0  0.17936  0.19570  0.19524  1.0000
  C   C122      1.0  0.20293  0.19376  0.19596  1.0000
  C   C123      1.0  0.21838  0.18098  0.18128  1.0000
  C   C124      1.0  0.21039  0.17068  0.16551  1.0000
  H   H86       1.0  0.11964  0.22664  0.12820  1.0000
  H   H87       1.0  0.15777  0.20716  0.13541  1.0000
  H   H88       1.0  0.13397  0.14211  0.13989  1.0000
  H   H89       1.0  0.18337  0.19544  0.10429  1.0000
  H   H90       1.0  0.21256  0.19842  0.07063  1.0000
  H   H91       1.0  0.24441  0.16686  0.06503  1.0000
  H   H92       1.0  0.24801  0.13316  0.09427  1.0000
  H   H93       1.0  0.21918  0.12974  0.12809  1.0000
  H   H94       1.0  0.17220  0.12041  0.12205  1.0000
  C   C125      1.0  0.07553  0.18071  0.20936  1.0000
  H   H95       1.0  0.17930  0.06441  0.17555  1.0000
  H   H96       1.0  0.18440  0.09094  0.20142  1.0000
  H   H97       1.0  0.18335  0.13183  0.18816  1.0000
  H   H98       1.0  0.15294  0.18661  0.17949  1.0000
  H   H99       1.0  0.23665  0.17908  0.18169  1.0000
  H   H100      1.0  0.22270  0.16121  0.15411  1.0000
  H   H101      1.0  0.21920  0.25691  0.19018  1.0000
  H   H102      1.0  0.22512  0.29733  0.18802  1.0000
  C   C126      1.0  0.29805  0.06562  0.17453  1.0000
  C   C127      1.0  0.29177  0.06848  0.15267  1.0000
  P   P5        1.0  0.32802  0.05834  0.17831  1.0000
  C   C128      1.0  0.18258  0.18449  0.03462  1.0000
  C   C129      1.0  0.33985  0.03549  0.16186  1.0000
  S   S17       1.0  0.43460  0.20988  0.23900  1.0000
  C   C130      1.0  0.36214  0.03468  0.14987  1.0000
  C   C131      1.0  0.28348  0.36260  0.19538  1.0000
  H   H103      1.0  0.32559  0.39448  0.10083  1.0000
  S   S18       1.0  0.43604  0.26532  0.22900  1.0000
  C   C132      1.0  0.34360  0.08250  0.16880  1.0000
  C   C133      1.0  0.33714  0.09922  0.15104  1.0000
  C   C134      1.0  0.34977  0.11739  0.14343  1.0000
  C   C135      1.0  0.36880  0.11919  0.15350  1.0000
  C   C136      1.0  0.37540  0.10267  0.17117  1.0000
  C   C137      1.0  0.36299  0.08430  0.17869  1.0000
  H   H104      1.0  0.38813  0.01659  0.12759  1.0000
  H   H105      1.0  0.30474  0.06684  0.13803  1.0000
  H   H106      1.0  0.30950  0.01847  0.17027  1.0000
  H   H107      1.0  0.07179  0.12877  0.21814  1.0000
  C   C138      1.0  0.19482  0.25883  0.00173  1.0000
  H   H108      1.0  0.15066  0.14155  0.21568  1.0000
  C   C139      1.0  0.03199  0.24410  0.23829  1.0000
  H   H109      1.0  0.32217  0.09871  0.14322  1.0000
  H   H110      1.0  0.34456  0.13041  0.12994  1.0000
  H   H111      1.0  0.37826  0.13356  0.14765  1.0000
  H   H112      1.0  0.39011  0.10418  0.17907  1.0000
  H   H113      1.0  0.36857  0.07158  0.19225  1.0000
  C   C140      1.0  0.27017  0.22179  0.21338  1.0000
  C   C141      1.0  0.26416  0.20462  0.20341  1.0000
  C   C142      1.0  0.27555  0.18246  0.20720  1.0000
  H   H114      1.0  0.10596  0.09936  0.21654  1.0000
  C   C143      1.0  0.18395  0.35577  0.23251  1.0000
  C   C144      1.0  0.28844  0.21720  0.22611  1.0000
  H   H115      1.0  0.10620  0.31955  0.04726  1.0000
  H   H116      1.0  0.23000  0.38590  0.16522  1.0000
  H   H117      1.0  0.26133  0.40932  0.16168  1.0000
  C   C145      1.0  0.28945  0.43105  0.18565  1.0000
  C   C146      1.0  0.34490  0.40938  0.15449  1.0000
  C   C147      1.0  0.32668  0.01824  0.16100  1.0000
  H   H118      1.0  0.16733  0.20556  0.20667  1.0000
  C   C148      1.0  0.16667  0.17987  0.05386  1.0000
  H   H119      1.0  0.23222  0.34809  0.18867  1.0000
  H   H120      1.0  0.36642  0.35324  0.21837  1.0000
  C   C149      1.0  0.12109  0.30689  0.04421  1.0000
  C   C150      1.0  0.03396  0.18765  0.21321  1.0000
  C   C151      1.0  0.39308  0.16075  0.20605  1.0000
  C   C152      1.0  0.37247  0.16019  0.19802  1.0000
  C   C153      1.0  0.35162  0.16933  0.20950  1.0000
  H   H121      1.0  0.26056  0.23864  0.21110  1.0000
  H   H122      1.0  0.25070  0.20865  0.19273  1.0000
  Fe  Fe9       1.0  0.11947  0.28669  0.22015  1.0000
  C   C154      1.0  0.48128  0.30103  0.22863  1.0000
  H   H123      1.0  0.34054  0.01290  0.20428  1.0000
  C   C155      1.0  0.26032  0.20500  0.99514  1.0000
  H   H124      1.0  0.34247  0.36615  0.18765  1.0000
  C   C156      1.0  0.35115  0.17882  0.22946  1.0000
  C   C157      1.0  0.31558  0.40182  0.22535  1.0000
  H   H125      1.0  0.01719  0.18615  0.22283  1.0000
  C   C158      1.0  0.20276  0.25467  0.22455  1.0000
  C   C159      1.0  0.37208  0.17991  0.23701  1.0000
  C   C160      1.0  0.21045  0.27459  0.99418  1.0000
  H   H126      1.0  0.29667  0.48155  0.22564  1.0000
  S   S19       1.0  0.12188  0.31792  0.23647  1.0000
  H   H127      1.0  0.27167  0.02997  0.22810  1.0000
  C   C161      1.0  0.25765  0.07255  0.18990  1.0000
  C   C162      1.0  0.20933  0.29999  0.22238  1.0000
  H   H128      1.0  0.15235  0.43436  0.24092  1.0000
  H   H129      1.0  0.31608  0.21196  0.99494  1.0000
  H   H130      1.0  0.19119  0.17087  0.02516  1.0000
  H   H131      1.0  0.37267  0.04773  0.15030  1.0000
  C   C163      1.0  0.28078  0.06788  0.19314  1.0000
  H   H132      1.0  0.30117  0.41493  0.22793  1.0000
  C   C164      1.0  0.39288  0.17078  0.22544  1.0000
  H   H133      1.0  0.29284  0.23099  0.23327  1.0000
  H   H134      1.0  0.21698  0.28276  0.00612  1.0000
  H   H135      1.0  0.21203  0.31753  0.22157  1.0000
  C   C165      1.0  0.33737  0.02562  0.21562  1.0000
  C   C166      1.0  0.10171  0.10912  0.23064  1.0000
  C   C167      1.0  0.13979  0.17026  0.23415  1.0000
  C   C168      1.0  0.27988  0.01628  0.23924  1.0000
  H   H136      1.0  0.34417  0.26702  0.23042  1.0000
  C   C169      1.0  0.30056  0.19508  0.22949  1.0000
  S   S20       1.0  0.09331  0.26418  0.23817  1.0000
  C   C170      1.0  0.33587  0.23281  0.23768  1.0000
  C   C171      1.0  0.33557  0.00063  0.14806  1.0000
  C   C172      1.0  0.34761  0.37704  0.24002  1.0000
  H   H137      1.0  0.38470  0.29391  0.23951  1.0000
  C   C173      1.0  0.28692  0.48082  0.24239  1.0000
  C   C174      1.0  0.19846  0.28876  0.24236  1.0000
  C   C175      1.0  0.32901  0.39421  0.24278  1.0000
  C   C176      1.0  0.33882  0.25365  0.24354  1.0000
  S   S21       1.0  0.28657  0.11004  0.24327  1.0000
  C   C177      1.0  0.35021  0.31158  0.24291  1.0000
  H   H138      1.0  0.04790  0.24665  0.24332  1.0000
  Fe  Fe10      1.0  0.23365  0.05684  0.29107  1.0000
  S   S22       1.0  0.25659  0.07907  0.30112  1.0000
  S   S23       1.0  0.23729  0.01880  0.30350  1.0000
  Fe  Fe11      1.0  0.20558  0.09727  0.26627  1.0000
  S   S24       1.0  0.22556  0.12271  0.27453  1.0000
  H   H139      1.0  0.13118  0.09299  0.24654  1.0000
  Fe  Fe12      1.0  0.25606  0.09723  0.26556  1.0000
  H   H140      1.0  0.19380  0.03129  0.33678  1.0000
  Fe  Fe13      1.0  0.22425  0.10284  0.30943  1.0000
  S   S25       1.0  0.21266  0.12144  0.34023  1.0000
  C   C178      1.0  0.32291  0.44224  0.39780  1.0000
  S   S26       1.0  0.20131  0.07950  0.30179  1.0000
  S   S27       1.0  0.12555  0.20580  0.25932  1.0000
  H   H141      1.0  0.12415  0.46663  0.38661  1.0000
  Fe  Fe14      1.0  0.32145  0.21430  0.40697  1.0000
  S   S28       1.0  0.29022  0.21514  0.39025  1.0000
  S   S29       1.0  0.35380  0.22771  0.38867  1.0000
  Fe  Fe15      1.0  0.29724  0.19880  0.45404  1.0000
  S   S30       1.0  0.26394  0.19814  0.44126  1.0000
  C   C179      1.0  0.16675  0.02689  0.27491  1.0000
  Fe  Fe16      1.0  0.28529  0.18161  0.41233  1.0000
  S   S31       1.0  0.28028  0.14782  0.40132  1.0000
  Fe  Fe17      1.0  0.27119  0.23152  0.42006  1.0000
  S   S32       1.0  0.24306  0.26178  0.42017  1.0000
  S   S33       1.0  0.31840  0.17981  0.42681  1.0000
  S   S34       1.0  0.30270  0.23318  0.43527  1.0000
  Fe  Fe18      1.0  0.41633  0.21573  0.27358  1.0000
  S   S35       1.0  0.44028  0.23822  0.28053  1.0000
  S   S36       1.0  0.40435  0.18768  0.30006  1.0000
  C   C180      1.0  0.05814  0.20712  0.30295  1.0000
  S   S37       1.0  0.22082  0.38714  0.29013  1.0000
  H   H142      1.0  0.31174  0.11813  0.32026  1.0000
  C   C181      1.0  0.11120  0.09386  0.33259  1.0000
  S   S38       1.0  0.27399  0.36722  0.29924  1.0000
  H   H143      1.0  0.08394  0.01384  0.36009  1.0000
  Fe  Fe19      1.0  0.23964  0.35462  0.30637  1.0000
  S   S39       1.0  0.22133  0.34173  0.34073  1.0000
  Fe  Fe20      1.0  0.25558  0.39881  0.28088  1.0000
  S   S40       1.0  0.25862  0.43334  0.29036  1.0000
  S   S41       1.0  0.24428  0.33776  0.27489  1.0000
  H   H144      1.0  0.16027  0.45488  0.36242  1.0000
  C   C182      1.0  0.26739  0.45893  0.27513  1.0000
  C   C183      1.0  0.26274  0.47852  0.28598  1.0000
  H   H145      1.0  0.22060  0.02444  0.25981  1.0000
  C   C184      1.0  0.06667  0.19822  0.26445  1.0000
  C   C185      1.0  0.02382  0.12761  0.25304  1.0000
  C   C186      1.0  0.15639  0.39152  0.28476  1.0000
  H   H146      1.0  0.28063  0.25865  0.25678  1.0000
  H   H147      1.0  0.16629  0.10407  0.33090  1.0000
  C   C187      1.0  0.33778  0.32979  0.27666  1.0000
  H   H148      1.0  0.32464  0.33961  0.28709  1.0000
  H   H149      1.0  0.27505  0.03584  0.26709  1.0000
  H   H150      1.0  0.19550  0.08736  0.38849  1.0000
  H   H151      1.0  0.48564  0.24782  0.27890  1.0000
  C   C188      1.0  0.23937  0.28427  0.39770  1.0000
  C   C189      1.0  0.21894  0.29941  0.39968  1.0000
  C   C190      1.0  0.21410  0.31689  0.38212  1.0000
  C   C191      1.0  0.22977  0.31988  0.36236  1.0000
  C   C192      1.0  0.25063  0.30520  0.36041  1.0000
  C   C193      1.0  0.25539  0.28724  0.37805  1.0000
  H   H152      1.0  0.20653  0.29733  0.41478  1.0000
  H   H153      1.0  0.19799  0.32812  0.38385  1.0000
  H   H154      1.0  0.26302  0.30772  0.34544  1.0000
  H   H155      1.0  0.27137  0.27578  0.37656  1.0000
  C   C194      1.0  0.36813  0.21609  0.36445  1.0000
  C   C195      1.0  0.37560  0.23083  0.34522  1.0000
  C   C196      1.0  0.38673  0.22212  0.32547  1.0000
  C   C197      1.0  0.39115  0.19858  0.32506  1.0000
  C   C198      1.0  0.38449  0.18376  0.34455  1.0000
  C   C199      1.0  0.37266  0.19250  0.36415  1.0000
  H   H156      1.0  0.37231  0.24907  0.34546  1.0000
  H   H157      1.0  0.39188  0.23370  0.31058  1.0000
  H   H158      1.0  0.38807  0.16554  0.34437  1.0000
  H   H159      1.0  0.36704  0.18107  0.37901  1.0000
  H   H160      1.0  0.08287  0.11993  0.32553  1.0000
  H   H161      1.0  0.03591  0.15949  0.29855  1.0000
  H   H162      1.0  0.22121  0.28526  0.48576  1.0000
  H   H163      1.0  0.31494  0.43682  0.43419  1.0000
  H   H164      1.0  0.18097  0.34639  0.26863  1.0000
  H   H165      1.0  0.14763  0.32544  0.27060  1.0000
  S   S42       1.0  0.23629  0.07291  0.25474  1.0000
  H   H166      1.0  0.32972  0.24120  0.30069  1.0000
  C   C200      1.0  0.23177  0.12876  0.35684  1.0000
  C   C201      1.0  0.25459  0.11839  0.35598  1.0000
  C   C202      1.0  0.26895  0.12398  0.37016  1.0000
  C   C203      1.0  0.26096  0.14057  0.38475  1.0000
  C   C204      1.0  0.23803  0.15071  0.38574  1.0000
  C   C205      1.0  0.22355  0.14482  0.37188  1.0000
  H   H167      1.0  0.26106  0.10574  0.34476  1.0000
  H   H168      1.0  0.28645  0.11557  0.36965  1.0000
  H   H169      1.0  0.23131  0.16271  0.39755  1.0000
  H   H170      1.0  0.20585  0.15274  0.37286  1.0000
  H   H171      1.0  0.23969  0.14590  0.48332  1.0000
  H   H172      1.0  0.47387  0.19702  0.40310  1.0000
  C   C206      1.0  0.12846  0.04122  0.38365  1.0000
  H   H173      1.0  0.15967  0.49189  0.32101  1.0000
  C   C207      1.0  0.15112  0.16539  0.27156  1.0000
  C   C208      1.0  0.16300  0.14379  0.26831  1.0000
  C   C209      1.0  0.27923  0.46022  0.25314  1.0000
  H   H174      1.0  0.15112  0.17200  0.28723  1.0000
  H   H175      1.0  0.17198  0.13368  0.28152  1.0000
  C   C210      1.0  0.22828  0.18154  0.25294  1.0000
  C   C211      1.0  0.22342  0.00644  0.26597  1.0000
  H   H176      1.0  0.07754  0.22663  0.27559  1.0000
  C   C212      1.0  0.20235  0.19341  0.32098  1.0000
  C   C213      1.0  0.21219  0.17385  0.31134  1.0000
  C   C214      1.0  0.23605  0.16883  0.30682  1.0000
  C   C215      1.0  0.25012  0.18347  0.31169  1.0000
  C   C216      1.0  0.24042  0.20252  0.32247  1.0000
  C   C217      1.0  0.21638  0.20778  0.32640  1.0000
  P   P6        1.0  0.25823  0.21884  0.33337  1.0000
  C   C218      1.0  0.24169  0.22586  0.35974  1.0000
  C   C219      1.0  0.28514  0.20184  0.33877  1.0000
  C   C220      1.0  0.28653  0.17831  0.34571  1.0000
  C   C221      1.0  0.30768  0.16523  0.34878  1.0000
  C   C222      1.0  0.32763  0.17547  0.34455  1.0000
  C   C223      1.0  0.32634  0.19890  0.33775  1.0000
  C   C224      1.0  0.30517  0.21211  0.33556  1.0000
  C   C225      1.0  0.22713  0.24658  0.36042  1.0000
  C   C226      1.0  0.21127  0.25041  0.37960  1.0000
  C   C227      1.0  0.21020  0.23371  0.39853  1.0000
  C   C228      1.0  0.22487  0.21313  0.39817  1.0000
  C   C229      1.0  0.24038  0.20915  0.37877  1.0000
  C   C230      1.0  0.26545  0.24329  0.31341  1.0000
  C   C231      1.0  0.26998  0.24159  0.29017  1.0000
  C   C232      1.0  0.27715  0.25989  0.27468  1.0000
  C   C233      1.0  0.28110  0.27949  0.28238  1.0000
  C   C234      1.0  0.27798  0.28079  0.30556  1.0000
  C   C235      1.0  0.27007  0.26283  0.32105  1.0000
  H   H177      1.0  0.18389  0.19707  0.32480  1.0000
  H   H178      1.0  0.20136  0.16241  0.30757  1.0000
  H   H179      1.0  0.24358  0.15348  0.29965  1.0000
  H   H180      1.0  0.26852  0.17939  0.30777  1.0000
  H   H181      1.0  0.20836  0.22252  0.33438  1.0000
  H   H182      1.0  0.27127  0.17011  0.34884  1.0000
  H   H183      1.0  0.30859  0.14717  0.35472  1.0000
  H   H184      1.0  0.34398  0.16529  0.34690  1.0000
  H   H185      1.0  0.34163  0.20706  0.33437  1.0000
  H   H186      1.0  0.30461  0.23033  0.33169  1.0000
  H   H187      1.0  0.22787  0.25963  0.34607  1.0000
  H   H188      1.0  0.20037  0.26663  0.38009  1.0000
  H   H189      1.0  0.19869  0.23710  0.41379  1.0000
  H   H190      1.0  0.22446  0.20037  0.41302  1.0000
  H   H191      1.0  0.25154  0.19311  0.37875  1.0000
  H   H192      1.0  0.26886  0.22580  0.28417  1.0000
  C   C236      1.0  0.31957  0.16721  0.27016  1.0000
  H   H193      1.0  0.28731  0.29339  0.27047  1.0000
  H   H194      1.0  0.28196  0.29567  0.31147  1.0000
  H   H195      1.0  0.26848  0.26378  0.33900  1.0000
  C   C237      1.0  0.28369  0.47482  0.39885  1.0000
  C   C238      1.0  0.18251  0.46752  0.30194  1.0000
  H   H196      1.0  0.15498  0.37352  0.28899  1.0000
  H   H197      1.0  0.19610  0.17244  0.24804  1.0000
  H   H198      1.0  0.33723  0.02931  0.27141  1.0000
  C   C239      1.0  0.12364  0.46292  0.36971  1.0000
  H   H199      1.0  0.33913  0.27257  0.27104  1.0000
  C   C240      1.0  0.20085  0.46507  0.28432  1.0000
  H   H200      1.0  0.15962  0.08646  0.37340  1.0000
  C   C241      1.0  0.19474  0.07473  0.37771  1.0000
  H   H201      1.0  0.25753  0.19524  0.25917  1.0000
  H   H202      1.0  0.28646  0.16088  0.26346  1.0000
  C   C242      1.0  0.37662  0.30960  0.27002  1.0000
  H   H203      1.0  0.32470  0.40135  0.25858  1.0000
  C   C243      1.0  0.32928  0.21516  0.25446  1.0000
  S   S43       1.0  0.30384  0.18777  0.49039  1.0000
  C   C244      1.0  0.35970  0.32270  0.28335  1.0000
  H   H204      1.0  0.34667  0.13739  0.31370  1.0000
  H   H205      1.0  0.20793  0.44833  0.27972  1.0000
  C   C245      1.0  0.32673  0.21829  0.27732  1.0000
  C   C246      1.0  0.17440  0.34490  0.25330  1.0000
  C   C247      1.0  0.33064  0.23890  0.28316  1.0000
  C   C248      1.0  0.17386  0.05904  0.35360  1.0000
  H   H206      1.0  0.08559  0.46141  0.33363  1.0000
  C   C249      1.0  0.09140  0.13496  0.26662  1.0000
  H   H207      1.0  0.14816  0.14327  0.32167  1.0000
  C   C250      1.0  0.15993  0.43796  0.27387  1.0000
  H   H208      1.0  0.28210  0.12982  0.29469  1.0000
  H   H209      1.0  0.11108  0.03588  0.33376  1.0000
  S   S44       1.0  0.30640  0.33278  0.24670  1.0000
  C   C251      1.0  0.31102  0.43995  0.30795  1.0000
  C   C252      1.0  0.16117  0.05052  0.27374  1.0000
  H   H210      1.0  0.25586  0.45404  0.37468  1.0000
  H   H211      1.0  0.15134  0.07900  0.29220  1.0000
  C   C253      1.0  0.20445  0.18488  0.25374  1.0000
  C   C254      1.0  0.32178  0.45286  0.28910  1.0000
  H   H212      1.0  0.45346  0.29912  0.25627  1.0000
  H   H213      1.0  0.27604  0.23239  0.48834  1.0000
  P   P7        1.0  0.14807  0.05986  0.34084  1.0000
  C   C255      1.0  0.02567  0.14973  0.25682  1.0000
  C   C256      1.0  0.15484  0.04707  0.31489  1.0000
  C   C257      1.0  0.11296  0.02874  0.39848  1.0000
  H   H214      1.0  0.26855  0.48754  0.39949  1.0000
  P   P8        1.0  0.46891  0.21281  0.35492  1.0000
  C   C258      1.0  0.47824  0.19774  0.33052  1.0000
  C   C259      1.0  0.44592  0.19936  0.37256  1.0000
  C   C260      1.0  0.44512  0.17598  0.37322  1.0000
  C   C261      1.0  0.42734  0.16569  0.38698  1.0000
  C   C262      1.0  0.41040  0.17860  0.40032  1.0000
  C   C263      1.0  0.41123  0.20179  0.39992  1.0000
  C   C264      1.0  0.42896  0.21215  0.38621  1.0000
  C   C265      1.0  0.46182  0.19381  0.31776  1.0000
  C   C266      1.0  0.46862  0.18364  0.29801  1.0000
  H   H215      1.0  0.49716  0.17015  0.27503  1.0000
  S   S45       1.0  0.39164  0.24474  0.26037  1.0000
  C   C267      1.0  0.45690  0.24155  0.34452  1.0000
  C   C268      1.0  0.43523  0.24523  0.33720  1.0000
  C   C269      1.0  0.42570  0.26705  0.32855  1.0000
  C   C270      1.0  0.43774  0.28549  0.32703  1.0000
  C   C271      1.0  0.45916  0.28217  0.33461  1.0000
  C   C272      1.0  0.46869  0.26033  0.34341  1.0000
  C   C273      1.0  0.10257  0.46477  0.36167  1.0000
  C   C274      1.0  0.11181  0.03400  0.35180  1.0000
  H   H216      1.0  0.16220  0.06112  0.25743  1.0000
  H   H217      1.0  0.42646  0.14778  0.38707  1.0000
  H   H218      1.0  0.39629  0.17081  0.41060  1.0000
  H   H219      1.0  0.39769  0.21190  0.40980  1.0000
  C   C275      1.0  0.16304  0.13521  0.24809  1.0000
  H   H220      1.0  0.44368  0.19880  0.32283  1.0000
  H   H221      1.0  0.45580  0.18121  0.28804  1.0000
  P   P9        1.0  0.32437  0.18895  0.24598  1.0000
  H   H222      1.0  0.12216  0.11585  0.27826  1.0000
  H   H223      1.0  0.29197  0.44006  0.34123  1.0000
  H   H224      1.0  0.43035  0.30230  0.31995  1.0000
  H   H225      1.0  0.46842  0.29652  0.33361  1.0000
  H   H226      1.0  0.48517  0.25840  0.34921  1.0000
  H   H227      1.0  0.00678  0.18084  0.26786  1.0000
  C   C276      1.0  0.16184  0.40347  0.30083  1.0000
  H   H228      1.0  0.22895  0.03219  0.35245  1.0000
  H   H229      1.0  0.32561  0.07019  0.25773  1.0000
  H   H230      1.0  0.30962  0.42225  0.30737  1.0000
  H   H231      1.0  0.19279  0.29793  0.25674  1.0000
  P   P10       1.0  0.16996  0.44270  0.31650  1.0000
  C   C277      1.0  0.14353  0.45122  0.33412  1.0000
  C   C278      1.0  0.18947  0.42506  0.33437  1.0000
  C   C279      1.0  0.21253  0.42851  0.33217  1.0000
  C   C280      1.0  0.22789  0.41360  0.34468  1.0000
  C   C281      1.0  0.22025  0.39541  0.35989  1.0000
  C   C282      1.0  0.19709  0.39250  0.36306  1.0000
  C   C283      1.0  0.18170  0.40737  0.35053  1.0000
  C   C284      1.0  0.33638  0.16022  0.28470  1.0000
  C   C285      1.0  0.11069  0.11829  0.26558  1.0000
  C   C286      1.0  0.16026  0.02328  0.31587  1.0000
  Fe  Fe21      1.0  0.22822  0.37108  0.25814  1.0000
  S   S46       1.0  0.26150  0.38559  0.24741  1.0000
  H   H232      1.0  0.32884  0.44515  0.27398  1.0000
  C   C287      1.0  0.13478  0.08905  0.33435  1.0000
  C   C288      1.0  0.19347  0.04332  0.34844  1.0000
  C   C289      1.0  0.14407  0.45621  0.35598  1.0000
  P   P11       1.0  0.05274  0.16109  0.25002  1.0000
  H   H233      1.0  0.42560  0.23121  0.33819  1.0000
  H   H234      1.0  0.16080  0.45602  0.26935  1.0000
  H   H235      1.0  0.21896  0.44241  0.32059  1.0000
  H   H236      1.0  0.24589  0.41580  0.34196  1.0000
  H   H237      1.0  0.23232  0.38323  0.36886  1.0000
  H   H238      1.0  0.19134  0.37809  0.37457  1.0000
  H   H239      1.0  0.16389  0.40461  0.35302  1.0000
  H   H240      1.0  0.10065  0.08031  0.33536  1.0000
  H   H241      1.0  0.14918  0.28422  0.26155  1.0000
  C   C290      1.0  0.15573  0.33277  0.25434  1.0000
  C   C291      1.0  0.33612  0.25672  0.26631  1.0000
  H   H242      1.0  0.14948  0.39312  0.25055  1.0000
  Fe  Fe22      1.0  0.41713  0.26696  0.26401  1.0000
  C   C292      1.0  0.33358  0.14258  0.30262  1.0000
  H   H243      1.0  0.03847  0.18438  0.32665  1.0000
  H   H244      1.0  0.32684  0.45118  0.36171  1.0000
  C   C293      1.0  0.13776  0.12953  0.32471  1.0000
  H   H245      1.0  0.36337  0.32689  0.29908  1.0000
  H   H246      1.0  0.32198  0.20491  0.29060  1.0000
  C   C294      1.0  0.30178  0.47332  0.32766  1.0000
  C   C295      1.0  0.05472  0.17931  0.27063  1.0000
  C   C296      1.0  0.04492  0.17418  0.29329  1.0000
  H   H247      1.0  0.23024  0.06047  0.37807  1.0000
  C   C297      1.0  0.12399  0.23431  0.30136  1.0000
  C   C298      1.0  0.10976  0.25453  0.29553  1.0000
  C   C299      1.0  0.11892  0.27246  0.28116  1.0000
  C   C300      1.0  0.14219  0.27003  0.27222  1.0000
  C   C301      1.0  0.15653  0.24968  0.27756  1.0000
  C   C302      1.0  0.14733  0.23193  0.29257  1.0000
  P   P12       1.0  0.18719  0.24926  0.27103  1.0000
  H   H248      1.0  0.28031  0.46595  0.43514  1.0000
  C   C303      1.0  0.19521  0.26189  0.29358  1.0000
  C   C304      1.0  0.21491  0.27285  0.28988  1.0000
  C   C305      1.0  0.21791  0.28741  0.30482  1.0000
  C   C306      1.0  0.20169  0.29071  0.32381  1.0000
  C   C307      1.0  0.18304  0.27855  0.32862  1.0000
  C   C308      1.0  0.17981  0.26416  0.31368  1.0000
  C   C309      1.0  0.30092  0.45015  0.32709  1.0000
  C   C310      1.0  0.24639  0.46789  0.36472  1.0000
  C   C311      1.0  0.10192  0.45998  0.33987  1.0000
  C   C312      1.0  0.01512  0.23450  0.25438  1.0000
  C   C313      1.0  0.07706  0.13880  0.24965  1.0000
  C   C314      1.0  0.20231  0.22115  0.26780  1.0000
  C   C315      1.0  0.33310  0.32420  0.25637  1.0000
  C   C316      1.0  0.25731  0.48597  0.35227  1.0000
  P   P13       1.0  0.28756  0.48635  0.35212  1.0000
  C   C317      1.0  0.23912  0.19791  0.25957  1.0000
  C   C318      1.0  0.22621  0.21763  0.26687  1.0000
  H   H249      1.0  0.11690  0.22026  0.31226  1.0000
  H   H250      1.0  0.09162  0.25631  0.30199  1.0000
  H   H251      1.0  0.10796  0.28827  0.27676  1.0000
  C   C319      1.0  0.49178  0.21250  0.37162  1.0000
  H   H252      1.0  0.15815  0.21634  0.29769  1.0000
  H   H253      1.0  0.22721  0.27140  0.27475  1.0000
  H   H254      1.0  0.23255  0.29659  0.30154  1.0000
  H   H255      1.0  0.20390  0.30223  0.33517  1.0000
  H   H256      1.0  0.17076  0.28073  0.34369  1.0000
  H   H257      1.0  0.16469  0.25571  0.31762  1.0000
  C   C320      1.0  0.13985  0.17880  0.25438  1.0000
  H   H258      1.0  0.32968  0.48632  0.27435  1.0000
  C   C321      1.0  0.29034  0.46269  0.41906  1.0000
  H   H259      1.0  0.45808  0.16573  0.36299  1.0000
  C   C322      1.0  0.04648  0.18815  0.30933  1.0000
  C   C323      1.0  0.11432  0.13417  0.32302  1.0000
  H   H260      1.0  0.21470  0.45349  0.37391  1.0000
  H   H261      1.0  0.23481  0.23063  0.27092  1.0000
  C   C324      1.0  0.31224  0.48627  0.30847  1.0000
  S   S47       1.0  0.40371  0.29965  0.27850  1.0000
  H   H262      1.0  0.17336  0.20778  0.25961  1.0000
  H   H263      1.0  0.10654  0.15158  0.31846  1.0000
  H   H264      1.0  0.12146  0.44967  0.30924  1.0000
  C   C325      1.0  0.12232  0.45327  0.32609  1.0000
  C   C326      1.0  0.21437  0.05961  0.37178  1.0000
  H   H265      1.0  0.14075  0.04864  0.39061  1.0000
  H   H266      1.0  0.16039  0.01248  0.33204  1.0000
  C   C327      1.0  0.31633  0.45438  0.37755  1.0000
  C   C328      1.0  0.10103  0.11634  0.32697  1.0000
  C   C329      1.0  0.15505  0.06060  0.29362  1.0000
  C   C330      1.0  0.16400  0.42677  0.29546  1.0000
  H   H267      1.0  0.35171  0.16837  0.28237  1.0000
  H   H268      1.0  0.08819  0.14518  0.28033  1.0000
  Fe  Fe23      1.0  0.27714  0.35310  0.26632  1.0000
  C   C331      1.0  0.32234  0.47602  0.28935  1.0000
  C   C332      1.0  0.48937  0.20368  0.39477  1.0000
  H   H269      1.0  0.25349  0.47759  0.30293  1.0000
  H   H270      1.0  0.42918  0.23018  0.38608  1.0000
  H   H271      1.0  0.33811  0.42961  0.39741  1.0000
  C   C333      1.0  0.14801  0.10711  0.33010  1.0000
  H   H272      1.0  0.16465  0.39422  0.31720  1.0000
  C   C334      1.0  0.21366  0.04376  0.35734  1.0000
  C   C335      1.0  0.22305  0.46744  0.36423  1.0000
  C   C336      1.0  0.30987  0.44632  0.41853  1.0000
  C   C337      1.0  0.29643  0.47048  0.37795  1.0000
  C   C338      1.0  0.06829  0.21207  0.28057  1.0000
  H   H273      1.0  0.40904  0.26960  0.32272  1.0000
  H   H274      1.0  0.05928  0.21804  0.31530  1.0000
  C   C339      1.0  0.12806  0.04389  0.36017  1.0000
  H   H275      1.0  0.28279  0.44529  0.24464  1.0000
  C   C340      1.0  0.17450  0.07431  0.36887  1.0000
  C   C341      1.0  0.29980  0.15624  0.27415  1.0000
  C   C342      1.0  0.29711  0.13855  0.29206  1.0000
  C   C343      1.0  0.31394  0.13177  0.30633  1.0000
  H   H276      1.0  0.19252  0.48458  0.35074  1.0000
  C   C344      1.0  0.23163  0.99912  0.28673  1.0000
  H   H277      1.0  0.37249  0.18793  0.25180  1.0000
  H   H278      1.0  0.34475  0.00085  0.24444  1.0000
  H   H279      1.0  0.01815  0.22965  0.27180  1.0000
  C   C345      1.0  0.49188  0.17721  0.29080  1.0000
  C   C346      1.0  0.19152  0.20472  0.26086  1.0000
  C   C347      1.0  0.21058  0.48484  0.35106  1.0000
  H   H280      1.0  0.47878  0.29438  0.28586  1.0000
  H   H281      1.0  0.23542  0.24956  0.46933  1.0000
  C   C348      1.0  0.21056  0.48412  0.27280  1.0000
  H   H282      1.0  0.07478  0.20245  0.24725  1.0000
  C   C349      1.0  0.28173  0.01961  0.26122  1.0000
  C   C350      1.0  0.47183  0.29907  0.25146  1.0000
  H   H283      1.0  0.35779  0.37081  0.25367  1.0000
  H   H284      1.0  0.08674  0.46990  0.37235  1.0000
  C   C351      1.0  0.48611  0.29651  0.26817  1.0000
  C   C352      1.0  0.00584  0.16362  0.26512  1.0000
  C   C353      1.0  0.37177  0.30407  0.24982  1.0000
  Fe  Fe24      1.0  0.45737  0.23438  0.24523  1.0000
  H   H285      1.0  0.23031  0.21258  0.49182  1.0000
  H   H286      1.0  0.03871  0.11647  0.24664  1.0000
  H   H287      1.0  0.22494  0.48203  0.25947  1.0000
  C   C354      1.0  0.29172  0.00180  0.27592  1.0000
  C   C355      1.0  0.22633  0.24888  0.48646  1.0000
  C   C356      1.0  0.33567  0.03470  0.25365  1.0000
  H   H288      1.0  0.11346  0.02664  0.41657  1.0000
  C   C357      1.0  0.17389  0.48939  0.30766  1.0000
  H   H289      1.0  0.08499  0.00915  0.40151  1.0000
  C   C358      1.0  0.16632  0.01328  0.29595  1.0000
  C   C359      1.0  0.09634  0.02153  0.36667  1.0000
  S   S48       1.0  0.17749  0.10792  0.24425  1.0000
  C   C360      1.0  0.11586  0.10541  0.24760  1.0000
  C   C361      1.0  0.09693  0.01888  0.39000  1.0000
  C   C362      1.0  0.19574  0.26571  0.24390  1.0000
  H   H290      1.0  0.23837  0.16636  0.24704  1.0000
  H   H291      1.0  0.17190  0.01911  0.25952  1.0000
  C   C363      1.0  0.50156  0.19022  0.32366  1.0000
  C   C364      1.0  0.32915  0.05768  0.24599  1.0000
  H   H292      1.0  0.29253  0.00434  0.29315  1.0000
  C   C365      1.0  0.15314  0.40260  0.26315  1.0000
  C   C366      1.0  0.15484  0.42583  0.25773  1.0000
  H   H293      1.0  0.38775  0.13680  0.59585  1.0000
  H   H294      1.0  0.39091  0.06480  0.65628  1.0000
  Fe  Fe25      1.0  0.26620  0.22663  0.64899  1.0000
  S   S49       1.0  0.25876  0.26145  0.62934  1.0000
  S   S50       1.0  0.24132  0.20538  0.67148  1.0000
  Fe  Fe26      1.0  0.31564  0.21903  0.62664  1.0000
  S   S51       1.0  0.31248  0.25301  0.60500  1.0000
  S   S52       1.0  0.34671  0.19274  0.62117  1.0000
  Fe  Fe27      1.0  0.29353  0.26609  0.63667  1.0000
  S   S53       1.0  0.30553  0.29795  0.64320  1.0000
  Fe  Fe28      1.0  0.27844  0.24552  0.59930  1.0000
  S   S54       1.0  0.26632  0.25380  0.56485  1.0000
  S   S55       1.0  0.29945  0.23242  0.65884  1.0000
  S   S56       1.0  0.28299  0.21043  0.61839  1.0000
  C   C367      1.0  0.37297  0.05807  0.71317  1.0000
  S   S57       1.0  0.26775  0.34821  0.72909  1.0000
  H   H295      1.0  0.15004  0.14769  0.54361  1.0000
  C   C368      1.0  0.44097  0.08538  0.72475  1.0000
  C   C369      1.0  0.45353  0.10326  0.71562  1.0000
  S   S58       1.0  0.32631  0.37379  0.73423  1.0000
  C   C370      1.0  0.40691  0.10685  0.64361  1.0000
  S   S59       1.0  0.43266  0.21400  0.71871  1.0000
  H   H296      1.0  0.19520  0.24680  0.54814  1.0000
  Fe  Fe29      1.0  0.43230  0.18020  0.70796  1.0000
  S   S60       1.0  0.43465  0.17672  0.67117  1.0000
  H   H297      1.0  0.08977  0.19295  0.71208  1.0000
  H   H298      1.0  0.06210  0.20028  0.62943  1.0000
  C   C371      1.0  0.13979  0.20549  0.53210  1.0000
  P   P14       1.0  0.38657  0.09818  0.68849  1.0000
  H   H299      1.0  0.03864  0.23837  0.62473  1.0000
  H   H300      1.0  0.45925  0.22032  0.66091  1.0000
  H   H301      1.0  0.47743  0.24343  0.68196  1.0000
  H   H302      1.0  0.06879  0.23058  0.70527  1.0000
  H   H303      1.0  0.21561  0.46290  0.71223  1.0000
  C   C372      1.0  0.21213  0.22672  0.52182  1.0000
  H   H304      1.0  0.09847  0.15243  0.72624  1.0000
  H   H305      1.0  0.35247  0.14352  0.62302  1.0000
  C   C373      1.0  0.28031  0.22743  0.50535  1.0000
  C   C374      1.0  0.16176  0.21061  0.53283  1.0000
  H   H306      1.0  0.29669  0.28301  0.72341  1.0000
  C   C375      1.0  0.37057  0.19043  0.63567  1.0000
  C   C376      1.0  0.39207  0.18246  0.62450  1.0000
  C   C377      1.0  0.41150  0.17858  0.63559  1.0000
  C   C378      1.0  0.40960  0.18220  0.65814  1.0000
  C   C379      1.0  0.38811  0.19002  0.66957  1.0000
  C   C380      1.0  0.36859  0.19459  0.65819  1.0000
  H   H307      1.0  0.39371  0.17924  0.60714  1.0000
  H   H308      1.0  0.42803  0.17249  0.62670  1.0000
  H   H309      1.0  0.38659  0.19230  0.68714  1.0000
  H   H310      1.0  0.35207  0.20081  0.66699  1.0000
  C   C381      1.0  0.29508  0.31015  0.66816  1.0000
  C   C382      1.0  0.30869  0.32376  0.67554  1.0000
  C   C383      1.0  0.30074  0.33477  0.69473  1.0000
  C   C384      1.0  0.27869  0.33288  0.70620  1.0000
  C   C385      1.0  0.26497  0.31924  0.69885  1.0000
  C   C386      1.0  0.27332  0.30750  0.68012  1.0000
  H   H311      1.0  0.32537  0.32596  0.66614  1.0000
  H   H312      1.0  0.31133  0.34537  0.70015  1.0000
  H   H313      1.0  0.24787  0.31775  0.70758  1.0000
  H   H314      1.0  0.26265  0.29715  0.67441  1.0000
  C   C387      1.0  0.27773  0.23569  0.54412  1.0000
  C   C388      1.0  0.29150  0.21496  0.54946  1.0000
  C   C389      1.0  0.29957  0.20051  0.53279  1.0000
  H   H315      1.0  0.49845  0.33662  0.71907  1.0000
  C   C390      1.0  0.36377  0.11397  0.70550  1.0000
  C   C391      1.0  0.27211  0.24182  0.52205  1.0000
  H   H316      1.0  0.29598  0.21008  0.56639  1.0000
  H   H317      1.0  0.31028  0.18455  0.53701  1.0000
  C   C392      1.0  0.42092  0.08351  0.71628  1.0000
  C   C393      1.0  0.18712  0.23403  0.72603  1.0000
  C   C394      1.0  0.19089  0.21081  0.72410  1.0000
  C   C395      1.0  0.20831  0.20224  0.70799  1.0000
  C   C396      1.0  0.22199  0.21678  0.69340  1.0000
  C   C397      1.0  0.21864  0.24006  0.69550  1.0000
  C   C398      1.0  0.20119  0.24868  0.71188  1.0000
  H   H318      1.0  0.18051  0.19930  0.73515  1.0000
  H   H319      1.0  0.21104  0.18424  0.70685  1.0000
  H   H320      1.0  0.22912  0.25143  0.68423  1.0000
  H   H321      1.0  0.19844  0.26667  0.71341  1.0000
  H   H322      1.0  0.35355  0.15695  0.73822  1.0000
  C   C399      1.0  0.44741  0.26859  0.68615  1.0000
  C   C400      1.0  0.46001  0.24896  0.67830  1.0000
  C   C401      1.0  0.44981  0.23594  0.66644  1.0000
  C   C402      1.0  0.42698  0.24239  0.66265  1.0000
  C   C403      1.0  0.41431  0.26226  0.67020  1.0000
  C   C404      1.0  0.42469  0.27532  0.68200  1.0000
  P   P15       1.0  0.38513  0.27072  0.66430  1.0000
  C   C405      1.0  0.38554  0.26602  0.63537  1.0000
  C   C406      1.0  0.36538  0.25452  0.68366  1.0000
  C   C407      1.0  0.34170  0.26119  0.68397  1.0000
  C   C408      1.0  0.32602  0.24919  0.69902  1.0000
  C   C409      1.0  0.33389  0.23059  0.71416  1.0000
  C   C410      1.0  0.35746  0.22391  0.71405  1.0000
  C   C411      1.0  0.37318  0.23587  0.69891  1.0000
  C   C412      1.0  0.40262  0.27410  0.61850  1.0000
  C   C413      1.0  0.40432  0.26925  0.59632  1.0000
  C   C414      1.0  0.38927  0.25593  0.59092  1.0000
  C   C415      1.0  0.37252  0.24752  0.60766  1.0000
  C   C416      1.0  0.37050  0.25262  0.62978  1.0000
  C   C417      1.0  0.37615  0.30034  0.66790  1.0000
  C   C418      1.0  0.37648  0.31772  0.64934  1.0000
  C   C419      1.0  0.37012  0.34055  0.65278  1.0000
  C   C420      1.0  0.36324  0.34616  0.67470  1.0000
  C   C421      1.0  0.36250  0.32894  0.69317  1.0000
  C   C422      1.0  0.36877  0.30614  0.68981  1.0000
  H   H323      1.0  0.45517  0.27847  0.69566  1.0000
  H   H324      1.0  0.41917  0.23173  0.65396  1.0000
  H   H325      1.0  0.41535  0.29067  0.68798  1.0000
  H   H326      1.0  0.33545  0.27569  0.67248  1.0000
  H   H327      1.0  0.30777  0.25435  0.69879  1.0000
  H   H328      1.0  0.32175  0.22143  0.72600  1.0000
  H   H329      1.0  0.46356  0.34128  0.70046  1.0000
  H   H330      1.0  0.39130  0.23043  0.69910  1.0000
  H   H331      1.0  0.41477  0.28395  0.62259  1.0000
  H   H332      1.0  0.41744  0.27559  0.58338  1.0000
  H   H333      1.0  0.39061  0.25192  0.57383  1.0000
  H   H334      1.0  0.36122  0.23679  0.60351  1.0000
  H   H335      1.0  0.35745  0.24569  0.64240  1.0000
  H   H336      1.0  0.38117  0.31381  0.63222  1.0000
  H   H337      1.0  0.37002  0.35386  0.63840  1.0000
  H   H338      1.0  0.35793  0.36378  0.67738  1.0000
  C   C423      1.0  0.46264  0.33572  0.71851  1.0000
  H   H339      1.0  0.36775  0.29304  0.70435  1.0000
  H   H340      1.0  0.45581  0.13310  0.69077  1.0000
  C   C424      1.0  0.44617  0.11914  0.69781  1.0000
  C   C425      1.0  0.22934  0.17803  0.52676  1.0000
  C   C426      1.0  0.17975  0.19304  0.53723  1.0000
  C   C427      1.0  0.40717  0.11613  0.62082  1.0000
  C   C428      1.0  0.38750  0.12918  0.61340  1.0000
  H   H341      1.0  0.42226  0.09670  0.64911  1.0000
  C   C429      1.0  0.42604  0.11745  0.68940  1.0000
  H   H342      1.0  0.42270  0.11343  0.60894  1.0000
  H   H343      1.0  0.15571  0.26409  0.60831  1.0000
  H   H344      1.0  0.30600  0.11779  0.72082  1.0000
  H   H345      1.0  0.20088  0.08337  0.69358  1.0000
  H   H346      1.0  0.17578  0.11689  0.70745  1.0000
  H   H347      1.0  0.35171  0.12756  0.66308  1.0000
  C   C430      1.0  0.36727  0.12392  0.65156  1.0000
  H   H348      1.0  0.37002  0.06702  0.72786  1.0000
  C   C431      1.0  0.36755  0.13296  0.62874  1.0000
  H   H349      1.0  0.35664  0.33321  0.71013  1.0000
  C   C432      1.0  0.36857  0.03551  0.71593  1.0000
  C   C433      1.0  0.36810  0.13149  0.71651  1.0000
  C   C434      1.0  0.34123  0.10916  0.70722  1.0000
  H   H350      1.0  0.32133  0.18038  0.66580  1.0000
  C   C435      1.0  0.11098  0.26151  0.72796  1.0000
  C   C436      1.0  0.41331  0.09952  0.69847  1.0000
  C   C437      1.0  0.38468  0.05689  0.67302  1.0000
  H   H351      1.0  0.38525  0.13589  0.71504  1.0000
  H   H352      1.0  0.09460  0.19368  0.65141  1.0000
  C   C438      1.0  0.38110  0.06894  0.69172  1.0000
  C   C439      1.0  0.25073  0.17240  0.53459  1.0000
  C   C440      1.0  0.11874  0.24990  0.70920  1.0000
  H   H353      1.0  0.04799  0.27003  0.64206  1.0000
  H   H354      1.0  0.42020  0.13048  0.67617  1.0000
  H   H355      1.0  0.08051  0.26378  0.66409  1.0000
  H   H356      1.0  0.46870  0.10505  0.72262  1.0000
  S   S61       1.0  0.46242  0.16330  0.72531  1.0000
  H   H357      1.0  0.28780  0.05059  0.71465  1.0000
  H   H358      1.0  0.05558  0.25102  0.73815  1.0000
  C   C441      1.0  0.20385  0.24713  0.53092  1.0000
  C   C442      1.0  0.22025  0.44647  0.72192  1.0000
  C   C443      1.0  0.15330  0.16527  0.54060  1.0000
  H   H359      1.0  0.38279  0.02513  0.66133  1.0000
  C   C444      1.0  0.14224  0.15649  0.68264  1.0000
  H   H360      1.0  0.30455  0.19183  0.70331  1.0000
  C   C445      1.0  0.13557  0.18283  0.53594  1.0000
  C   C446      1.0  0.27334  0.11860  0.60093  1.0000
  C   C447      1.0  0.27073  0.14129  0.59079  1.0000
  C   C448      1.0  0.26664  0.15888  0.60417  1.0000
  C   C449      1.0  0.26557  0.15383  0.62772  1.0000
  C   C450      1.0  0.26929  0.13110  0.63793  1.0000
  C   C451      1.0  0.27239  0.11349  0.62445  1.0000
  P   P16       1.0  0.26811  0.12456  0.66825  1.0000
  C   C452      1.0  0.28647  0.09838  0.67573  1.0000
  C   C453      1.0  0.27949  0.14595  0.67942  1.0000
  C   C454      1.0  0.29815  0.15607  0.66697  1.0000
  C   C455      1.0  0.30721  0.17242  0.67568  1.0000
  C   C456      1.0  0.29777  0.17881  0.69684  1.0000
  C   C457      1.0  0.27959  0.16837  0.70959  1.0000
  C   C458      1.0  0.27072  0.15174  0.70107  1.0000
  C   C459      1.0  0.30750  0.09281  0.66219  1.0000
  C   C460      1.0  0.32113  0.07194  0.66738  1.0000
  C   C461      1.0  0.31386  0.05659  0.68612  1.0000
  C   C462      1.0  0.29333  0.06241  0.70001  1.0000
  C   C463      1.0  0.28006  0.08351  0.69530  1.0000
  C   C464      1.0  0.23835  0.12249  0.67920  1.0000
  C   C465      1.0  0.22346  0.14175  0.68541  1.0000
  C   C466      1.0  0.20091  0.13972  0.69550  1.0000
  C   C467      1.0  0.19290  0.11862  0.69872  1.0000
  C   C468      1.0  0.20716  0.09969  0.69118  1.0000
  C   C469      1.0  0.22973  0.10167  0.68116  1.0000
  H   H361      1.0  0.27622  0.10498  0.59052  1.0000
  H   H362      1.0  0.27186  0.14525  0.57257  1.0000
  H   H363      1.0  0.26450  0.17647  0.59624  1.0000
  H   H364      1.0  0.26210  0.16766  0.63795  1.0000
  H   H365      1.0  0.27423  0.09582  0.63208  1.0000
  H   H366      1.0  0.30565  0.15157  0.65044  1.0000
  C   C470      1.0  0.32777  0.13840  0.73148  1.0000
  C   C471      1.0  0.10447  0.18306  0.70366  1.0000
  H   H367      1.0  0.16149  0.21810  0.68367  1.0000
  H   H368      1.0  0.25701  0.14351  0.71143  1.0000
  H   H369      1.0  0.31329  0.10453  0.64759  1.0000
  H   H370      1.0  0.33725  0.06759  0.65683  1.0000
  H   H371      1.0  0.32414  0.04026  0.69014  1.0000
  H   H372      1.0  0.12605  0.21913  0.52850  1.0000
  H   H373      1.0  0.26473  0.08804  0.70689  1.0000
  H   H374      1.0  0.22946  0.15820  0.68292  1.0000
  H   H375      1.0  0.18981  0.15432  0.70154  1.0000
  C   C472      1.0  0.24177  0.40864  0.72408  1.0000
  C   C473      1.0  0.10925  0.15988  0.71162  1.0000
  H   H376      1.0  0.24056  0.08682  0.67547  1.0000
  H   H377      1.0  0.14874  0.18700  0.66043  1.0000
  H   H378      1.0  0.26148  0.25782  0.51781  1.0000
  C   C474      1.0  0.35014  0.14355  0.72961  1.0000
  H   H379      1.0  0.13221  0.12879  0.70787  1.0000
  H   H380      1.0  0.36835  0.00626  0.69947  1.0000
  C   C475      1.0  0.24247  0.15282  0.49805  1.0000
  H   H381      1.0  0.33738  0.09601  0.69860  1.0000
  C   C476      1.0  0.12826  0.14663  0.70127  1.0000
  C   C477      1.0  0.20710  0.26816  0.51798  1.0000
  C   C478      1.0  0.26367  0.14720  0.50605  1.0000
  P   P17       1.0  0.20809  0.19947  0.53867  1.0000
  C   C479      1.0  0.21131  0.19956  0.56802  1.0000
  C   C480      1.0  0.13764  0.17975  0.67482  1.0000
  C   C481      1.0  0.22491  0.21431  0.57368  1.0000
  C   C482      1.0  0.22732  0.21465  0.59629  1.0000
  C   C483      1.0  0.21670  0.19979  0.61347  1.0000
  C   C484      1.0  0.20348  0.18467  0.60802  1.0000
  C   C485      1.0  0.20075  0.18455  0.58540  1.0000
  H   H382      1.0  0.12088  0.25153  0.63145  1.0000
  H   H383      1.0  0.40455  0.29334  0.72715  1.0000
  H   H384      1.0  0.17630  0.33251  0.72266  1.0000
  H   H385      1.0  0.19344  0.25361  0.62239  1.0000
  H   H386      1.0  0.15684  0.14618  0.67446  1.0000
  H   H387      1.0  0.18883  0.15651  0.54505  1.0000
  H   H388      1.0  0.23378  0.22554  0.56061  1.0000
  H   H389      1.0  0.23771  0.22633  0.60040  1.0000
  H   H390      1.0  0.21898  0.19985  0.63096  1.0000
  H   H391      1.0  0.19549  0.17297  0.62137  1.0000
  H   H392      1.0  0.19055  0.17263  0.58160  1.0000
  C   C486      1.0  0.32335  0.12146  0.71996  1.0000
  C   C487      1.0  0.11901  0.19336  0.68569  1.0000
  H   H393      1.0  0.20935  0.17302  0.50133  1.0000
  C   C488      1.0  0.38009  0.03435  0.67580  1.0000
  H   H394      1.0  0.27231  0.17311  0.72609  1.0000
  H   H395      1.0  0.13655  0.24957  0.70185  1.0000
  H   H396      1.0  0.36359  0.20950  0.72580  1.0000
  H   H397      1.0  0.25473  0.18075  0.54785  1.0000
  C   C489      1.0  0.38702  0.11087  0.65922  1.0000
  C   C490      1.0  0.17528  0.17033  0.54133  1.0000
  H   H398      1.0  0.19608  0.23073  0.65982  1.0000
  C   C491      1.0  0.17958  0.23518  0.65380  1.0000
  C   C492      1.0  0.17809  0.24809  0.63261  1.0000
  C   C493      1.0  0.15684  0.25395  0.62472  1.0000
  C   C494      1.0  0.13708  0.24681  0.63799  1.0000
  C   C495      1.0  0.13847  0.23367  0.65932  1.0000
  C   C496      1.0  0.15991  0.22806  0.66720  1.0000
  P   P18       1.0  0.11318  0.22361  0.67629  1.0000
  C   C497      1.0  0.10367  0.23869  0.70062  1.0000
  C   C498      1.0  0.08988  0.22823  0.65952  1.0000
  C   C499      1.0  0.07668  0.24980  0.65654  1.0000
  C   C500      1.0  0.05829  0.25343  0.64401  1.0000
  C   C501      1.0  0.05303  0.23559  0.63424  1.0000
  C   C502      1.0  0.06625  0.21414  0.63691  1.0000
  C   C503      1.0  0.08465  0.21045  0.64945  1.0000
  C   C504      1.0  0.08079  0.23933  0.71119  1.0000
  C   C505      1.0  0.07316  0.25093  0.72993  1.0000
  C   C506      1.0  0.26771  0.15684  0.52441  1.0000
  C   C507      1.0  0.23498  0.42949  0.71141  1.0000
  C   C508      1.0  0.22335  0.22782  0.49940  1.0000
  H   H399      1.0  0.41122  0.06987  0.72415  1.0000
  H   H400      1.0  0.28463  0.15343  0.52968  1.0000
  H   H401      1.0  0.20132  0.28379  0.52531  1.0000
  C   C509      1.0  0.37204  0.02367  0.69726  1.0000
  H   H402      1.0  0.16462  0.22826  0.52981  1.0000
  H   H403      1.0  0.25355  0.39563  0.71601  1.0000
  H   H404      1.0  0.24153  0.43260  0.69355  1.0000
  C   C510      1.0  0.29400  0.20668  0.51068  1.0000
  H   H405      1.0  0.25590  0.28240  0.73876  1.0000
  C   C511      1.0  0.22533  0.16817  0.50835  1.0000
  H   H406      1.0  0.27736  0.13616  0.49743  1.0000
  H   H407      1.0  0.11856  0.17889  0.53530  1.0000
  H   H408      1.0  0.36235  0.02728  0.73263  1.0000
  H   H409      1.0  0.21283  0.34466  0.72843  1.0000
  H   H410      1.0  0.40276  0.25190  0.73122  1.0000
  S   S62       1.0  0.40576  0.16935  0.73667  1.0000
  C   C512      1.0  0.48232  0.33312  0.72915  1.0000
  C   C513      1.0  0.21832  0.26903  0.49574  1.0000
  H   H411      1.0  0.44640  0.07329  0.73884  1.0000
  C   C514      1.0  0.20697  0.32939  0.73828  1.0000
  S   S63       1.0  0.30113  0.00465  0.73640  1.0000
  S   S64       1.0  0.49293  0.21380  0.73280  1.0000
  H   H412      1.0  0.25045  0.46952  0.73697  1.0000
  H   H413      1.0  0.42629  0.33338  0.72309  1.0000
  H   H414      1.0  0.02281  0.19610  0.74372  1.0000
  H   H415      1.0  0.12275  0.26987  0.73468  1.0000
  C   C515      1.0  0.44168  0.33126  0.73117  1.0000
  C   C516      1.0  0.18646  0.32257  0.73508  1.0000
  C   C517      1.0  0.08827  0.26190  0.73840  1.0000
  Fe  Fe30      1.0  0.46101  0.19657  0.73816  1.0000
  H   H416      1.0  0.47697  0.26350  0.73874  1.0000
  C   C518      1.0  0.39212  0.26202  0.74312  1.0000
  H   H417      1.0  0.44052  0.24805  0.74253  1.0000
  C   C519      1.0  0.29162  0.28018  0.74156  1.0000
  C   C520      1.0  0.39295  0.28552  0.74066  1.0000
  H   H418      1.0  0.31376  0.14761  0.74164  1.0000
  S   S65       1.0  0.13251  0.19368  0.74298  1.0000
  C   C521      1.0  0.26601  0.47135  0.74309  1.0000
  Fe  Fe31      1.0  0.30055  0.03130  0.75930  1.0000
  C   C522      1.0  0.35920  0.03378  0.83927  1.0000
  Fe  Fe32      1.0  0.29174  0.04443  0.80678  1.0000
  S   S66       1.0  0.30925  0.07546  0.79677  1.0000
  S   S67       1.0  0.27775  0.03467  0.84307  1.0000
  Fe  Fe33      1.0  0.28981  0.08103  0.76703  1.0000
  H   H419      1.0  0.32193  0.47794  0.76492  1.0000
  Fe  Fe34      1.0  0.33595  0.05379  0.77608  1.0000
  S   S68       1.0  0.37435  0.04835  0.77565  1.0000
  S   S69       1.0  0.27042  0.05114  0.77844  1.0000
  S   S70       1.0  0.32007  0.02186  0.78890  1.0000
  Fe  Fe35      1.0  0.26612  0.17083  0.90425  1.0000
  S   S71       1.0  0.23050  0.18819  0.92137  1.0000
  S   S72       1.0  0.28074  0.11240  0.90172  1.0000
  Fe  Fe36      1.0  0.28023  0.22164  0.89519  1.0000
  S   S73       1.0  0.24723  0.23868  0.91217  1.0000
  S   S74       1.0  0.30967  0.23975  0.87631  1.0000
  Fe  Fe37      1.0  0.24959  0.20798  0.93890  1.0000
  H   H420      1.0  0.02662  0.12130  0.90652  1.0000
  Fe  Fe38      1.0  0.23129  0.21715  0.89344  1.0000
  S   S75       1.0  0.20386  0.23418  0.87224  1.0000
  S   S76       1.0  0.28405  0.19281  0.92350  1.0000
  S   S77       1.0  0.26417  0.20149  0.87533  1.0000
  Fe  Fe39      1.0  0.43583  0.15534  0.75506  1.0000
  S   S78       1.0  0.11249  0.21899  0.78826  1.0000
  C   C523      1.0  0.04522  0.21960  0.83954  1.0000
  C   C524      1.0  0.01897  0.12246  0.89118  1.0000
  S   S79       1.0  0.16334  0.18650  0.78490  1.0000
  H   H421      1.0  0.26116  0.00168  0.77081  1.0000
  Fe  Fe40      1.0  0.12992  0.18762  0.80783  1.0000
  S   S80       1.0  0.13161  0.18005  0.84532  1.0000
  H   H422      1.0  0.23958  0.38594  0.81892  1.0000
  S   S81       1.0  0.11609  0.16308  0.79082  1.0000
  S   S82       1.0  0.06728  0.19244  0.75718  1.0000
  S   S83       1.0  0.28270  0.38017  0.77470  1.0000
  H   H423      1.0  0.03671  0.16050  0.79980  1.0000
  S   S84       1.0  0.37734  0.22222  0.76546  1.0000
  S   S85       1.0  0.31173  0.32926  0.77038  1.0000
  C   C525      1.0  0.20769  0.14630  0.75658  1.0000
  Fe  Fe41      1.0  0.30246  0.35282  0.79659  1.0000
  S   S86       1.0  0.28635  0.34212  0.83227  1.0000
  S   S87       1.0  0.33501  0.36845  0.78782  1.0000
  H   H424      1.0  0.19635  0.39456  0.83356  1.0000
  C   C526      1.0  0.36328  0.28893  0.77280  1.0000
  H   H425      1.0  0.35217  0.25734  0.78983  1.0000
  H   H426      1.0  0.35220  0.29924  0.78439  1.0000
  H   H427      1.0  0.28776  0.21281  0.96857  1.0000
  H   H428      1.0  0.08246  0.27046  0.75323  1.0000
  H   H429      1.0  0.13408  0.48374  0.81116  1.0000
  C   C527      1.0  0.37743  0.25182  0.76089  1.0000
  S   S88       1.0  0.31826  0.06205  0.74522  1.0000
  H   H430      1.0  0.24427  0.01764  0.82003  1.0000
  C   C528      1.0  0.03965  0.22499  0.78089  1.0000
  C   C529      1.0  0.19399  0.38367  0.82163  1.0000
  H   H431      1.0  0.05473  0.22681  0.78797  1.0000
  C   C530      1.0  0.30178  0.26750  0.86287  1.0000
  C   C531      1.0  0.31495  0.27584  0.84275  1.0000
  C   C532      1.0  0.30984  0.29852  0.83271  1.0000
  C   C533      1.0  0.29191  0.31307  0.84310  1.0000
  C   C534      1.0  0.27863  0.30462  0.86305  1.0000
  C   C535      1.0  0.28336  0.28183  0.87276  1.0000
  H   H432      1.0  0.32930  0.26486  0.83506  1.0000
  H   H433      1.0  0.32020  0.30494  0.81737  1.0000
  H   H434      1.0  0.26479  0.31581  0.87118  1.0000
  H   H435      1.0  0.27330  0.27565  0.88839  1.0000
  C   C536      1.0  0.18473  0.21800  0.86476  1.0000
  C   C537      1.0  0.17937  0.19768  0.87799  1.0000
  C   C538      1.0  0.16292  0.18600  0.87210  1.0000
  C   C539      1.0  0.15244  0.19425  0.85261  1.0000
  C   C540      1.0  0.15840  0.21410  0.83907  1.0000
  C   C541      1.0  0.17413  0.22614  0.84538  1.0000
  H   H436      1.0  0.18736  0.19138  0.89306  1.0000
  H   H437      1.0  0.15832  0.17060  0.88260  1.0000
  H   H438      1.0  0.15043  0.22055  0.82400  1.0000
  H   H439      1.0  0.17811  0.24177  0.83505  1.0000
  H   H440      1.0  0.17291  0.23816  0.99094  1.0000
  C   C542      1.0  0.23136  0.14279  0.75760  1.0000
  C   C543      1.0  0.17916  0.30281  0.74785  1.0000
  C   C544      1.0  0.28279  0.20902  0.98664  1.0000
  C   C545      1.0  0.39966  0.10885  0.76758  1.0000
  H   H441      1.0  0.20209  0.45129  0.82024  1.0000
  H   H442      1.0  0.22539  0.03560  0.78341  1.0000
  C   C546      1.0  0.30819  0.27712  0.75612  1.0000
  H   H443      1.0  0.18113  0.35822  0.84788  1.0000
  C   C547      1.0  0.30149  0.27463  0.77956  1.0000
  Fe  Fe42      1.0  0.29436  0.35752  0.74758  1.0000
  C   C548      1.0  0.24210  0.99978  0.82369  1.0000
  C   C549      1.0  0.49496  0.15223  0.84034  1.0000
  H   H444      1.0  0.16920  0.48028  0.82941  1.0000
  Fe  Fe43      1.0  0.31606  0.39414  0.76349  1.0000
  C   C550      1.0  0.26843  0.28033  0.75036  1.0000
  H   H445      1.0  0.23618  0.32172  0.75626  1.0000
  C   C551      1.0  0.19980  0.39000  0.79825  1.0000
  C   C552      1.0  0.14741  0.45639  0.79138  1.0000
  C   C553      1.0  0.27735  0.05702  0.85882  1.0000
  C   C554      1.0  0.27275  0.07993  0.84944  1.0000
  C   C555      1.0  0.27278  0.09745  0.86248  1.0000
  C   C556      1.0  0.27795  0.09195  0.88472  1.0000
  C   C557      1.0  0.28263  0.06904  0.89388  1.0000
  C   C558      1.0  0.28191  0.05167  0.88116  1.0000
  H   H446      1.0  0.26896  0.08413  0.83224  1.0000
  H   H447      1.0  0.26943  0.11501  0.85507  1.0000
  H   H448      1.0  0.28671  0.06470  0.91100  1.0000
  H   H449      1.0  0.28517  0.03405  0.88853  1.0000
  C   C559      1.0  0.19323  0.25487  0.96254  1.0000
  H   H450      1.0  0.24083  0.33471  0.83397  1.0000
  C   C560      1.0  0.33452  0.09275  0.84552  1.0000
  C   C561      1.0  0.34448  0.09602  0.82288  1.0000
  C   C562      1.0  0.34516  0.11809  0.81149  1.0000
  C   C563      1.0  0.33569  0.13682  0.82266  1.0000
  C   C564      1.0  0.32528  0.13361  0.84536  1.0000
  C   C565      1.0  0.32597  0.11149  0.85693  1.0000
  P   P19       1.0  0.31461  0.15799  0.86009  1.0000
  C   C566      1.0  0.33875  0.16512  0.87116  1.0000
  C   C567      1.0  0.30415  0.18003  0.83849  1.0000
  C   C568      1.0  0.31059  0.20196  0.83531  1.0000
  C   C569      1.0  0.30275  0.21853  0.81821  1.0000
  C   C570      1.0  0.28885  0.21323  0.80373  1.0000
  C   C571      1.0  0.28273  0.19134  0.80639  1.0000
  C   C572      1.0  0.29029  0.17482  0.82369  1.0000
  C   C573      1.0  0.33560  0.18351  0.88351  1.0000
  C   C574      1.0  0.35397  0.18957  0.89195  1.0000
  C   C575      1.0  0.37573  0.17693  0.88850  1.0000
  C   C576      1.0  0.37904  0.15814  0.87670  1.0000
  C   C577      1.0  0.36065  0.15223  0.86805  1.0000
  C   C578      1.0  0.29122  0.15315  0.88332  1.0000
  C   C579      1.0  0.29602  0.14925  0.90767  1.0000
  C   C580      1.0  0.27705  0.14447  0.92725  1.0000
  C   C581      1.0  0.25318  0.14298  0.92240  1.0000
  C   C582      1.0  0.24811  0.14703  0.89799  1.0000
  C   C583      1.0  0.26710  0.15193  0.87867  1.0000
  H   H451      1.0  0.33311  0.07575  0.85426  1.0000
  H   H452      1.0  0.35146  0.08151  0.81404  1.0000
  H   H453      1.0  0.35271  0.12072  0.79389  1.0000
  H   H454      1.0  0.33665  0.15377  0.81350  1.0000
  H   H455      1.0  0.32002  0.10870  0.87474  1.0000
  H   H456      1.0  0.32154  0.20655  0.84596  1.0000
  H   H457      1.0  0.30750  0.23550  0.81628  1.0000
  H   H458      1.0  0.28290  0.22605  0.79038  1.0000
  H   H459      1.0  0.27219  0.18718  0.79494  1.0000
  H   H460      1.0  0.28578  0.15779  0.82521  1.0000
  H   H461      1.0  0.31888  0.19337  0.88626  1.0000
  H   H462      1.0  0.35118  0.20429  0.90095  1.0000
  H   H463      1.0  0.38998  0.18178  0.89492  1.0000
  H   H464      1.0  0.39587  0.14826  0.87403  1.0000
  H   H465      1.0  0.36375  0.13770  0.85891  1.0000
  H   H466      1.0  0.31312  0.14935  0.91137  1.0000
  H   H467      1.0  0.28076  0.14134  0.94453  1.0000
  H   H468      1.0  0.23992  0.13859  0.93618  1.0000
  H   H469      1.0  0.23118  0.14567  0.89440  1.0000
  H   H470      1.0  0.26330  0.15422  0.86152  1.0000
  C   C584      1.0  0.01175  0.10324  0.88559  1.0000
  H   H471      1.0  0.01382  0.08714  0.89658  1.0000
  H   H472      1.0  0.22174  0.24897  0.75497  1.0000
  H   H473      1.0  0.41281  0.01522  0.87742  1.0000
  C   C585      1.0  0.00637  0.14493  0.85709  1.0000
  S   S89       1.0  0.32273  0.43047  0.76272  1.0000
  C   C586      1.0  0.20935  0.10685  0.75159  1.0000
  C   C587      1.0  0.23485  0.42033  0.80084  1.0000
  H   H474      1.0  0.23050  0.29148  0.96531  1.0000
  S   S90       1.0  0.43719  0.18717  0.76979  1.0000
  H   H475      1.0  0.05185  0.15481  0.83626  1.0000
  H   H476      1.0  0.48396  0.19772  0.78116  1.0000
  C   C588      1.0  0.17328  0.06791  0.78172  1.0000
  C   C589      1.0  0.27830  0.27520  0.78844  1.0000
  C   C590      1.0  0.26385  0.44355  0.80406  1.0000
  H   H477      1.0  0.00921  0.21984  0.84024  1.0000
  C   C591      1.0  0.06692  0.20659  0.83845  1.0000
  C   C592      1.0  0.27444  0.42565  0.81821  1.0000
  H   H478      1.0  0.16335  0.29731  0.74536  1.0000
  H   H479      1.0  0.17531  0.33300  0.82102  1.0000
  H   H480      1.0  0.04353  0.23775  0.84014  1.0000
  H   H481      1.0  0.36175  0.03362  0.82113  1.0000
  C   C593      1.0  0.02778  0.18581  0.83837  1.0000
  S   S91       1.0  0.23931  0.20672  0.97699  1.0000
  C   C594      1.0  0.46656  0.26128  0.75516  1.0000
  C   C595      1.0  0.19202  0.05164  0.77610  1.0000
  C   C596      1.0  0.02571  0.20929  0.83954  1.0000
  Fe  Fe44      1.0  0.40884  0.20191  0.74916  1.0000
  C   C597      1.0  0.39092  0.06988  0.77656  1.0000
  H   H482      1.0  0.01732  0.25017  0.79900  1.0000
  H   H483      1.0  0.27381  0.39106  0.83438  1.0000
  H   H484      1.0  0.39504  0.12634  0.76052  1.0000
  H   H485      1.0  0.15911  0.07146  0.77187  1.0000
  H   H486      1.0  0.31414  0.27301  0.79091  1.0000
  H   H487      1.0  0.49780  0.13701  0.77972  1.0000
  C   C598      1.0  0.26159  0.27831  0.77387  1.0000
  H   H488      1.0  0.08599  0.17332  0.83639  1.0000
  C   C599      1.0  0.21239  0.44264  0.74513  1.0000
  C   C600      1.0  0.33852  0.02274  0.87616  1.0000
  C   C601      1.0  0.34156  0.02312  0.85270  1.0000
  H   H489      1.0  0.29019  0.42744  0.82420  1.0000
  C   C602      1.0  0.37331  0.04485  0.84911  1.0000
  C   C603      1.0  0.36963  0.04548  0.87262  1.0000
  C   C604      1.0  0.35269  0.03358  0.88613  1.0000
  P   P20       1.0  0.38767  0.05946  0.88588  1.0000
  C   C605      1.0  0.37198  0.08133  0.90211  1.0000
  C   C606      1.0  0.40299  0.03709  0.90369  1.0000
  C   C607      1.0  0.40414  0.03908  0.92635  1.0000
  C   C608      1.0  0.18621  0.43818  0.79588  1.0000
  Fe  Fe45      1.0  0.10115  0.19415  0.76927  1.0000
  Fe  Fe46      1.0  0.14524  0.21576  0.76362  1.0000
  S   S92       1.0  0.43995  0.12138  0.77683  1.0000
  C   C609      1.0  0.38417  0.09658  0.90920  1.0000
  C   C610      1.0  0.37267  0.11333  0.92222  1.0000
  C   C611      1.0  0.34892  0.11497  0.92836  1.0000
  C   C612      1.0  0.33664  0.10006  0.92122  1.0000
  C   C613      1.0  0.34800  0.08349  0.90791  1.0000
  C   C614      1.0  0.40759  0.07397  0.86498  1.0000
  C   C615      1.0  0.39912  0.09273  0.85011  1.0000
  C   C616      1.0  0.41426  0.10514  0.83478  1.0000
  C   C617      1.0  0.43795  0.09898  0.83427  1.0000
  C   C618      1.0  0.44654  0.08034  0.84898  1.0000
  C   C619      1.0  0.43144  0.06789  0.86436  1.0000
  C   C620      1.0  0.44039  0.32417  0.75443  1.0000
  C   C621      1.0  0.18708  0.45260  0.81186  1.0000
  C   C622      1.0  0.01966  0.16058  0.79573  1.0000
  H   H490      1.0  0.38677  0.05302  0.83817  1.0000
  H   H491      1.0  0.35025  0.03284  0.90439  1.0000
  H   H492      1.0  0.39578  0.05405  0.93378  1.0000
  C   C623      1.0  0.41156  0.06342  0.78559  1.0000
  H   H493      1.0  0.47195  0.31753  0.84601  1.0000
  H   H494      1.0  0.40264  0.09541  0.90479  1.0000
  H   H495      1.0  0.38214  0.12505  0.92763  1.0000
  H   H496      1.0  0.33997  0.12786  0.93857  1.0000
  H   H497      1.0  0.31818  0.10145  0.92591  1.0000
  H   H498      1.0  0.33779  0.07278  0.90214  1.0000
  H   H499      1.0  0.38081  0.09770  0.85033  1.0000
  H   H500      1.0  0.40767  0.11924  0.82289  1.0000
  H   H501      1.0  0.44968  0.10839  0.82214  1.0000
  H   H502      1.0  0.46492  0.07550  0.84833  1.0000
  H   H503      1.0  0.43852  0.05370  0.87575  1.0000
  C   C624      1.0  0.24058  0.13036  0.81396  1.0000
  C   C625      1.0  0.23327  0.14919  0.82551  1.0000
  C   C626      1.0  0.21206  0.15093  0.83929  1.0000
  C   C627      1.0  0.19832  0.13359  0.84189  1.0000
  C   C628      1.0  0.20558  0.11448  0.83038  1.0000
  C   C629      1.0  0.22681  0.11307  0.81633  1.0000
  P   P21       1.0  0.19024  0.09007  0.83710  1.0000
  C   C630      1.0  0.19155  0.07620  0.81224  1.0000
  C   C631      1.0  0.20372  0.07077  0.85884  1.0000
  C   C632      1.0  0.20340  0.04718  0.86069  1.0000
  C   C633      1.0  0.21428  0.03227  0.87722  1.0000
  C   C634      1.0  0.22490  0.04088  0.89248  1.0000
  C   C635      1.0  0.22452  0.06438  0.89130  1.0000
  C   C636      1.0  0.21416  0.07928  0.87446  1.0000
  C   C637      1.0  0.17306  0.08021  0.79963  1.0000
  H   H504      1.0  0.19822  0.16306  0.75743  1.0000
  H   H505      1.0  0.46069  0.15065  0.80076  1.0000
  C   C638      1.0  0.21075  0.04798  0.78811  1.0000
  C   C639      1.0  0.21068  0.06038  0.80594  1.0000
  C   C640      1.0  0.16048  0.09836  0.84792  1.0000
  C   C641      1.0  0.14793  0.11795  0.83753  1.0000
  C   C642      1.0  0.12479  0.12405  0.84566  1.0000
  C   C643      1.0  0.11404  0.11089  0.86427  1.0000
  C   C644      1.0  0.12637  0.09135  0.87470  1.0000
  C   C645      1.0  0.14948  0.08504  0.86653  1.0000
  H   H506      1.0  0.25700  0.12906  0.80318  1.0000
  H   H507      1.0  0.24391  0.16256  0.82360  1.0000
  H   H508      1.0  0.20625  0.16568  0.84806  1.0000
  H   H509      1.0  0.18230  0.13502  0.85326  1.0000
  H   H510      1.0  0.23304  0.09848  0.80747  1.0000
  H   H511      1.0  0.19491  0.04030  0.84926  1.0000
  H   H512      1.0  0.13203  0.45780  0.78351  1.0000
  H   H513      1.0  0.23375  0.02936  0.90499  1.0000
  H   H514      1.0  0.23293  0.07109  0.90298  1.0000
  H   H515      1.0  0.21461  0.09736  0.87359  1.0000
  H   H516      1.0  0.15847  0.09293  0.80328  1.0000
  C   C646      1.0  0.14855  0.47097  0.80698  1.0000
  C   C647      1.0  0.23299  0.10320  0.75296  1.0000
  H   H517      1.0  0.22546  0.05752  0.81495  1.0000
  H   H518      1.0  0.15598  0.12855  0.82314  1.0000
  H   H519      1.0  0.11531  0.13928  0.83770  1.0000
  H   H520      1.0  0.09620  0.11598  0.87065  1.0000
  H   H521      1.0  0.11805  0.08115  0.88917  1.0000
  H   H522      1.0  0.15866  0.06981  0.87483  1.0000
  H   H523      1.0  0.18676  0.24709  0.95023  1.0000
  C   C648      1.0  0.18521  0.36319  0.82981  1.0000
  C   C649      1.0  0.18703  0.35543  0.79140  1.0000
  H   H524      1.0  0.16507  0.42879  0.77377  1.0000
  C   C650      1.0  0.20944  0.26988  0.95524  1.0000
  H   H525      1.0  0.19927  0.38061  0.76501  1.0000
  S   S93       1.0  0.37821  0.32863  0.75065  1.0000
  H   H526      1.0  0.20100  0.09311  0.74863  1.0000
  H   H527      1.0  0.24271  0.08664  0.75117  1.0000
  C   C651      1.0  0.47620  0.14923  0.80844  1.0000
  C   C652      1.0  0.47499  0.15467  0.83030  1.0000
  C   C653      1.0  0.21875  0.42151  0.75791  1.0000
  C   C654      1.0  0.22034  0.31624  0.75393  1.0000
  H   H528      1.0  0.21541  0.27377  0.93732  1.0000
  C   C655      1.0  0.30631  0.47606  0.75880  1.0000
  C   C656      1.0  0.42673  0.00170  0.93084  1.0000
  C   C657      1.0  0.37813  0.29907  0.75513  1.0000
  C   C658      1.0  0.16614  0.43999  0.78591  1.0000
  C   C659      1.0  0.23380  0.40469  0.74724  1.0000
  H   H529      1.0  0.45857  0.16044  0.83961  1.0000
  Fe  Fe47      1.0  0.14823  0.16454  0.76606  1.0000
  C   C660      1.0  0.24423  0.44088  0.79530  1.0000
  C   C661      1.0  0.37480  0.20832  0.82160  1.0000
  C   C662      1.0  0.38736  0.18658  0.82289  1.0000
  C   C663      1.0  0.41048  0.18361  0.82583  1.0000
  C   C664      1.0  0.42112  0.20248  0.82724  1.0000
  C   C665      1.0  0.40860  0.22446  0.82593  1.0000
  C   C666      1.0  0.38537  0.22718  0.82286  1.0000
  P   P22       1.0  0.42294  0.24913  0.82515  1.0000
  C   C667      1.0  0.40141  0.27373  0.82903  1.0000
  C   C668      1.0  0.44202  0.24358  0.84657  1.0000
  C   C669      1.0  0.43628  0.25323  0.86682  1.0000
  C   C670      1.0  0.45176  0.24951  0.88265  1.0000
  C   C671      1.0  0.47316  0.23637  0.87829  1.0000
  C   C672      1.0  0.47910  0.22684  0.85813  1.0000
  C   C673      1.0  0.46355  0.23025  0.84245  1.0000
  C   C674      1.0  0.40086  0.29314  0.81258  1.0000
  C   C675      1.0  0.38312  0.31133  0.81470  1.0000
  C   C676      1.0  0.36574  0.31030  0.83319  1.0000
  C   C677      1.0  0.36612  0.29109  0.84964  1.0000
  C   C678      1.0  0.38380  0.27285  0.84757  1.0000
  C   C679      1.0  0.44009  0.25390  0.79778  1.0000
  C   C680      1.0  0.43294  0.24831  0.77858  1.0000
  C   C681      1.0  0.26988  0.49305  0.74627  1.0000
  C   C682      1.0  0.02160  0.20762  0.75608  1.0000
  C   C683      1.0  0.47402  0.26650  0.77424  1.0000
  C   C684      1.0  0.46055  0.26350  0.79539  1.0000
  H   H530      1.0  0.35717  0.21082  0.81827  1.0000
  H   H531      1.0  0.37929  0.17218  0.82089  1.0000
  H   H532      1.0  0.42030  0.16679  0.82606  1.0000
  H   H533      1.0  0.43924  0.19998  0.82848  1.0000
  H   H534      1.0  0.37543  0.24389  0.82052  1.0000
  H   H535      1.0  0.42007  0.26384  0.87044  1.0000
  H   H536      1.0  0.44720  0.25702  0.89824  1.0000
  H   H537      1.0  0.48525  0.23377  0.89043  1.0000
  H   H538      1.0  0.49592  0.21709  0.85443  1.0000
  H   H539      1.0  0.46863  0.22302  0.82676  1.0000
  H   H540      1.0  0.41357  0.29407  0.79766  1.0000
  H   H541      1.0  0.38236  0.32593  0.80155  1.0000
  H   H542      1.0  0.35163  0.32414  0.83447  1.0000
  H   H543      1.0  0.35221  0.29006  0.86362  1.0000
  H   H544      1.0  0.38324  0.25773  0.86000  1.0000
  H   H545      1.0  0.41729  0.24086  0.77999  1.0000
  H   H546      1.0  0.18416  0.34450  0.77976  1.0000
  H   H547      1.0  0.46631  0.26838  0.80982  1.0000
  C   C685      1.0  0.21806  0.21663  0.77500  1.0000
  C   C686      1.0  0.21858  0.20371  0.79629  1.0000
  C   C687      1.0  0.22460  0.21302  0.81400  1.0000
  C   C688      1.0  0.22919  0.23555  0.81062  1.0000
  C   C689      1.0  0.22687  0.24920  0.78974  1.0000
  C   C690      1.0  0.22241  0.23922  0.77163  1.0000
  C   C691      1.0  0.22551  0.29199  0.81086  1.0000
  H   H548      1.0  0.21408  0.31942  0.86655  1.0000
  C   C692      1.0  0.28210  0.45200  0.74790  1.0000
  C   C693      1.0  0.21684  0.31211  0.85088  1.0000
  C   C694      1.0  0.20517  0.29424  0.84887  1.0000
  C   C695      1.0  0.20913  0.28455  0.82876  1.0000
  C   C696      1.0  0.48120  0.32601  0.75260  1.0000
  H   H549      1.0  0.21413  0.18660  0.79893  1.0000
  H   H550      1.0  0.22521  0.20307  0.83056  1.0000
  H   H551      1.0  0.23404  0.24231  0.82453  1.0000
  H   H552      1.0  0.20519  0.00610  0.82936  1.0000
  H   H553      1.0  0.03277  0.15147  0.76256  1.0000
  H   H554      1.0  0.19334  0.28751  0.86299  1.0000
  H   H555      1.0  0.19971  0.27096  0.82746  1.0000
  P   P23       1.0  0.21021  0.41706  0.78823  1.0000
  H   H556      1.0  0.42404  0.32076  0.76411  1.0000
  C   C697      1.0  0.41366  0.01715  0.89482  1.0000
  Fe  Fe48      1.0  0.34275  0.34718  0.75955  1.0000
  C   C698      1.0  0.19583  0.37590  0.78314  1.0000
  H   H557      1.0  0.49034  0.27266  0.77257  1.0000
  C   C699      1.0  0.48740  0.31925  0.81108  1.0000
  C   C700      1.0  0.36319  0.26528  0.77584  1.0000
  H   H558      1.0  0.08209  0.21452  0.83840  1.0000
  H   H559      1.0  0.18648  0.27445  0.77324  1.0000
  C   C701      1.0  0.38482  0.09266  0.76765  1.0000
  C   C702      1.0  0.18186  0.34901  0.81470  1.0000
  C   C703      1.0  0.23211  0.32057  0.83260  1.0000
  H   H560      1.0  0.23958  0.38851  0.75679  1.0000
  P   P24       1.0  0.23173  0.27864  0.78535  1.0000
  H   H561      1.0  0.41684  0.02301  0.95733  1.0000
  H   H562      1.0  0.41643  0.04580  0.79232  1.0000
  H   H563      1.0  0.20193  0.45646  0.75306  1.0000
  C   C704      1.0  0.21795  0.27983  0.97103  1.0000
  C   C705      1.0  0.45999  0.32154  0.76515  1.0000
  C   C706      1.0  0.01845  0.23814  0.78713  1.0000
  C   C707      1.0  0.41603  0.02143  0.93983  1.0000
  H   H564      1.0  0.32613  0.27724  0.74919  1.0000
  C   C708      1.0  0.06913  0.18328  0.83730  1.0000
  C   C709      1.0  0.24554  0.40241  0.81520  1.0000
  C   C710      1.0  0.26520  0.40517  0.82391  1.0000
  H   H565      1.0  0.27347  0.27337  0.80667  1.0000
  H   H566      1.0  0.27135  0.45925  0.79918  1.0000
  C   C711      1.0  0.42043  0.10221  0.77656  1.0000
  H   H567      1.0  0.45835  0.31572  0.78310  1.0000
  H   H568      1.0  0.44207  0.07422  0.79276  1.0000
  H   H569      1.0  0.24872  0.31716  0.79883  1.0000
  H   H570      1.0  0.36900  0.09765  0.76036  1.0000
  C   C712      1.0  0.04971  0.17290  0.83724  1.0000
  C   C713      1.0  0.42611  0.07951  0.78580  1.0000
  C   C714      1.0  0.04124  0.20960  0.76539  1.0000
  C   C715      1.0  0.01749  0.15530  0.77448  1.0000
  C   C716      1.0  0.21359  0.29595  0.76614  1.0000
  H   H571      1.0  0.23986  0.15684  0.75967  1.0000
  C   C717      1.0  0.23652  0.31054  0.81267  1.0000
  C   C718      1.0  0.44602  0.25229  0.75734  1.0000
  C   C719      1.0  0.19652  0.12823  0.75402  1.0000
  H   H572      1.0  0.33025  0.01513  0.84490  1.0000
  H   H573      1.0  0.23667  0.45476  0.78382  1.0000
  H   H574      1.0  0.19228  0.04226  0.76209  1.0000
  H   H575      1.0  0.21479  0.01404  0.87800  1.0000
  C   C720      1.0  0.24395  0.12113  0.75623  1.0000
  S   S94       1.0  0.27343  0.11716  0.75822  1.0000
  C   C721      1.0  0.16834  0.46902  0.81725  1.0000
  C   C722      1.0  0.48386  0.30888  0.83354  1.0000
  C   C723      1.0  0.42553  0.99955  0.90836  1.0000
  H   H576      1.0  0.21379  0.20926  0.76120  1.0000
  H   H577      1.0  0.47820  0.33601  0.80642  1.0000
  C   C724      1.0  0.19252  0.28967  0.76352  1.0000
  H   H578      1.0  0.32504  0.01414  0.88656  1.0000
  H   H579      1.0  0.49340  0.27954  0.85743  1.0000
  C   C725      1.0  0.49890  0.20650  0.77798  1.0000
  C   C726      1.0  0.30230  0.45430  0.75586  1.0000
  C   C727      1.0  0.49740  0.14160  0.79646  1.0000
  S   S95       1.0  0.16665  0.13205  0.75361  1.0000
  C   C728      1.0  0.01625  0.14326  0.87702  1.0000
  H   H580      1.0  0.27883  0.43533  0.74559  1.0000
  C   C729      1.0  0.29013  0.49539  0.75407  1.0000
  H   H581      1.0  0.02175  0.15808  0.88166  1.0000
  S   S96       1.0  0.16486  0.24444  0.74621  1.0000
  C   C730      1.0  0.18568  0.24961  0.98568  1.0000
  H   H582      1.0  0.49401  0.15621  0.85740  1.0000
  C   C731      1.0  0.49589  0.28750  0.83998  1.0000
  C   C732      1.0  0.50268  0.30810  0.79474  1.0000
  H   H583      1.0  0.49443  0.36942  0.74396  1.0000
  H   H584      1.0  0.24395  0.88773  0.14188  1.0000
  C   C733      1.0  0.19186  0.71973  0.03068  1.0000
  C   C734      1.0  0.30650  0.79900  0.19627  1.0000
  C   C735      1.0  0.02405  0.77192  0.20686  1.0000
  C   C736      1.0  0.12415  0.76517  0.22008  1.0000
  Fe  Fe49      1.0  0.25427  0.87506  0.21820  1.0000
  S   S97       1.0  0.27696  0.87215  0.18478  1.0000
  H   H585      1.0  0.32368  0.77068  0.17978  1.0000
  Fe  Fe50      1.0  0.25127  0.77212  0.12789  1.0000
  S   S98       1.0  0.21702  0.78766  0.11797  1.0000
  S   S99       1.0  0.28072  0.79184  0.12672  1.0000
  Fe  Fe51      1.0  0.23827  0.72437  0.13646  1.0000
  S   S100      1.0  0.20244  0.73613  0.12785  1.0000
  S   S101      1.0  0.25260  0.68697  0.14291  1.0000
  Fe  Fe52      1.0  0.21958  0.75835  0.09847  1.0000
  S   S102      1.0  0.20556  0.76559  0.06488  1.0000
  Fe  Fe53      1.0  0.20283  0.76455  0.14793  1.0000
  S   S103      1.0  0.17502  0.78271  0.17105  1.0000
  S   S104      1.0  0.25534  0.74463  0.10561  1.0000
  S   S105      1.0  0.23706  0.75094  0.15928  1.0000
  C   C737      1.0  0.34160  0.57633  0.19760  1.0000
  H   H586      1.0  0.37316  0.97477  0.17852  1.0000
  H   H587      1.0  0.24989  0.77772  0.20630  1.0000
  C   C738      1.0  0.36990  0.53650  0.21188  1.0000
  H   H588      1.0  0.29866  0.67520  0.19292  1.0000
  H   H589      1.0  0.35156  0.69797  0.14344  1.0000
  C   C739      1.0  0.31531  0.77610  0.19572  1.0000
  H   H590      1.0  0.40678  0.63420  0.20610  1.0000
  H   H591      1.0  0.24673  0.68891  0.22453  1.0000
  H   H592      1.0  0.35851  0.70880  0.17902  1.0000
  C   C740      1.0  0.11231  0.84425  0.22232  1.0000
  C   C741      1.0  0.25519  0.67490  0.17109  1.0000
  C   C742      1.0  0.26284  0.65151  0.17609  1.0000
  C   C743      1.0  0.26435  0.64153  0.19864  1.0000
  C   C744      1.0  0.25828  0.65503  0.21613  1.0000
  C   C745      1.0  0.25119  0.67844  0.21102  1.0000
  C   C746      1.0  0.24960  0.68834  0.18858  1.0000
  H   H593      1.0  0.26730  0.64106  0.16257  1.0000
  H   H594      1.0  0.27002  0.62348  0.20252  1.0000
  C   C747      1.0  0.30696  0.93007  0.19915  1.0000
  H   H595      1.0  0.24387  0.70632  0.18486  1.0000
  C   C748      1.0  0.15520  0.76687  0.18869  1.0000
  C   C749      1.0  0.15331  0.74471  0.18548  1.0000
  C   C750      1.0  0.13628  0.73305  0.19916  1.0000
  C   C751      1.0  0.40697  0.59029  0.16214  1.0000
  H   H596      1.0  0.26209  0.74052  0.22852  1.0000
  C   C752      1.0  0.14069  0.77700  0.20604  1.0000
  H   H597      1.0  0.16451  0.73688  0.17208  1.0000
  H   H598      1.0  0.13431  0.71616  0.19631  1.0000
  C   C753      1.0  0.33328  0.55533  0.20153  1.0000
  H   H599      1.0  0.14254  0.79389  0.20889  1.0000
  C   C754      1.0  0.21457  0.77017  0.01859  1.0000
  C   C755      1.0  0.22374  0.76302  0.03897  1.0000
  C   C756      1.0  0.24688  0.75375  0.03824  1.0000
  C   C757      1.0  0.26059  0.75130  0.01725  1.0000
  H   H600      1.0  0.19681  0.77772  0.01897  1.0000
  H   H601      1.0  0.25416  0.74832  0.05383  1.0000
  H   H602      1.0  0.27846  0.74407  0.01678  1.0000
  C   C758      1.0  0.22811  0.76729  0.99766  1.0000
  H   H603      1.0  0.28674  0.73567  0.19283  1.0000
  C   C759      1.0  0.31603  0.71413  0.24006  1.0000
  C   C760      1.0  0.27648  0.84967  0.16926  1.0000
  C   C761      1.0  0.29268  0.84770  0.14990  1.0000
  C   C762      1.0  0.29356  0.82998  0.13710  1.0000
  C   C763      1.0  0.27828  0.81392  0.14346  1.0000
  C   C764      1.0  0.26210  0.81561  0.16294  1.0000
  C   C765      1.0  0.26104  0.83364  0.17579  1.0000
  H   H604      1.0  0.30486  0.85978  0.14491  1.0000
  H   H605      1.0  0.30626  0.82866  0.12223  1.0000
  H   H606      1.0  0.25056  0.80297  0.16815  1.0000
  H   H607      1.0  0.24851  0.83496  0.19079  1.0000
  C   C766      1.0  0.31409  0.76059  0.21572  1.0000
  C   C767      1.0  0.33742  0.70591  0.15445  1.0000
  C   C768      1.0  0.18798  0.61774  0.04181  1.0000
  C   C769      1.0  0.25989  0.94470  0.19994  1.0000
  C   C770      1.0  0.17475  0.73787  0.02572  1.0000
  P   P25       1.0  0.37454  0.60484  0.19784  1.0000
  C   C771      1.0  0.24473  0.77488  0.22446  1.0000
  C   C772      1.0  0.27171  0.95101  0.21568  1.0000
  C   C773      1.0  0.08300  0.82501  0.21294  1.0000
  C   C774      1.0  0.28825  0.99521  0.23184  1.0000
  H   H608      1.0  0.21381  0.75323  0.20643  1.0000
  H   H609      1.0  0.19567  0.94475  0.06051  1.0000
  C   C775      1.0  0.42714  0.61581  0.13339  1.0000
  C   C776      1.0  0.20892  0.61862  0.04909  1.0000
  C   C777      1.0  0.34276  0.63579  0.17522  1.0000
  C   C778      1.0  0.32408  0.65309  0.17413  1.0000
  C   C779      1.0  0.31310  0.66179  0.19380  1.0000
  H   H610      1.0  0.15474  0.93883  0.06969  1.0000
  C   C780      1.0  0.42297  0.59375  0.14268  1.0000
  C   C781      1.0  0.24476  0.67795  0.99560  1.0000
  H   H611      1.0  0.26204  0.92511  0.17258  1.0000
  H   H612      1.0  0.28021  0.72359  0.15736  1.0000
  C   C782      1.0  0.39601  0.70896  0.21771  1.0000
  C   C783      1.0  0.39493  0.60895  0.17241  1.0000
  H   H613      1.0  0.33330  0.82379  0.24153  1.0000
  H   H614      1.0  0.29686  0.89913  0.06995  1.0000
  H   H615      1.0  0.35092  0.62901  0.15988  1.0000
  H   H616      1.0  0.31780  0.65959  0.15813  1.0000
  H   H617      1.0  0.21155  0.71207  0.21435  1.0000
  H   H618      1.0  0.40404  0.57307  0.16895  1.0000
  H   H619      1.0  0.28897  0.82439  0.21685  1.0000
  C   C784      1.0  0.31537  0.71005  0.14825  1.0000
  H   H620      1.0  0.01022  0.76263  0.21540  1.0000
  C   C785      1.0  0.30098  0.72699  0.18253  1.0000
  H   H621      1.0  0.30826  0.81097  0.18094  1.0000
  H   H622      1.0  0.34394  0.62836  0.23217  1.0000
  H   H623      1.0  0.17989  0.87999  0.18224  1.0000
  H   H624      1.0  0.42400  0.72842  0.21510  1.0000
  H   H625      1.0  0.04882  0.75321  0.22778  1.0000
  C   C786      1.0  0.29720  0.72048  0.16232  1.0000
  S   S106      1.0  0.21829  0.89280  0.21935  1.0000
  C   C787      1.0  0.23843  0.68588  0.08378  1.0000
  C   C788      1.0  0.25993  0.69339  0.07930  1.0000
  C   C789      1.0  0.27045  0.69778  0.05696  1.0000
  C   C790      1.0  0.25961  0.69443  0.03906  1.0000
  C   C791      1.0  0.23820  0.68641  0.04341  1.0000
  C   C792      1.0  0.22755  0.68245  0.06593  1.0000
  H   H626      1.0  0.14184  0.84745  0.19706  1.0000
  H   H627      1.0  0.40665  0.69264  0.22048  1.0000
  H   H628      1.0  0.30377  0.91208  0.17183  1.0000
  H   H629      1.0  0.11885  0.85245  0.23429  1.0000
  H   H630      1.0  0.26792  0.69842  0.02192  1.0000
  P   P26       1.0  0.31026  0.95041  0.23668  1.0000
  H   H631      1.0  0.14302  0.67620  0.22503  1.0000
  H   H632      1.0  0.17381  0.87523  0.11031  1.0000
  C   C793      1.0  0.23075  0.79204  0.23533  1.0000
  C   C794      1.0  0.35053  0.62717  0.19610  1.0000
  H   H633      1.0  0.33005  0.59149  0.19265  1.0000
  H   H634      1.0  0.22638  0.82673  0.13227  1.0000
  C   C795      1.0  0.36851  0.96726  0.19585  1.0000
  H   H635      1.0  0.30618  0.90950  0.10535  1.0000
  C   C796      1.0  0.32016  0.65262  0.21470  1.0000
  C   C797      1.0  0.27151  0.93098  0.18393  1.0000
  C   C798      1.0  0.02033  0.78900  0.18870  1.0000
  H   H636      1.0  0.23016  0.68296  0.10115  1.0000
  H   H637      1.0  0.26825  0.69610  0.09318  1.0000
  H   H638      1.0  0.28683  0.70422  0.05349  1.0000
  C   C799      1.0  0.37829  0.55747  0.20799  1.0000
  H   H639      1.0  0.21074  0.67691  0.06971  1.0000
  H   H640      1.0  0.14396  0.90403  0.09464  1.0000
  H   H641      1.0  0.18497  0.83833  0.19501  1.0000
  H   H642      1.0  0.36494  0.69402  0.22126  1.0000
  H   H643      1.0  0.19777  0.85390  0.07670  1.0000
  C   C800      1.0  0.39933  0.63107  0.16299  1.0000
  H   H644      1.0  0.19664  0.71652  0.04755  1.0000
  H   H645      1.0  0.24147  0.94958  0.20086  1.0000
  H   H646      1.0  0.40281  0.96415  0.20431  1.0000
  H   H647      1.0  0.43956  0.61846  0.11834  1.0000
  C   C801      1.0  0.20972  0.65697  0.02888  1.0000
  C   C802      1.0  0.35650  0.94823  0.24075  1.0000
  C   C803      1.0  0.37232  0.70981  0.21832  1.0000
  C   C804      1.0  0.19955  0.72348  0.22407  1.0000
  C   C805      1.0  0.12212  0.75495  0.14518  1.0000
  C   C806      1.0  0.13870  0.76465  0.12914  1.0000
  C   C807      1.0  0.13866  0.78821  0.12578  1.0000
  C   C808      1.0  0.12199  0.80211  0.13840  1.0000
  C   C809      1.0  0.10542  0.79251  0.15486  1.0000
  C   C810      1.0  0.10568  0.76874  0.15815  1.0000
  P   P27       1.0  0.08370  0.81086  0.17076  1.0000
  C   C811      1.0  0.09574  0.82238  0.19157  1.0000
  C   C812      1.0  0.07291  0.83429  0.15086  1.0000
  C   C813      1.0  0.06685  0.85631  0.15699  1.0000
  C   C814      1.0  0.05831  0.87432  0.14152  1.0000
  C   C815      1.0  0.05566  0.87045  0.11990  1.0000
  C   C816      1.0  0.06150  0.84854  0.11374  1.0000
  C   C817      1.0  0.07005  0.83049  0.12916  1.0000
  C   C818      1.0  0.33885  0.63542  0.21584  1.0000
  H   H648      1.0  0.43215  0.57929  0.13480  1.0000
  H   H649      1.0  0.27954  0.90362  0.14110  1.0000
  C   C819      1.0  0.12522  0.84154  0.20126  1.0000
  C   C820      1.0  0.11702  0.83065  0.18593  1.0000
  C   C821      1.0  0.06018  0.79563  0.18460  1.0000
  C   C822      1.0  0.06360  0.77859  0.20300  1.0000
  C   C823      1.0  0.04571  0.76667  0.21392  1.0000
  S   S107      1.0  0.24507  0.84508  0.24290  1.0000
  H   H650      1.0  0.39561  0.55810  0.21103  1.0000
  C   C824      1.0  0.03832  0.80080  0.17753  1.0000
  H   H651      1.0  0.12244  0.73662  0.14812  1.0000
  H   H652      1.0  0.15181  0.75391  0.11953  1.0000
  H   H653      1.0  0.15183  0.79562  0.11362  1.0000
  H   H654      1.0  0.12213  0.82034  0.13528  1.0000
  H   H655      1.0  0.09347  0.76059  0.17075  1.0000
  H   H656      1.0  0.06871  0.85965  0.17368  1.0000
  H   H657      1.0  0.05376  0.89130  0.14631  1.0000
  H   H658      1.0  0.04906  0.88442  0.10791  1.0000
  H   H659      1.0  0.05943  0.84550  0.09699  1.0000
  H   H660      1.0  0.07438  0.81356  0.12419  1.0000
  C   C825      1.0  0.36417  0.57760  0.20094  1.0000
  H   H661      1.0  0.06656  0.81895  0.21784  1.0000
  C   C826      1.0  0.38772  0.60668  0.22238  1.0000
  H   H662      1.0  0.26442  0.83844  0.09944  1.0000
  H   H663      1.0  0.12759  0.82849  0.16994  1.0000
  H   H664      1.0  0.08020  0.77438  0.20883  1.0000
  H   H665      1.0  0.16682  0.74837  0.03869  1.0000
  C   C827      1.0  0.20281  0.70642  0.01385  1.0000
  H   H666      1.0  0.22477  0.80804  0.22554  1.0000
  H   H667      1.0  0.03502  0.81386  0.16346  1.0000
  C   C828      1.0  0.20115  0.74676  0.21976  1.0000
  H   H668      1.0  0.31225  0.70527  0.13253  1.0000
  H   H669      1.0  0.23612  0.63847  0.04826  1.0000
  P   P28       1.0  0.32784  0.73162  0.21507  1.0000
  C   C829      1.0  0.34581  0.96357  0.20370  1.0000
  C   C830      1.0  0.40576  0.72910  0.21480  1.0000
  P   P29       1.0  0.22392  0.68207  0.02043  1.0000
  C   C831      1.0  0.09139  0.83569  0.22831  1.0000
  C   C832      1.0  0.19038  0.67139  0.22154  1.0000
  C   C833      1.0  0.18582  0.68319  0.20036  1.0000
  C   C834      1.0  0.19328  0.67307  0.18066  1.0000
  C   C835      1.0  0.20487  0.65086  0.18201  1.0000
  C   C836      1.0  0.20901  0.63878  0.20305  1.0000
  C   C837      1.0  0.20195  0.64903  0.22274  1.0000
  H   H670      1.0  0.28986  0.70346  0.22441  1.0000
  H   H671      1.0  0.20831  0.81205  0.17016  1.0000
  S   S108      1.0  0.09989  0.72918  0.23279  1.0000
  C   C838      1.0  0.41533  0.63446  0.14356  1.0000
  C   C839      1.0  0.32301  0.72255  0.18915  1.0000
  C   C840      1.0  0.29505  0.92370  0.18350  1.0000
  C   C841      1.0  0.36811  0.75107  0.21312  1.0000
  H   H672      1.0  0.41861  0.65158  0.13641  1.0000
  H   H673      1.0  0.33295  0.96856  0.19238  1.0000
  C   C842      1.0  0.34124  0.71204  0.17482  1.0000
  H   H674      1.0  0.26102  0.88322  0.07025  1.0000
  C   C843      1.0  0.35823  0.73087  0.21560  1.0000
  H   H675      1.0  0.21673  0.60417  0.05977  1.0000
  H   H676      1.0  0.17683  0.70037  0.19902  1.0000
  H   H677      1.0  0.19049  0.68262  0.16431  1.0000
  H   H678      1.0  0.21119  0.64325  0.16668  1.0000
  H   H679      1.0  0.21851  0.62178  0.20408  1.0000
  C   C844      1.0  0.21981  0.63812  0.04261  1.0000
  H   H680      1.0  0.19674  0.89504  0.14355  1.0000
  H   H681      1.0  0.38066  0.52111  0.21782  1.0000
  H   H682      1.0  0.11304  0.77314  0.23345  1.0000
  H   H683      1.0  0.22569  0.91630  0.07606  1.0000
  C   C845      1.0  0.29572  0.80654  0.21656  1.0000
  H   H684      1.0  0.17953  0.60263  0.04684  1.0000
  C   C846      1.0  0.12173  0.74332  0.21643  1.0000
  C   C847      1.0  0.22008  0.82563  0.06421  1.0000
  C   C848      1.0  0.24152  0.81224  0.06418  1.0000
  C   C849      1.0  0.25748  0.81712  0.07671  1.0000
  C   C850      1.0  0.25207  0.83546  0.08922  1.0000
  C   C851      1.0  0.23072  0.84931  0.08904  1.0000
  C   C852      1.0  0.21462  0.84408  0.07663  1.0000
  P   P30       1.0  0.22367  0.87238  0.10611  1.0000
  C   C853      1.0  0.21215  0.86183  0.13467  1.0000
  C   C854      1.0  0.24946  0.88476  0.10594  1.0000
  C   C855      1.0  0.25488  0.89070  0.12586  1.0000
  C   C856      1.0  0.27515  0.89983  0.12550  1.0000
  C   C857      1.0  0.29024  0.90293  0.10538  1.0000
  C   C858      1.0  0.28501  0.89704  0.08549  1.0000
  C   C859      1.0  0.26471  0.88799  0.08574  1.0000
  C   C860      1.0  0.19923  0.87687  0.14909  1.0000
  C   C861      1.0  0.18956  0.86846  0.17091  1.0000
  C   C862      1.0  0.19256  0.84505  0.17829  1.0000
  C   C863      1.0  0.20566  0.83014  0.16419  1.0000
  C   C864      1.0  0.21564  0.83850  0.14257  1.0000
  C   C865      1.0  0.20202  0.89360  0.09442  1.0000
  C   C866      1.0  0.17879  0.89039  0.09951  1.0000
  C   C867      1.0  0.16182  0.90665  0.09062  1.0000
  C   C868      1.0  0.16790  0.92624  0.07657  1.0000
  C   C869      1.0  0.19096  0.92956  0.07140  1.0000
  C   C870      1.0  0.20799  0.91332  0.08027  1.0000
  H   H685      1.0  0.20753  0.82122  0.05503  1.0000
  H   H686      1.0  0.24551  0.79768  0.05494  1.0000
  H   H687      1.0  0.27381  0.80623  0.07737  1.0000
  H   H688      1.0  0.35772  0.76762  0.21201  1.0000
  H   H689      1.0  0.15578  0.75745  0.99988  1.0000
  H   H690      1.0  0.31085  0.65839  0.23014  1.0000
  C   C871      1.0  0.18613  0.76185  0.23238  1.0000
  H   H691      1.0  0.26212  0.96058  0.22874  1.0000
  C   C872      1.0  0.40270  0.62281  0.22144  1.0000
  C   C873      1.0  0.25171  0.75398  0.23699  1.0000
  H   H692      1.0  0.39913  0.76576  0.21160  1.0000
  H   H693      1.0  0.36452  0.98646  0.12587  1.0000
  C   C874      1.0  0.39177  0.75013  0.21276  1.0000
  H   H694      1.0  0.28708  0.99312  0.21460  1.0000
  C   C875      1.0  0.34735  0.53546  0.20876  1.0000
  H   H695      1.0  0.39035  0.64575  0.17067  1.0000
  C   C876      1.0  0.29541  0.94406  0.21515  1.0000
  H   H696      1.0  0.32491  0.92333  0.19930  1.0000
  H   H697      1.0  0.01851  0.83571  0.21493  1.0000
  C   C877      1.0  0.25119  0.75787  0.99690  1.0000
  C   C878      1.0  0.17793  0.63635  0.02799  1.0000
  H   H698      1.0  0.16172  0.63566  0.02228  1.0000
  C   C879      1.0  0.18231  0.71515  0.24048  1.0000
  C   C880      1.0  0.37919  0.95189  0.23285  1.0000
  C   C881      1.0  0.30360  0.76831  0.23620  1.0000
  H   H699      1.0  0.31561  0.55453  0.19970  1.0000
  H   H700      1.0  0.18068  0.67006  0.01074  1.0000
  C   C882      1.0  0.38521  0.96135  0.21040  1.0000
  C   C883      1.0  0.18875  0.65589  0.02150  1.0000
  H   H701      1.0  0.01188  0.71733  0.23440  1.0000
  C   C884      1.0  0.29407  0.79114  0.23649  1.0000
  C   C885      1.0  0.33974  0.95374  0.22612  1.0000
  C   C886      1.0  0.16865  0.74307  0.00389  1.0000
  H   H702      1.0  0.24708  0.64109  0.00001  1.0000
  H   H703      1.0  0.18736  0.77991  0.22879  1.0000
  C   C887      1.0  0.29719  0.70282  0.23979  1.0000
  H   H704      1.0  0.34051  0.51935  0.21245  1.0000
  H   H705      1.0  0.32523  0.98749  0.14730  1.0000
  H   H706      1.0  0.00351  0.79294  0.18322  1.0000
  C   C888      1.0  0.00867  0.82841  0.23026  1.0000
  H   H707      1.0  0.50132  0.72506  0.23244  1.0000
  H   H708      1.0  0.33728  0.90513  0.24274  1.0000
  C   C889      1.0  0.41198  0.62499  0.24074  1.0000
  H   H709      1.0  0.20615  0.63962  0.23869  1.0000
  C   C890      1.0  0.13719  0.67641  0.24291  1.0000
  H   H710      1.0  0.42278  0.63807  0.24022  1.0000
  H   H711      1.0  0.15739  0.80725  0.23921  1.0000
  S   S109      1.0  0.18414  0.84181  0.23999  1.0000
  H   H712      1.0  0.10287  0.67159  0.23964  1.0000
  H   H713      1.0  0.21171  0.99628  0.23750  1.0000
  S   S110      1.0  0.29269  0.52588  0.23967  1.0000
  C   C891      1.0  0.38184  0.59313  0.24311  1.0000
  C   C892      1.0  0.31873  0.60830  0.46600  1.0000
  P   P31       1.0  0.18115  0.68487  0.24687  1.0000
  S   S111      1.0  0.26826  0.84535  0.29834  1.0000
  S   S112      1.0  0.21356  0.88170  0.27487  1.0000
  Fe  Fe54      1.0  0.08252  0.78263  0.29301  1.0000
  S   S113      1.0  0.10895  0.75202  0.28829  1.0000
  S   S114      1.0  0.09155  0.81643  0.29800  1.0000
  Fe  Fe55      1.0  0.04245  0.75611  0.29552  1.0000
  S   S115      1.0  0.06540  0.72321  0.29186  1.0000
  H   H714      1.0  0.47226  0.71817  0.34965  1.0000
  Fe  Fe56      1.0  0.08571  0.73392  0.31560  1.0000
  S   S116      1.0  0.09945  0.70813  0.34308  1.0000
  Fe  Fe57      1.0  0.08644  0.74423  0.26486  1.0000
  S   S117      1.0  0.06067  0.76490  0.32214  1.0000
  S   S118      1.0  0.06204  0.77671  0.26672  1.0000
  Fe  Fe58      1.0  0.20072  0.70321  0.40099  1.0000
  S   S119      1.0  0.19258  0.67759  0.43159  1.0000
  S   S120      1.0  0.17833  0.73493  0.38811  1.0000
  Fe  Fe59      1.0  0.24708  0.67733  0.38726  1.0000
  S   S121      1.0  0.24357  0.64955  0.41643  1.0000
  S   S122      1.0  0.27550  0.67541  0.35844  1.0000
  Fe  Fe60      1.0  0.20785  0.65137  0.40859  1.0000
  S   S123      1.0  0.19247  0.61942  0.40862  1.0000
  Fe  Fe61      1.0  0.22899  0.67797  0.43708  1.0000
  S   S124      1.0  0.21253  0.67692  0.37774  1.0000
  S   S125      1.0  0.23593  0.70581  0.40826  1.0000
  Fe  Fe62      1.0  0.25665  0.57402  0.30006  1.0000
  S   S126      1.0  0.29030  0.55124  0.29592  1.0000
  S   S127      1.0  0.22844  0.56259  0.32702  1.0000
  Fe  Fe63      1.0  0.30648  0.58354  0.28808  1.0000
  Fe  Fe64      1.0  0.28612  0.55635  0.25918  1.0000
  H   H715      1.0  0.04729  0.66540  0.26787  1.0000
  S   S128      1.0  0.27313  0.60570  0.29565  1.0000
  S   S129      1.0  0.25134  0.57742  0.26367  1.0000
  Fe  Fe65      1.0  0.37707  0.75620  0.28573  1.0000
  S   S130      1.0  0.39364  0.75675  0.31646  1.0000
  S   S131      1.0  0.36152  0.78651  0.26325  1.0000
  Fe  Fe66      1.0  0.38857  0.70471  0.28746  1.0000
  S   S132      1.0  0.40698  0.70059  0.31787  1.0000
  S   S133      1.0  0.38308  0.67712  0.26804  1.0000
  Fe  Fe67      1.0  0.37756  0.72539  0.33088  1.0000
  S   S134      1.0  0.36166  0.71907  0.36713  1.0000
  Fe  Fe68      1.0  0.42214  0.73214  0.30116  1.0000
  S   S135      1.0  0.45721  0.73757  0.30696  1.0000
  S   S136      1.0  0.35780  0.72735  0.30174  1.0000
  S   S137      1.0  0.40691  0.73386  0.26923  1.0000
  C   C893      1.0  0.48132  0.73754  0.28586  1.0000
  C   C894      1.0  0.48099  0.73181  0.26432  1.0000
  H   H716      1.0  0.38673  0.58469  0.27817  1.0000
  C   C895      1.0  0.32372  0.90628  0.25694  1.0000
  C   C896      1.0  0.34663  0.61525  0.29660  1.0000
  C   C897      1.0  0.36674  0.65543  0.28137  1.0000
  C   C898      1.0  0.37337  0.64089  0.30040  1.0000
  C   C899      1.0  0.36366  0.62062  0.30769  1.0000
  H   H717      1.0  0.38706  0.64454  0.30850  1.0000
  H   H718      1.0  0.36987  0.60870  0.32145  1.0000
  H   H719      1.0  0.11385  0.68047  0.30613  1.0000
  C   C900      1.0  0.26594  0.83731  0.44478  1.0000
  C   C901      1.0  0.49703  0.68272  0.31102  1.0000
  C   C902      1.0  0.30077  0.68382  0.36342  1.0000
  C   C903      1.0  0.30129  0.69403  0.38260  1.0000
  C   C904      1.0  0.32064  0.70389  0.38450  1.0000
  C   C905      1.0  0.33938  0.70325  0.36729  1.0000
  C   C906      1.0  0.33955  0.69130  0.34916  1.0000
  C   C907      1.0  0.32018  0.68174  0.34712  1.0000
  H   H720      1.0  0.28641  0.69521  0.39535  1.0000
  H   H721      1.0  0.32070  0.71287  0.39868  1.0000
  H   H722      1.0  0.35448  0.68971  0.33644  1.0000
  H   H723      1.0  0.32002  0.67326  0.33261  1.0000
  C   C908      1.0  0.20232  0.60450  0.38527  1.0000
  C   C909      1.0  0.19592  0.58292  0.38590  1.0000
  C   C910      1.0  0.20394  0.57028  0.36788  1.0000
  C   C911      1.0  0.21849  0.57910  0.34912  1.0000
  C   C912      1.0  0.22473  0.60075  0.34830  1.0000
  C   C913      1.0  0.21650  0.61357  0.36627  1.0000
  H   H724      1.0  0.18492  0.57586  0.40049  1.0000
  H   H725      1.0  0.19904  0.55355  0.36858  1.0000
  H   H726      1.0  0.23576  0.60757  0.33374  1.0000
  H   H727      1.0  0.22137  0.63030  0.36555  1.0000
  H   H728      1.0  0.22696  0.72261  0.46108  1.0000
  C   C914      1.0  0.12190  0.71590  0.35453  1.0000
  C   C915      1.0  0.12666  0.73841  0.35085  1.0000
  C   C916      1.0  0.14387  0.74435  0.36138  1.0000
  C   C917      1.0  0.15678  0.72765  0.37496  1.0000
  C   C918      1.0  0.15225  0.70512  0.37823  1.0000
  C   C919      1.0  0.13469  0.69931  0.36822  1.0000
  H   H729      1.0  0.11680  0.75134  0.34031  1.0000
  H   H730      1.0  0.14725  0.76182  0.35889  1.0000
  H   H731      1.0  0.16212  0.69217  0.38870  1.0000
  H   H732      1.0  0.13112  0.68190  0.37097  1.0000
  H   H733      1.0  0.48615  0.68345  0.27855  1.0000
  H   H734      1.0  0.20698  0.62597  0.30798  1.0000
  C   C920      1.0  0.48177  0.68328  0.36448  1.0000
  C   C921      1.0  0.09536  0.62392  0.35942  1.0000
  H   H735      1.0  0.02668  0.73673  0.26139  1.0000
  C   C922      1.0  0.29420  0.82891  0.28882  1.0000
  C   C923      1.0  0.32538  0.82033  0.25892  1.0000
  C   C924      1.0  0.33574  0.80265  0.27364  1.0000
  C   C925      1.0  0.32543  0.79826  0.29611  1.0000
  C   C926      1.0  0.30470  0.81145  0.30371  1.0000
  H   H736      1.0  0.33346  0.78478  0.30759  1.0000
  H   H737      1.0  0.29673  0.80799  0.32107  1.0000
  H   H738      1.0  0.47977  0.68816  0.31874  1.0000
  C   C927      1.0  0.50143  0.73001  0.24889  1.0000
  C   C928      1.0  0.12948  0.80983  0.26639  1.0000
  C   C929      1.0  0.11868  0.82206  0.28389  1.0000
  C   C930      1.0  0.12900  0.83968  0.28922  1.0000
  C   C931      1.0  0.14991  0.84531  0.27671  1.0000
  H   H739      1.0  0.18248  0.64254  0.27858  1.0000
  H   H740      1.0  0.12141  0.79660  0.26183  1.0000
  H   H741      1.0  0.12065  0.84921  0.30276  1.0000
  C   C932      1.0  0.18379  0.50840  0.29618  1.0000
  C   C933      1.0  0.14338  0.68134  0.28044  1.0000
  S   S138      1.0  0.00392  0.75768  0.30044  1.0000
  C   C934      1.0  0.07543  0.70810  0.46335  1.0000
  H   H742      1.0  0.37782  0.67393  0.38711  1.0000
  C   C935      1.0  0.23521  0.97564  0.29449  1.0000
  C   C936      1.0  0.23031  0.95961  0.28179  1.0000
  C   C937      1.0  0.43481  0.68445  0.38099  1.0000
  C   C938      1.0  0.50057  0.68004  0.28807  1.0000
  C   C939      1.0  0.07538  0.61370  0.36622  1.0000
  Fe  Fe69      1.0  0.20930  0.86384  0.24602  1.0000
  H   H743      1.0  0.23278  0.94160  0.28809  1.0000
  C   C940      1.0  0.16176  0.72691  0.45017  1.0000
  S   S139      1.0  0.24010  0.67358  0.47184  1.0000
  Fe  Fe70      1.0  0.22590  0.90941  0.24788  1.0000
  H   H744      1.0  0.04405  0.67893  0.38776  1.0000
  C   C941      1.0  0.45008  0.66462  0.38579  1.0000
  C   C942      1.0  0.30468  0.55903  0.35048  1.0000
  C   C943      1.0  0.32215  0.54134  0.34551  1.0000
  H   H745      1.0  0.00728  0.67523  0.25922  1.0000
  H   H746      1.0  0.30866  0.57626  0.34890  1.0000
  H   H747      1.0  0.33960  0.54504  0.34022  1.0000
  C   C944      1.0  0.03600  0.69441  0.37875  1.0000
  H   H748      1.0  0.29670  0.84682  0.25486  1.0000
  C   C945      1.0  0.08696  0.73373  0.40001  1.0000
  C   C946      1.0  0.33878  0.63063  0.27865  1.0000
  H   H749      1.0  0.17739  0.52521  0.30086  1.0000
  H   H750      1.0  0.44370  0.64971  0.39579  1.0000
  Fe  Fe71      1.0  0.27085  0.60742  0.25860  1.0000
  C   C947      1.0  0.35986  0.64474  0.39200  1.0000
  P   P32       1.0  0.02484  0.66648  0.35053  1.0000
  H   H751      1.0  0.31198  0.72254  0.48235  1.0000
  C   C948      1.0  0.01079  0.67376  0.27653  1.0000
  H   H752      1.0  0.02664  0.75163  0.38042  1.0000
  C   C949      1.0  0.08322  0.77468  0.38954  1.0000
  C   C950      1.0  0.13202  0.65354  0.41487  1.0000
  C   C951      1.0  0.11414  0.64524  0.40776  1.0000
  C   C952      1.0  0.09182  0.65682  0.41090  1.0000
  C   C953      1.0  0.08743  0.67665  0.42126  1.0000
  C   C954      1.0  0.12776  0.67347  0.42499  1.0000
  H   H753      1.0  0.50186  0.74752  0.30786  1.0000
  H   H754      1.0  0.11773  0.62990  0.39972  1.0000
  H   H755      1.0  0.21209  0.51601  0.32774  1.0000
  H   H756      1.0  0.25918  0.52959  0.36333  1.0000
  H   H757      1.0  0.07705  0.75118  0.36836  1.0000
  C   C955      1.0  0.21135  0.82874  0.31730  1.0000
  C   C956      1.0  0.19070  0.82867  0.33198  1.0000
  C   C957      1.0  0.18069  0.80864  0.33801  1.0000
  C   C958      1.0  0.19118  0.78877  0.32916  1.0000
  C   C959      1.0  0.21141  0.78900  0.31356  1.0000
  C   C960      1.0  0.22173  0.80899  0.30816  1.0000
  P   P33       1.0  0.22540  0.76347  0.30213  1.0000
  C   C961      1.0  0.25127  0.75499  0.31509  1.0000
  C   C962      1.0  0.20665  0.74175  0.30825  1.0000
  C   C963      1.0  0.21391  0.71968  0.31860  1.0000
  C   C964      1.0  0.19856  0.70364  0.32423  1.0000
  C   C965      1.0  0.17611  0.70930  0.31934  1.0000
  C   C966      1.0  0.16904  0.73092  0.30835  1.0000
  C   C967      1.0  0.18429  0.74703  0.30256  1.0000
  C   C968      1.0  0.27278  0.75830  0.30262  1.0000
  C   C969      1.0  0.29280  0.75127  0.31261  1.0000
  C   C970      1.0  0.29146  0.74139  0.33525  1.0000
  C   C971      1.0  0.27004  0.73894  0.34805  1.0000
  C   C972      1.0  0.24999  0.74587  0.33808  1.0000
  C   C973      1.0  0.23213  0.76803  0.27163  1.0000
  C   C974      1.0  0.40663  0.61092  0.26103  1.0000
  H   H758      1.0  0.08517  0.67187  0.47280  1.0000
  H   H759      1.0  0.40555  0.62273  0.34410  1.0000
  C   C975      1.0  0.02549  0.69363  0.35967  1.0000
  H   H760      1.0  0.25093  0.84414  0.47843  1.0000
  H   H761      1.0  0.21941  0.84411  0.31302  1.0000
  H   H762      1.0  0.18258  0.84410  0.33879  1.0000
  H   H763      1.0  0.16483  0.80843  0.34964  1.0000
  H   H764      1.0  0.18351  0.77331  0.33480  1.0000
  H   H765      1.0  0.23783  0.80937  0.29688  1.0000
  H   H766      1.0  0.23129  0.71468  0.32244  1.0000
  H   H767      1.0  0.20407  0.68670  0.33234  1.0000
  H   H768      1.0  0.16413  0.69701  0.32436  1.0000
  H   H769      1.0  0.15155  0.73535  0.30482  1.0000
  H   H770      1.0  0.17843  0.76386  0.29426  1.0000
  H   H771      1.0  0.27421  0.76642  0.28526  1.0000
  H   H772      1.0  0.30936  0.75351  0.30276  1.0000
  H   H773      1.0  0.30703  0.73560  0.34283  1.0000
  H   H774      1.0  0.26896  0.73128  0.36561  1.0000
  H   H775      1.0  0.23352  0.74377  0.34823  1.0000
  H   H776      1.0  0.21312  0.80209  0.26671  1.0000
  C   C976      1.0  0.09386  0.64677  0.34983  1.0000
  C   C977      1.0  0.03622  0.71522  0.38632  1.0000
  C   C978      1.0  0.36940  0.56990  0.40654  1.0000
  H   H777      1.0  0.25127  0.73434  0.27001  1.0000
  H   H778      1.0  0.07977  0.78956  0.37716  1.0000
  C   C979      1.0  0.37815  0.54672  0.40898  1.0000
  C   C980      1.0  0.07272  0.68668  0.47598  1.0000
  H   H779      1.0  0.26686  0.85508  0.43825  1.0000
  H   H780      1.0  0.43107  0.71891  0.36376  1.0000
  H   H781      1.0  0.37366  0.81806  0.46879  1.0000
  H   H782      1.0  0.25324  0.51622  0.32762  1.0000
  H   H783      1.0  0.32535  0.62681  0.27031  1.0000
  H   H784      1.0  0.17538  0.73537  0.43982  1.0000
  H   H785      1.0  0.07007  0.68544  0.42368  1.0000
  C   C981      1.0  0.16434  0.71680  0.47226  1.0000
  H   H786      1.0  0.02790  0.73916  0.48859  1.0000
  C   C982      1.0  0.39304  0.62866  0.35776  1.0000
  H   H787      1.0  0.10928  0.65489  0.34479  1.0000
  H   H788      1.0  0.14065  0.73275  0.42364  1.0000
  C   C983      1.0  0.34279  0.53772  0.39982  1.0000
  C   C984      1.0  0.36489  0.53063  0.40554  1.0000
  S   S140      1.0  0.33696  0.58838  0.30411  1.0000
  C   C985      1.0  0.34735  0.57720  0.40043  1.0000
  C   C986      1.0  0.33398  0.56087  0.39743  1.0000
  P   P34       1.0  0.33607  0.60717  0.39757  1.0000
  C   C987      1.0  0.32334  0.61533  0.42484  1.0000
  C   C988      1.0  0.35891  0.62366  0.38512  1.0000
  C   C989      1.0  0.37566  0.61569  0.36795  1.0000
  C   C990      1.0  0.30633  0.63439  0.42604  1.0000
  H   H789      1.0  0.11202  0.61417  0.36157  1.0000
  C   C991      1.0  0.31398  0.61246  0.37938  1.0000
  C   C992      1.0  0.29169  0.60781  0.38833  1.0000
  C   C993      1.0  0.27435  0.61208  0.37458  1.0000
  C   C994      1.0  0.27912  0.62084  0.35175  1.0000
  C   C995      1.0  0.30128  0.62528  0.34264  1.0000
  C   C996      1.0  0.31865  0.62126  0.35642  1.0000
  H   H790      1.0  0.33242  0.52529  0.39722  1.0000
  H   H791      1.0  0.31677  0.56587  0.39319  1.0000
  C   C997      1.0  0.08158  0.75308  0.38459  1.0000
  H   H792      1.0  0.37493  0.59971  0.36204  1.0000
  H   H793      1.0  0.30122  0.64471  0.41074  1.0000
  C   C998      1.0  0.23275  0.71918  0.47753  1.0000
  H   H794      1.0  0.28756  0.60117  0.40602  1.0000
  H   H795      1.0  0.25712  0.60899  0.38183  1.0000
  H   H796      1.0  0.26557  0.62497  0.34126  1.0000
  H   H797      1.0  0.30482  0.63249  0.32504  1.0000
  H   H798      1.0  0.33543  0.62550  0.34908  1.0000
  C   C999      1.0  0.12713  0.70389  0.47623  1.0000
  H   H799      1.0  0.15341  0.72466  0.26544  1.0000
  C   C1000     1.0  0.29683  0.68871  0.27976  1.0000
  C   C1001     1.0  0.20961  0.64231  0.29813  1.0000
  C   C1002     1.0  0.24546  0.75053  0.26047  1.0000
  C   C1003     1.0  0.00861  0.73520  0.26333  1.0000
  C   C1004     1.0  0.19923  0.67278  0.26834  1.0000
  H   H800      1.0  0.29831  0.68902  0.47202  1.0000
  H   H801      1.0  0.00733  0.71410  0.33332  1.0000
  C   C1005     1.0  0.21837  0.99044  0.25338  1.0000
  H   H802      1.0  0.24160  0.96983  0.31051  1.0000
  C   C1006     1.0  0.32514  0.71257  0.26041  1.0000
  C   C1007     1.0  0.03776  0.66623  0.30379  1.0000
  H   H803      1.0  0.30786  0.96713  0.28022  1.0000
  C   C1008     1.0  0.30815  0.92636  0.25862  1.0000
  C   C1009     1.0  0.30367  0.88802  0.29142  1.0000
  C   C1010     1.0  0.28771  0.90769  0.29283  1.0000
  C   C1011     1.0  0.28984  0.92676  0.27641  1.0000
  H   H804      1.0  0.26608  0.51418  0.28370  1.0000
  H   H805      1.0  0.08806  0.67382  0.28008  1.0000
  H   H806      1.0  0.01447  0.80622  0.28481  1.0000
  C   C1012     1.0  0.22169  0.96698  0.26125  1.0000
  H   H807      1.0  0.06074  0.74372  0.45865  1.0000
  C   C1013     1.0  0.01565  0.73480  0.35588  1.0000
  C   C1014     1.0  0.15190  0.68024  0.25750  1.0000
  H   H808      1.0  0.21991  0.70040  0.26244  1.0000
  C   C1015     1.0  0.12445  0.71398  0.45399  1.0000
  H   H809      1.0  0.03867  0.61810  0.36897  1.0000
  C   C1016     1.0  0.22154  0.50247  0.33809  1.0000
  H   H810      1.0  0.37168  0.51268  0.40740  1.0000
  P   P35       1.0  0.09966  0.71100  0.44138  1.0000
  H   H811      1.0  0.15428  0.68470  0.29188  1.0000
  C   C1017     1.0  0.28232  0.50040  0.25335  1.0000
  H   H812      1.0  0.30179  0.87311  0.30396  1.0000
  H   H813      1.0  0.27333  0.90788  0.30634  1.0000
  H   H814      1.0  0.27692  0.94157  0.27735  1.0000
  S   S141      1.0  0.30547  0.58695  0.25064  1.0000
  H   H815      1.0  0.29255  0.63132  0.48324  1.0000
  H   H816      1.0  0.00794  0.75053  0.34693  1.0000
  C   C1018     1.0  0.01534  0.71402  0.34823  1.0000
  C   C1019     1.0  0.22701  0.65380  0.30191  1.0000
  C   C1020     1.0  0.09339  0.73584  0.42089  1.0000
  H   H817      1.0  0.33330  0.87158  0.27191  1.0000
  H   H818      1.0  0.37983  0.58216  0.40940  1.0000
  H   H819      1.0  0.14935  0.64472  0.41222  1.0000
  C   C1021     1.0  0.25501  0.80834  0.47562  1.0000
  C   C1022     1.0  0.30461  0.83333  0.26642  1.0000
  C   C1023     1.0  0.21678  0.68421  0.27224  1.0000
  H   H820      1.0  0.08662  0.71723  0.39512  1.0000
  H   H821      1.0  0.21024  0.52038  0.27031  1.0000
  C   C1024     1.0  0.23992  0.69674  0.48662  1.0000
  C   C1025     1.0  0.16704  0.73048  0.25289  1.0000
  C   C1026     1.0  0.01885  0.82186  0.25002  1.0000
  C   C1027     1.0  0.11434  0.67365  0.25118  1.0000
  H   H822      1.0  0.28590  0.79709  0.25226  1.0000
  C   C1028     1.0  0.36326  0.84939  0.48319  1.0000
  C   C1029     1.0  0.00637  0.81193  0.26965  1.0000
  H   H823      1.0  0.24748  0.80351  0.49301  1.0000
  C   C1030     1.0  0.22426  0.78861  0.25881  1.0000
  H   H824      1.0  0.05528  0.66170  0.30718  1.0000
  C   C1031     1.0  0.05228  0.64931  0.35373  1.0000
  C   C1032     1.0  0.29414  0.51480  0.35200  1.0000
  H   H825      1.0  0.07802  0.65047  0.40515  1.0000
  C   C1033     1.0  0.05913  0.72701  0.46803  1.0000
  C   C1034     1.0  0.29782  0.97704  0.24669  1.0000
  H   H826      1.0  0.15760  0.85919  0.28051  1.0000
  H   H827      1.0  0.33973  0.72109  0.26101  1.0000
  C   C1035     1.0  0.50176  0.74244  0.29148  1.0000
  H   H828      1.0  0.07150  0.67696  0.33914  1.0000
  C   C1036     1.0  0.23310  0.73718  0.48983  1.0000
  C   C1037     1.0  0.31551  0.69999  0.28017  1.0000
  H   H829      1.0  0.41338  0.61305  0.27610  1.0000
  H   H830      1.0  0.28969  0.67865  0.29505  1.0000
  H   H831      1.0  0.32280  0.69864  0.29573  1.0000
  C   C1038     1.0  0.09483  0.75767  0.42583  1.0000
  C   C1039     1.0  0.10596  0.67502  0.27396  1.0000
  C   C1040     1.0  0.01966  0.67002  0.32138  1.0000
  C   C1041     1.0  0.46631  0.70315  0.35992  1.0000
  C   C1042     1.0  0.12047  0.67884  0.28860  1.0000
  C   C1043     1.0  0.03331  0.66816  0.28145  1.0000
  C   C1044     1.0  0.32153  0.88723  0.27338  1.0000
  C   C1045     1.0  0.07244  0.65934  0.34685  1.0000
  C   C1046     1.0  0.39164  0.59496  0.26218  1.0000
  Fe  Fe72      1.0  0.25037  0.86495  0.26950  1.0000
  H   H832      1.0  0.26849  0.56832  0.36079  1.0000
  C   C1047     1.0  0.02615  0.73543  0.37482  1.0000
  H   H833      1.0  0.22729  0.75449  0.48288  1.0000
  H   H834      1.0  0.24404  0.68353  0.29205  1.0000
  C   C1048     1.0  0.37745  0.65750  0.38198  1.0000
  H   H835      1.0  0.28160  0.65409  0.44789  1.0000
  C   C1049     1.0  0.05387  0.62634  0.36346  1.0000
  C   C1050     1.0  0.29530  0.63996  0.44706  1.0000
  C   C1051     1.0  0.29997  0.98065  0.26864  1.0000
  H   H836      1.0  0.30298  0.75694  0.25199  1.0000
  H   H837      1.0  0.34418  0.66147  0.25587  1.0000
  C   C1052     1.0  0.16014  0.83359  0.25859  1.0000
  C   C1053     1.0  0.04041  0.72450  0.48504  1.0000
  C   C1054     1.0  0.44293  0.70365  0.36796  1.0000
  H   H838      1.0  0.04431  0.71576  0.40101  1.0000
  C   C1055     1.0  0.14996  0.81579  0.25365  1.0000
  H   H839      1.0  0.17127  0.99499  0.29677  1.0000
  H   H840      1.0  0.14204  0.67966  0.42998  1.0000
  H   H841      1.0  0.23777  0.64657  0.31483  1.0000
  C   C1056     1.0  0.32963  0.60243  0.44498  1.0000
  S   S142      1.0  0.21406  0.94776  0.24514  1.0000
  H   H842      1.0  0.39523  0.54121  0.41356  1.0000
  H   H843      1.0  0.48502  0.64845  0.38125  1.0000
  H   H844      1.0  0.40701  0.65994  0.35647  1.0000
  H   H845      1.0  0.32341  0.59819  0.48151  1.0000
  H   H846      1.0  0.34270  0.58771  0.44456  1.0000
  H   H847      1.0  0.08187  0.83713  0.24505  1.0000
  C   C1057     1.0  0.27685  0.53249  0.35813  1.0000
  C   C1058     1.0  0.10543  0.68523  0.42823  1.0000
  C   C1059     1.0  0.14199  0.72540  0.44103  1.0000
  H   H848      1.0  0.41665  0.68502  0.38719  1.0000
  H   H849      1.0  0.09145  0.79371  0.41386  1.0000
  C   C1060     1.0  0.23062  0.67467  0.28895  1.0000
  C   C1061     1.0  0.34927  0.65034  0.27067  1.0000
  H   H850      1.0  0.36994  0.85997  0.46807  1.0000
  C   C1062     1.0  0.19576  0.65175  0.28143  1.0000
  H   H851      1.0  0.34685  0.65169  0.40471  1.0000
  C   C1063     1.0  0.08986  0.77698  0.41016  1.0000
  C   C1064     1.0  0.39390  0.64960  0.36473  1.0000
  C   C1065     1.0  0.28210  0.55457  0.35707  1.0000
  C   C1066     1.0  0.47351  0.66398  0.37752  1.0000
  C   C1067     1.0  0.25689  0.83118  0.46739  1.0000
  H   H852      1.0  0.10003  0.75974  0.44170  1.0000
  H   H853      1.0  0.07658  0.59596  0.37367  1.0000
  C   C1068     1.0  0.26245  0.79161  0.46136  1.0000
  C   C1069     1.0  0.27234  0.79750  0.43886  1.0000
  C   C1070     1.0  0.27338  0.82057  0.43048  1.0000
  P   P36       1.0  0.28051  0.77609  0.42005  1.0000
  C   C1071     1.0  0.30600  0.78034  0.40014  1.0000
  C   C1072     1.0  0.28721  0.74837  0.43595  1.0000
  C   C1073     1.0  0.29922  0.74577  0.45463  1.0000
  C   C1074     1.0  0.30328  0.72441  0.46759  1.0000
  C   C1075     1.0  0.29578  0.70548  0.46170  1.0000
  C   C1076     1.0  0.28475  0.70782  0.44255  1.0000
  C   C1077     1.0  0.28071  0.72911  0.42958  1.0000
  C   C1078     1.0  0.31073  0.76908  0.38087  1.0000
  C   C1079     1.0  0.33032  0.77222  0.36520  1.0000
  C   C1080     1.0  0.34571  0.78607  0.36897  1.0000
  C   C1081     1.0  0.34153  0.79677  0.38849  1.0000
  C   C1082     1.0  0.32181  0.79381  0.40414  1.0000
  C   C1083     1.0  0.25603  0.77698  0.40553  1.0000
  C   C1084     1.0  0.23684  0.76696  0.41680  1.0000
  C   C1085     1.0  0.21798  0.76717  0.40560  1.0000
  C   C1086     1.0  0.21794  0.77770  0.38326  1.0000
  C   C1087     1.0  0.23662  0.78843  0.37218  1.0000
  C   C1088     1.0  0.25556  0.78823  0.38330  1.0000
  H   H854      1.0  0.26019  0.77414  0.46798  1.0000
  H   H855      1.0  0.27972  0.82563  0.41283  1.0000
  H   H856      1.0  0.30509  0.76029  0.45942  1.0000
  C   C1089     1.0  0.14701  0.70533  0.48530  1.0000
  C   C1090     1.0  0.30144  0.62697  0.46702  1.0000
  H   H857      1.0  0.27886  0.69324  0.43795  1.0000
  H   H858      1.0  0.27243  0.73050  0.41464  1.0000
  H   H859      1.0  0.29936  0.75773  0.37799  1.0000
  H   H860      1.0  0.33394  0.76342  0.35038  1.0000
  H   H861      1.0  0.36108  0.78809  0.35693  1.0000
  H   H862      1.0  0.35372  0.80716  0.39154  1.0000
  H   H863      1.0  0.31913  0.80180  0.41938  1.0000
  H   H864      1.0  0.23656  0.75873  0.43414  1.0000
  H   H865      1.0  0.20344  0.75891  0.41411  1.0000
  H   H866      1.0  0.20339  0.77745  0.37461  1.0000
  H   H867      1.0  0.23650  0.79677  0.35488  1.0000
  H   H868      1.0  0.26973  0.79683  0.37443  1.0000
  H   H869      1.0  0.46520  0.72820  0.25982  1.0000
  H   H870      1.0  0.35204  0.94124  0.25831  1.0000
  H   H871      1.0  0.27352  0.68104  0.25909  1.0000
  C   C1091     1.0  0.28771  0.69013  0.25956  1.0000
  H   H872      1.0  0.03650  0.82418  0.25018  1.0000
  H   H873      1.0  0.15710  0.76547  0.25842  1.0000
  C   C1092     1.0  0.31697  0.51923  0.34651  1.0000
  C   C1093     1.0  0.36535  0.82579  0.48360  1.0000
  H   H874      1.0  0.17995  0.71750  0.47914  1.0000
  S   S143      1.0  0.25908  0.64377  0.24468  1.0000
  C   C1094     1.0  0.16910  0.75371  0.24898  1.0000
  H   H875      1.0  0.36918  0.58162  0.24491  1.0000
  H   H876      1.0  0.11417  0.69458  0.48652  1.0000
  H   H877      1.0  0.31194  0.50440  0.30777  1.0000
  H   H878      1.0  0.33069  0.50575  0.34240  1.0000
  C   C1095     1.0  0.24489  0.50278  0.33834  1.0000
  C   C1096     1.0  0.20223  0.50573  0.27888  1.0000
  C   C1097     1.0  0.05401  0.68424  0.49299  1.0000
  H   H879      1.0  0.39212  0.94740  0.24417  1.0000
  C   C1098     1.0  0.26988  0.49924  0.27510  1.0000
  S   S144      1.0  0.26303  0.89379  0.24453  1.0000
  Fe  Fe73      1.0  0.23991  0.87299  0.70699  1.0000
  S   S145      1.0  0.21092  0.90160  0.71204  1.0000
  S   S146      1.0  0.26435  0.86324  0.67635  1.0000
  H   H880      1.0  0.33767  0.75438  0.56230  1.0000
  H   H881      1.0  0.49017  0.74314  0.69733  1.0000
  H   H882      1.0  0.26764  0.85854  0.60201  1.0000
  C   C1099     1.0  0.14129  0.64549  0.72224  1.0000
  C   C1100     1.0  0.05185  0.79736  0.63626  1.0000
  H   H883      1.0  0.21257  0.57176  0.68085  1.0000
  S   S147      1.0  0.28364  0.57121  0.73072  1.0000
  H   H884      1.0  0.29519  0.90395  0.74123  1.0000
  C   C1101     1.0  0.33915  0.82877  0.65172  1.0000
  Fe  Fe74      1.0  0.25911  0.59877  0.71409  1.0000
  S   S148      1.0  0.27090  0.61388  0.67834  1.0000
  C   C1102     1.0  0.48590  0.74760  0.71431  1.0000
  Fe  Fe75      1.0  0.24067  0.77688  0.60243  1.0000
  S   S149      1.0  0.26922  0.77092  0.57417  1.0000
  S   S150      1.0  0.22515  0.81218  0.60984  1.0000
  Fe  Fe76      1.0  0.23357  0.72686  0.61188  1.0000
  S   S151      1.0  0.26126  0.71681  0.58379  1.0000
  S   S152      1.0  0.21215  0.70353  0.63662  1.0000
  Fe  Fe77      1.0  0.28106  0.73954  0.59716  1.0000
  S   S153      1.0  0.31768  0.72702  0.60273  1.0000
  Fe  Fe78      1.0  0.24692  0.74898  0.56308  1.0000
  S   S154      1.0  0.24135  0.75580  0.52600  1.0000
  S   S155      1.0  0.25440  0.74742  0.62655  1.0000
  S   S156      1.0  0.21737  0.75703  0.59006  1.0000
  H   H885      1.0  0.29726  0.79815  0.69485  1.0000
  S   S157      1.0  0.34243  0.76411  0.68692  1.0000
  C   C1103     1.0  0.32464  0.73719  0.62616  1.0000
  C   C1104     1.0  0.31403  0.75833  0.63207  1.0000
  C   C1105     1.0  0.32056  0.76686  0.65006  1.0000
  C   C1106     1.0  0.33649  0.75360  0.66324  1.0000
  C   C1107     1.0  0.34705  0.73240  0.65742  1.0000
  C   C1108     1.0  0.34142  0.72444  0.63861  1.0000
  H   H886      1.0  0.30119  0.76836  0.62244  1.0000
  H   H887      1.0  0.31260  0.78345  0.65428  1.0000
  H   H888      1.0  0.35960  0.72223  0.66730  1.0000
  H   H889      1.0  0.34970  0.70821  0.63396  1.0000
  C   C1109     1.0  0.24058  0.73282  0.51124  1.0000
  C   C1110     1.0  0.46478  0.74327  0.72696  1.0000
  C   C1111     1.0  0.22523  0.59643  0.65424  1.0000
  H   H890      1.0  0.29099  0.76049  0.68646  1.0000
  C   C1112     1.0  0.34594  0.82202  0.52235  1.0000
  C   C1113     1.0  0.24768  0.71038  0.52029  1.0000
  H   H891      1.0  0.32028  0.70667  0.71198  1.0000
  H   H892      1.0  0.25289  0.67507  0.51512  1.0000
  H   H893      1.0  0.25343  0.70685  0.53676  1.0000
  C   C1114     1.0  0.30873  0.78687  0.52136  1.0000
  C   C1115     1.0  0.25424  0.63872  0.66719  1.0000
  C   C1116     1.0  0.26334  0.65156  0.64730  1.0000
  C   C1117     1.0  0.25069  0.67171  0.63818  1.0000
  C   C1118     1.0  0.22847  0.67869  0.64841  1.0000
  C   C1119     1.0  0.21910  0.66554  0.66803  1.0000
  C   C1120     1.0  0.23206  0.64570  0.67757  1.0000
  H   H894      1.0  0.28034  0.64601  0.63903  1.0000
  H   H895      1.0  0.25805  0.68163  0.62305  1.0000
  H   H896      1.0  0.20188  0.67075  0.67594  1.0000
  H   H897      1.0  0.22478  0.63557  0.69267  1.0000
  C   C1121     1.0  0.25309  0.84802  0.65902  1.0000
  C   C1122     1.0  0.26649  0.82903  0.65035  1.0000
  C   C1123     1.0  0.25782  0.81729  0.63583  1.0000
  C   C1124     1.0  0.23609  0.82508  0.62931  1.0000
  C   C1125     1.0  0.22291  0.84422  0.63777  1.0000
  C   C1126     1.0  0.23122  0.85543  0.65286  1.0000
  H   H898      1.0  0.28345  0.82326  0.65504  1.0000
  H   H899      1.0  0.26813  0.80261  0.62926  1.0000
  H   H900      1.0  0.20613  0.85030  0.63275  1.0000
  H   H901      1.0  0.22090  0.87017  0.65934  1.0000
  H   H902      1.0  0.26704  0.93878  0.72461  1.0000
  C   C1127     1.0  0.09645  0.72555  0.71439  1.0000
  C   C1128     1.0  0.32542  0.84561  0.66322  1.0000
  C   C1129     1.0  0.29010  0.82363  0.56228  1.0000
  H   H903      1.0  0.40587  0.76582  0.60098  1.0000
  H   H904      1.0  0.13490  0.57056  0.62455  1.0000
  H   H905      1.0  0.31747  0.86078  0.69372  1.0000
  C   C1130     1.0  0.19624  0.79072  0.73755  1.0000
  H   H906      1.0  0.30579  0.86386  0.73401  1.0000
  C   C1131     1.0  0.32700  0.75905  0.54895  1.0000
  C   C1132     1.0  0.14634  0.57350  0.67756  1.0000
  C   C1133     1.0  0.35588  0.61918  0.67498  1.0000
  C   C1134     1.0  0.31342  0.82116  0.56489  1.0000
  P   P37       1.0  0.35029  0.64809  0.66092  1.0000
  H   H907      1.0  0.07543  0.81474  0.64856  1.0000
  C   C1135     1.0  0.31611  0.66612  0.60568  1.0000
  H   H908      1.0  0.08175  0.82545  0.72463  1.0000
  H   H909      1.0  0.14922  0.69724  0.50232  1.0000
  H   H910      1.0  0.26096  0.74035  0.70887  1.0000
  H   H911      1.0  0.02390  0.84572  0.72808  1.0000
  S   S158      1.0  0.22006  0.84614  0.72710  1.0000
  C   C1136     1.0  0.24739  0.69242  0.50799  1.0000
  C   C1137     1.0  0.33315  0.62677  0.60523  1.0000
  C   C1138     1.0  0.33758  0.60714  0.68494  1.0000
  H   H912      1.0  0.24271  0.58771  0.65310  1.0000
  C   C1139     1.0  0.22017  0.61697  0.64032  1.0000
  S   S159      1.0  0.44681  0.72891  0.71524  1.0000
  C   C1140     1.0  0.28047  0.84850  0.59138  1.0000
  C   C1141     1.0  0.32836  0.66430  0.67873  1.0000
  C   C1142     1.0  0.31983  0.64615  0.59567  1.0000
  H   H913      1.0  0.41612  0.78219  0.56085  1.0000
  H   H914      1.0  0.17344  0.62792  0.70837  1.0000
  C   C1143     1.0  0.14694  0.57826  0.65394  1.0000
  H   H915      1.0  0.30871  0.85510  0.60638  1.0000
  C   C1144     1.0  0.35663  0.81455  0.66192  1.0000
  C   C1145     1.0  0.19323  0.52920  0.72646  1.0000
  C   C1146     1.0  0.30230  0.74742  0.52590  1.0000
  P   P38       1.0  0.33496  0.80419  0.54744  1.0000
  C   C1147     1.0  0.40278  0.68326  0.62877  1.0000
  C   C1148     1.0  0.28036  0.76810  0.70024  1.0000
  H   H916      1.0  0.28431  0.81496  0.55032  1.0000
  C   C1149     1.0  0.32277  0.78172  0.53865  1.0000
  H   H917      1.0  0.31225  0.64569  0.58061  1.0000
  H   H918      1.0  0.30572  0.68118  0.59842  1.0000
  H   H919      1.0  0.06665  0.79757  0.68827  1.0000
  H   H920      1.0  0.18676  0.54124  0.69237  1.0000
  H   H921      1.0  0.31152  0.85638  0.65553  1.0000
  H   H922      1.0  0.31995  0.61487  0.68464  1.0000
  H   H923      1.0  0.08355  0.75494  0.69282  1.0000
  H   H924      1.0  0.33585  0.82631  0.63520  1.0000
  C   C1150     1.0  0.28387  0.78922  0.70506  1.0000
  H   H925      1.0  0.31934  0.72478  0.55139  1.0000
  C   C1151     1.0  0.26319  0.75654  0.71327  1.0000
  C   C1152     1.0  0.13427  0.56688  0.64279  1.0000
  H   H926      1.0  0.24019  0.79959  0.68396  1.0000
  H   H927      1.0  0.40773  0.69208  0.61205  1.0000
  C   C1153     1.0  0.02759  0.81111  0.72085  1.0000
  H   H928      1.0  0.35279  0.61210  0.63211  1.0000
  C   C1154     1.0  0.28790  0.67432  0.69235  1.0000
  C   C1155     1.0  0.07907  0.74233  0.70702  1.0000
  H   H929      1.0  0.32763  0.57571  0.70338  1.0000
  C   C1156     1.0  0.35772  0.79188  0.56404  1.0000
  H   H930      1.0  0.38575  0.79873  0.53733  1.0000
  H   H931      1.0  0.32532  0.92778  0.74173  1.0000
  S   S160      1.0  0.38233  0.75780  0.73247  1.0000
  C   C1157     1.0  0.20420  0.81145  0.68392  1.0000
  C   C1158     1.0  0.12615  0.80075  0.60955  1.0000
  C   C1159     1.0  0.14530  0.80486  0.59355  1.0000
  C   C1160     1.0  0.16717  0.80109  0.60018  1.0000
  C   C1161     1.0  0.16993  0.79328  0.62277  1.0000
  C   C1162     1.0  0.15080  0.78965  0.63902  1.0000
  C   C1163     1.0  0.12889  0.79308  0.63222  1.0000
  P   P39       1.0  0.15434  0.77898  0.66808  1.0000
  C   C1164     1.0  0.18150  0.78548  0.67342  1.0000
  C   C1165     1.0  0.13093  0.79340  0.68592  1.0000
  C   C1166     1.0  0.12424  0.81696  0.68059  1.0000
  C   C1167     1.0  0.10664  0.82850  0.69453  1.0000
  C   C1168     1.0  0.09515  0.81654  0.71356  1.0000
  C   C1169     1.0  0.10119  0.79305  0.71861  1.0000
  C   C1170     1.0  0.11914  0.78150  0.70502  1.0000
  C   C1171     1.0  0.18311  0.80649  0.68013  1.0000
  C   C1172     1.0  0.22387  0.79556  0.68110  1.0000
  C   C1173     1.0  0.22263  0.77489  0.67383  1.0000
  C   C1174     1.0  0.20158  0.76988  0.66981  1.0000
  C   C1175     1.0  0.15484  0.74840  0.67278  1.0000
  C   C1176     1.0  0.15019  0.73680  0.65587  1.0000
  C   C1177     1.0  0.15154  0.71305  0.65933  1.0000
  C   C1178     1.0  0.15758  0.70068  0.67961  1.0000
  C   C1179     1.0  0.16246  0.71205  0.69636  1.0000
  C   C1180     1.0  0.16121  0.73579  0.69301  1.0000
  H   H932      1.0  0.10925  0.80338  0.60434  1.0000
  H   H933      1.0  0.14330  0.81078  0.57597  1.0000
  H   H934      1.0  0.18216  0.80407  0.58786  1.0000
  H   H935      1.0  0.18706  0.79001  0.62744  1.0000
  H   H936      1.0  0.11405  0.78955  0.64442  1.0000
  H   H937      1.0  0.13303  0.82655  0.66592  1.0000
  H   H938      1.0  0.10223  0.84681  0.69083  1.0000
  H   H939      1.0  0.25564  0.83827  0.57414  1.0000
  H   H940      1.0  0.29348  0.73443  0.52176  1.0000
  H   H941      1.0  0.12392  0.76346  0.70982  1.0000
  H   H942      1.0  0.16829  0.81921  0.68248  1.0000
  H   H943      1.0  0.23807  0.76288  0.67104  1.0000
  H   H944      1.0  0.20113  0.75394  0.66364  1.0000
  H   H945      1.0  0.14618  0.74584  0.63972  1.0000
  H   H946      1.0  0.14869  0.70415  0.64596  1.0000
  H   H947      1.0  0.15900  0.68225  0.68213  1.0000
  H   H948      1.0  0.02690  0.77801  0.62915  1.0000
  H   H949      1.0  0.16534  0.74426  0.70614  1.0000
  C   C1181     1.0  0.12024  0.54588  0.67859  1.0000
  C   C1182     1.0  0.22123  0.70440  0.70806  1.0000
  C   C1183     1.0  0.05648  0.74293  0.71831  1.0000
  C   C1184     1.0  0.34397  0.84573  0.52185  1.0000
  C   C1185     1.0  0.33363  0.68070  0.69064  1.0000
  H   H950      1.0  0.23369  0.62408  0.62839  1.0000
  C   C1186     1.0  0.35675  0.81213  0.50310  1.0000
  H   H951      1.0  0.41865  0.67258  0.68159  1.0000
  C   C1187     1.0  0.32009  0.83296  0.58062  1.0000
  H   H952      1.0  0.33798  0.83169  0.58275  1.0000
  C   C1188     1.0  0.38270  0.58574  0.68615  1.0000
  H   H953      1.0  0.36670  0.80085  0.65346  1.0000
  C   C1189     1.0  0.31610  0.69381  0.70321  1.0000
  H   H954      1.0  0.21184  0.74034  0.70838  1.0000
  H   H955      1.0  0.30076  0.64912  0.67047  1.0000
  H   H956      1.0  0.35108  0.68370  0.69029  1.0000
  C   C1190     1.0  0.37627  0.66129  0.65479  1.0000
  H   H957      1.0  0.20535  0.82777  0.68890  1.0000
  H   H958      1.0  0.33580  0.85380  0.53645  1.0000
  C   C1191     1.0  0.19798  0.62889  0.64258  1.0000
  C   C1192     1.0  0.21918  0.72459  0.71744  1.0000
  C   C1193     1.0  0.35217  0.78256  0.58673  1.0000
  H   H959      1.0  0.15723  0.59061  0.64402  1.0000
  C   C1194     1.0  0.36948  0.77324  0.59997  1.0000
  C   C1195     1.0  0.34185  0.58476  0.69561  1.0000
  H   H960      1.0  0.38440  0.65288  0.68906  1.0000
  H   H961      1.0  0.27028  0.67186  0.69257  1.0000
  H   H962      1.0  0.21556  0.70465  0.69180  1.0000
  C   C1196     1.0  0.17137  0.57184  0.73680  1.0000
  Fe  Fe79      1.0  0.36179  0.74148  0.71309  1.0000
  C   C1197     1.0  0.38329  0.67209  0.63295  1.0000
  C   C1198     1.0  0.38093  0.79168  0.55475  1.0000
  H   H963      1.0  0.34346  0.63342  0.71821  1.0000
  Fe  Fe80      1.0  0.40924  0.72752  0.72882  1.0000
  H   H964      1.0  0.02076  0.72338  0.70359  1.0000
  H   H965      1.0  0.16742  0.70244  0.71191  1.0000
  H   H966      1.0  0.05576  0.80488  0.61879  1.0000
  C   C1199     1.0  0.27372  0.83709  0.57562  1.0000
  C   C1200     1.0  0.12094  0.55070  0.65509  1.0000
  C   C1201     1.0  0.28075  0.98532  0.74323  1.0000
  P   P40       1.0  0.35003  0.83556  0.72439  1.0000
  S   S161      1.0  0.25647  0.87901  0.73601  1.0000
  C   C1202     1.0  0.50149  0.75768  0.72342  1.0000
  C   C1203     1.0  0.39769  0.83081  0.71278  1.0000
  Fe  Fe81      1.0  0.37360  0.69467  0.73903  1.0000
  C   C1204     1.0  0.39824  0.78233  0.56805  1.0000
  H   H967      1.0  0.19436  0.64521  0.63226  1.0000
  H   H968      1.0  0.13218  0.55327  0.70804  1.0000
  C   C1205     1.0  0.33821  0.63245  0.73623  1.0000
  C   C1206     1.0  0.35328  0.90104  0.73471  1.0000
  H   H969      1.0  0.18791  0.68837  0.74207  1.0000
  H   H970      1.0  0.10995  0.53329  0.68815  1.0000
  H   H971      1.0  0.35099  0.87764  0.50200  1.0000
  C   C1207     1.0  0.34646  0.83381  0.69548  1.0000
  C   C1208     1.0  0.36019  0.81692  0.68374  1.0000
  C   C1209     1.0  0.31312  0.89672  0.73837  1.0000
  C   C1210     1.0  0.20805  0.58757  0.67021  1.0000
  H   H972      1.0  0.10712  0.87514  0.73494  1.0000
  C   C1211     1.0  0.05783  0.79321  0.67553  1.0000
  H   H973      1.0  0.33469  0.79263  0.72015  1.0000
  H   H974      1.0  0.39451  0.84224  0.69748  1.0000
  H   H975      1.0  0.43442  0.82607  0.70304  1.0000
  C   C1212     1.0  0.40897  0.67228  0.66789  1.0000
  C   C1213     1.0  0.29325  0.69055  0.70417  1.0000
  H   H976      1.0  0.35859  0.79384  0.50321  1.0000
  C   C1214     1.0  0.35943  0.87844  0.73041  1.0000
  C   C1215     1.0  0.03350  0.78794  0.72888  1.0000
  C   C1216     1.0  0.15519  0.79174  0.74015  1.0000
  C   C1217     1.0  0.10739  0.62845  0.72101  1.0000
  S   S162      1.0  0.22895  0.57958  0.72403  1.0000
  H   H977      1.0  0.37298  0.80480  0.69177  1.0000
  H   H978      1.0  0.33438  0.78236  0.59409  1.0000
  H   H979      1.0  0.16367  0.62965  0.66015  1.0000
  H   H980      1.0  0.36499  0.76597  0.61745  1.0000
  H   H981      1.0  0.36753  0.55688  0.70502  1.0000
  H   H982      1.0  0.43038  0.69246  0.64318  1.0000
  C   C1218     1.0  0.38947  0.66120  0.67212  1.0000
  C   C1219     1.0  0.39251  0.77312  0.59066  1.0000
  H   H983      1.0  0.27974  0.70067  0.71392  1.0000
  H   H984      1.0  0.33590  0.61122  0.59757  1.0000
  C   C1220     1.0  0.32548  0.66669  0.62535  1.0000
  C   C1221     1.0  0.31674  0.74202  0.54263  1.0000
  C   C1222     1.0  0.33863  0.64723  0.63524  1.0000
  C   C1223     1.0  0.41554  0.68347  0.64627  1.0000
  C   C1224     1.0  0.06295  0.80287  0.65299  1.0000
  S   S163      1.0  0.38991  0.71307  0.70667  1.0000
  H   H985      1.0  0.30517  0.80421  0.51316  1.0000
  C   C1225     1.0  0.36437  0.57413  0.69643  1.0000
  C   C1226     1.0  0.30533  0.66131  0.67975  1.0000
  H   H986      1.0  0.32208  0.68225  0.63304  1.0000
  H   H987      1.0  0.39300  0.61652  0.66713  1.0000
  C   C1227     1.0  0.34266  0.62731  0.62488  1.0000
  H   H988      1.0  0.05209  0.66768  0.50272  1.0000
  C   C1228     1.0  0.27036  0.79856  0.72336  1.0000
  H   H989      1.0  0.37344  0.67248  0.61926  1.0000
  P   P41       1.0  0.03448  0.76623  0.71094  1.0000
  C   C1229     1.0  0.04135  0.77814  0.68160  1.0000
  C   C1230     1.0  0.18077  0.62016  0.65862  1.0000
  H   H990      1.0  0.23142  0.66807  0.71302  1.0000
  Fe  Fe82      1.0  0.19236  0.87480  0.73494  1.0000
  C   C1231     1.0  0.37851  0.60807  0.67527  1.0000
  C   C1232     1.0  0.32894  0.84810  0.68502  1.0000
  C   C1233     1.0  0.23036  0.68389  0.71981  1.0000
  C   C1234     1.0  0.42029  0.82172  0.71587  1.0000
  H   H991      1.0  0.27321  0.81480  0.72741  1.0000
  H   H992      1.0  0.29643  0.96528  0.71672  1.0000
  C   C1235     1.0  0.14485  0.61086  0.70505  1.0000
  C   C1236     1.0  0.30364  0.84643  0.59391  1.0000
  H   H993      1.0  0.21082  0.79978  0.73283  1.0000
  H   H994      1.0  0.11391  0.72532  0.70596  1.0000
  C   C1237     1.0  0.03558  0.78224  0.64210  1.0000
  C   C1238     1.0  0.03030  0.77267  0.66467  1.0000
  C   C1239     1.0  0.15495  0.62816  0.71132  1.0000
  C   C1240     1.0  0.34240  0.86479  0.73004  1.0000
  C   C1241     1.0  0.02824  0.82787  0.73438  1.0000
  C   C1242     1.0  0.18566  0.59940  0.67259  1.0000
  S   S164      1.0  0.24864  0.51654  0.74072  1.0000
  H   H995      1.0  0.44220  0.79919  0.73742  1.0000
  H   H996      1.0  0.01753  0.76114  0.66877  1.0000
  S   S165      1.0  0.15480  0.87535  0.73250  1.0000
  H   H997      1.0  0.48475  0.69663  0.74207  1.0000
  H   H998      1.0  0.11272  0.59799  0.70547  1.0000
  C   C1243     1.0  0.00546  0.73427  0.70972  1.0000
  H   H999      1.0  0.37744  0.87178  0.72736  1.0000
  H   H1000     1.0  0.36646  0.91154  0.73486  1.0000
  C   C1244     1.0  0.37928  0.82479  0.72913  1.0000
  C   C1245     1.0  0.23773  0.68362  0.74068  1.0000
  H   H1001     1.0  0.20255  0.51298  0.72240  1.0000
  C   C1246     1.0  0.22701  0.72453  0.73820  1.0000
  H   H1002     1.0  0.40017  0.57746  0.68671  1.0000
  C   C1247     1.0  0.28246  0.96733  0.73041  1.0000
  C   C1248     1.0  0.24935  0.76591  0.73152  1.0000
  H   H1003     1.0  0.08900  0.62843  0.72511  1.0000
  P   P42       1.0  0.16281  0.58777  0.69228  1.0000
  C   C1249     1.0  0.29847  0.76979  0.51513  1.0000
  H   H1004     1.0  0.11120  0.54185  0.64641  1.0000
  C   C1250     1.0  0.13289  0.55721  0.68980  1.0000
  C   C1251     1.0  0.17462  0.80281  0.73482  1.0000
  C   C1252     1.0  0.18458  0.54539  0.70947  1.0000
  C   C1253     1.0  0.17387  0.56699  0.71444  1.0000
  H   H1005     1.0  0.31340  0.60969  0.73677  1.0000
  C   C1254     1.0  0.12094  0.61119  0.70987  1.0000
  S   S166      1.0  0.37227  0.65813  0.73557  1.0000
  H   H1006     1.0  0.02250  0.81626  0.70416  1.0000
  H   H1007     1.0  0.17294  0.82086  0.72843  1.0000
  H   H1008     1.0  0.28680  0.77394  0.50258  1.0000
  H   H1009     1.0  0.09226  0.78396  0.73345  1.0000
  C   C1255     1.0  0.33013  0.91020  0.73863  1.0000
  C   C1256     1.0  0.11757  0.64549  0.72731  1.0000
  C   C1257     1.0  0.32729  0.79740  0.73652  1.0000
  H   H1010     1.0  0.02338  0.70124  0.51073  1.0000
  C   C1258     1.0  0.26590  0.95226  0.73489  1.0000
  C   C1259     1.0  0.25346  0.78675  0.73676  1.0000
  H   H1011     1.0  0.13844  0.80131  0.73826  1.0000
  C   C1260     1.0  0.31919  0.87410  0.73419  1.0000
  C   C1261     1.0  0.35259  0.85934  0.50230  1.0000
  H   H1012     1.0  0.16336  0.58830  0.74131  1.0000
  C   C1262     1.0  0.03785  0.70313  0.49751  1.0000
  H   H1013     1.0  0.14919  0.65858  0.72732  1.0000
  C   C1263     1.0  0.05159  0.72625  0.73686  1.0000
  H   H1014     1.0  0.10713  0.65844  0.73651  1.0000
  C   C1264     1.0  0.42470  0.80659  0.73528  1.0000
  C   C1265     1.0  0.09152  0.70944  0.73320  1.0000
  C   C1266     1.0  0.00698  0.75591  0.71508  1.0000
  H   H1015     1.0  0.10525  0.69729  0.73962  1.0000
  C   C1267     1.0  0.33114  0.81781  0.74291  1.0000
  Fe  Fe83      1.0  0.22585  0.90510  0.74312  1.0000
  Fe  Fe84      1.0  0.25276  0.55315  0.74298  1.0000
  S   S167      1.0  0.25031  0.61875  0.74350  1.0000
  Fe  Fe85      1.0  0.20947  0.76020  0.91602  1.0000
  S   S168      1.0  0.22121  0.78701  0.93197  1.0000
  S   S169      1.0  0.17259  0.75426  0.92476  1.0000
  Fe  Fe86      1.0  0.25713  0.74557  0.89208  1.0000
  S   S170      1.0  0.27298  0.77113  0.90575  1.0000
  S   S171      1.0  0.27741  0.71940  0.87076  1.0000
  Fe  Fe87      1.0  0.25155  0.76089  0.93893  1.0000
  S   S172      1.0  0.26858  0.75383  0.97085  1.0000
  Fe  Fe88      1.0  0.24144  0.79497  0.89781  1.0000
  S   S173      1.0  0.24242  0.83124  0.88161  1.0000
  S   S174      1.0  0.23813  0.73323  0.92593  1.0000
  S   S175      1.0  0.22711  0.77027  0.88120  1.0000
  Fe  Fe89      1.0  0.11769  0.72741  0.78259  1.0000
  S   S176      1.0  0.09680  0.70698  0.80992  1.0000
  C   C1268     1.0  0.10591  0.82789  0.77435  1.0000
  Fe  Fe90      1.0  0.09319  0.77253  0.79667  1.0000
  S   S177      1.0  0.07021  0.75525  0.82531  1.0000
  S   S178      1.0  0.08565  0.81090  0.78989  1.0000
  Fe  Fe91      1.0  0.10266  0.73190  0.83182  1.0000
  S   S179      1.0  0.11026  0.71745  0.86699  1.0000
  Fe  Fe92      1.0  0.06649  0.73225  0.80066  1.0000
  S   S180      1.0  0.03482  0.71766  0.79624  1.0000
  S   S181      1.0  0.12588  0.75087  0.80503  1.0000
  S   S182      1.0  0.08728  0.75098  0.77148  1.0000
  S   S183      1.0  0.39514  0.70685  0.76094  1.0000
  H   H1016     1.0  0.24954  0.67039  0.92084  1.0000
  C   C1269     1.0  0.14447  0.83873  0.76523  1.0000
  S   S184      1.0  0.25197  0.82420  0.77767  1.0000
  H   H1017     1.0  0.19847  0.52206  0.76151  1.0000
  C   C1270     1.0  0.32203  0.82305  0.76468  1.0000
  H   H1018     1.0  0.04394  0.79370  0.78148  1.0000
  H   H1019     1.0  0.43371  0.98420  0.90141  1.0000
  C   C1271     1.0  0.24594  0.97301  0.76517  1.0000
  C   C1272     1.0  0.40926  0.76979  0.88433  1.0000
  C   C1273     1.0  0.38300  0.75132  0.84868  1.0000
  H   H1020     1.0  0.32134  0.78836  0.88910  1.0000
  S   S185      1.0  0.35317  0.75522  0.79304  1.0000
  H   H1021     1.0  0.43117  0.81088  0.90387  1.0000
  H   H1022     1.0  0.30021  0.83592  0.83314  1.0000
  C   C1274     1.0  0.24695  0.66759  0.90419  1.0000
  H   H1023     1.0  0.27841  0.98846  0.81865  1.0000
  C   C1275     1.0  0.41898  0.80270  0.89753  1.0000
  H   H1024     1.0  0.20475  0.64756  0.74729  1.0000
  S   S186      1.0  0.29529  0.59858  0.78395  1.0000
  H   H1025     1.0  0.18045  0.73821  0.75673  1.0000
  C   C1276     1.0  0.25308  0.65604  0.98982  1.0000
  H   H1026     1.0  0.17481  0.73403  0.97011  1.0000
  C   C1277     1.0  0.30883  0.81291  0.86259  1.0000
  H   H1027     1.0  0.26295  0.63264  0.90765  1.0000
  C   C1278     1.0  0.19873  0.76735  0.74565  1.0000
  C   C1279     1.0  0.47589  0.66064  0.80127  1.0000
  C   C1280     1.0  0.41321  0.74786  0.81653  1.0000
  H   H1028     1.0  0.44285  0.74614  0.75866  1.0000
  P   P43       1.0  0.36729  0.76774  0.87041  1.0000
  C   C1281     1.0  0.19641  0.71163  0.99200  1.0000
  H   H1029     1.0  0.35044  0.65172  0.78237  1.0000
  C   C1282     1.0  0.47476  0.75951  0.75792  1.0000
  C   C1283     1.0  0.49820  0.66168  0.78990  1.0000
  H   H1030     1.0  0.29329  0.51204  0.75655  1.0000
  H   H1031     1.0  0.19707  0.62999  0.83126  1.0000
  S   S187      1.0  0.20525  0.88012  0.76633  1.0000
  H   H1032     1.0  0.28484  0.65629  0.75968  1.0000
  H   H1033     1.0  0.23325  0.56279  0.82771  1.0000
  H   H1034     1.0  0.25692  0.62636  0.86988  1.0000
  H   H1035     1.0  0.22065  0.77239  0.98215  1.0000
  C   C1284     1.0  0.48268  0.68611  0.75838  1.0000
  H   H1036     1.0  0.32531  0.83831  0.77030  1.0000
  H   H1037     1.0  0.27420  0.94767  0.82709  1.0000
  C   C1285     1.0  0.14336  0.66718  0.77645  1.0000
  C   C1286     1.0  0.15295  0.64410  0.77972  1.0000
  C   C1287     1.0  0.28997  0.68327  0.77717  1.0000
  C   C1288     1.0  0.40122  0.76001  0.83374  1.0000
  H   H1038     1.0  0.06525  0.69736  0.75913  1.0000
  H   H1039     1.0  0.12617  0.67247  0.78437  1.0000
  H   H1040     1.0  0.14312  0.63174  0.79033  1.0000
  C   C1289     1.0  0.13661  0.85700  0.74954  1.0000
  C   C1290     1.0  0.26144  0.98325  0.82298  1.0000
  C   C1291     1.0  0.11336  0.86092  0.74682  1.0000
  H   H1041     1.0  0.22781  0.89856  0.93674  1.0000
  H   H1042     1.0  0.19180  0.66384  0.86449  1.0000
  P   P44       1.0  0.23446  0.65657  0.83335  1.0000
  C   C1292     1.0  0.12915  0.82388  0.77730  1.0000
  C   C1293     1.0  0.26260  0.98793  0.76083  1.0000
  H   H1043     1.0  0.32118  0.62697  0.80129  1.0000
  H   H1044     1.0  0.13519  0.80946  0.78893  1.0000
  C   C1294     1.0  0.40702  0.72702  0.81394  1.0000
  C   C1295     1.0  0.31549  0.61651  0.77030  1.0000
  H   H1045     1.0  0.44596  0.69433  0.76189  1.0000
  H   H1046     1.0  0.01553  0.76555  0.79817  1.0000
  C   C1296     1.0  0.29766  0.72936  0.84834  1.0000
  C   C1297     1.0  0.29987  0.75249  0.84366  1.0000
  C   C1298     1.0  0.31659  0.76019  0.82630  1.0000
  C   C1299     1.0  0.33114  0.74493  0.81332  1.0000
  C   C1300     1.0  0.32860  0.72179  0.81757  1.0000
  C   C1301     1.0  0.31198  0.71400  0.83521  1.0000
  H   H1047     1.0  0.28906  0.76437  0.85379  1.0000
  H   H1048     1.0  0.31814  0.77808  0.82284  1.0000
  H   H1049     1.0  0.33977  0.70985  0.80764  1.0000
  H   H1050     1.0  0.31031  0.69603  0.83873  1.0000
  C   C1302     1.0  0.15845  0.74217  0.90702  1.0000
  C   C1303     1.0  0.14183  0.72846  0.91755  1.0000
  C   C1304     1.0  0.12789  0.72057  0.90478  1.0000
  C   C1305     1.0  0.12991  0.72674  0.88131  1.0000
  C   C1306     1.0  0.14695  0.74000  0.87041  1.0000
  C   C1307     1.0  0.16141  0.74762  0.88330  1.0000
  H   H1051     1.0  0.13935  0.72431  0.93580  1.0000
  H   H1052     1.0  0.11490  0.71023  0.91326  1.0000
  H   H1053     1.0  0.14877  0.74453  0.85224  1.0000
  H   H1054     1.0  0.17405  0.75846  0.87505  1.0000
  C   C1308     1.0  0.24596  0.83020  0.85247  1.0000
  C   C1309     1.0  0.25588  0.80990  0.84429  1.0000
  C   C1310     1.0  0.25783  0.80825  0.82123  1.0000
  C   C1311     1.0  0.24993  0.82699  0.80626  1.0000
  C   C1312     1.0  0.24015  0.84744  0.81433  1.0000
  C   C1313     1.0  0.23829  0.84906  0.83747  1.0000
  H   H1055     1.0  0.26208  0.79546  0.85579  1.0000
  H   H1056     1.0  0.26525  0.79236  0.81507  1.0000
  H   H1057     1.0  0.23384  0.86188  0.80281  1.0000
  H   H1058     1.0  0.23045  0.86468  0.84370  1.0000
  C   C1314     1.0  0.16711  0.68443  0.84505  1.0000
  C   C1315     1.0  0.18888  0.67270  0.84790  1.0000
  C   C1316     1.0  0.10958  0.78067  0.90202  1.0000
  C   C1317     1.0  0.09267  0.77359  0.89222  1.0000
  C   C1318     1.0  0.08864  0.78316  0.87034  1.0000
  C   C1319     1.0  0.10158  0.79973  0.85816  1.0000
  C   C1320     1.0  0.11854  0.80705  0.86797  1.0000
  C   C1321     1.0  0.12265  0.79717  0.88990  1.0000
  P   P45       1.0  0.13548  0.82815  0.85196  1.0000
  C   C1322     1.0  0.11694  0.85018  0.83682  1.0000
  C   C1323     1.0  0.14865  0.84051  0.87118  1.0000
  C   C1324     1.0  0.13796  0.86057  0.87980  1.0000
  C   C1325     1.0  0.14838  0.86996  0.89471  1.0000
  C   C1326     1.0  0.16931  0.85918  0.90137  1.0000
  C   C1327     1.0  0.17975  0.83896  0.89323  1.0000
  C   C1328     1.0  0.16957  0.82968  0.87814  1.0000
  C   C1329     1.0  0.09399  0.85603  0.84621  1.0000
  C   C1330     1.0  0.07931  0.87240  0.83422  1.0000
  C   C1331     1.0  0.08745  0.88319  0.81285  1.0000
  C   C1332     1.0  0.11033  0.87779  0.80358  1.0000
  C   C1333     1.0  0.12503  0.86141  0.81548  1.0000
  C   C1334     1.0  0.15784  0.81521  0.83222  1.0000
  C   C1335     1.0  0.15676  0.79376  0.82625  1.0000
  C   C1336     1.0  0.17333  0.78472  0.80968  1.0000
  C   C1337     1.0  0.19111  0.79696  0.79906  1.0000
  C   C1338     1.0  0.19238  0.81816  0.80514  1.0000
  C   C1339     1.0  0.17612  0.82710  0.82191  1.0000
  H   H1059     1.0  0.11320  0.77276  0.91873  1.0000
  H   H1060     1.0  0.08320  0.76012  0.90126  1.0000
  H   H1061     1.0  0.07576  0.77736  0.86271  1.0000
  H   H1062     1.0  0.09855  0.80658  0.84098  1.0000
  H   H1063     1.0  0.13617  0.80170  0.89765  1.0000
  H   H1064     1.0  0.12168  0.86905  0.87498  1.0000
  H   H1065     1.0  0.14018  0.88552  0.90120  1.0000
  H   H1066     1.0  0.17742  0.86631  0.91298  1.0000
  H   H1067     1.0  0.19571  0.83031  0.89874  1.0000
  H   H1068     1.0  0.17792  0.81387  0.87216  1.0000
  H   H1069     1.0  0.08732  0.84769  0.86264  1.0000
  H   H1070     1.0  0.06150  0.87642  0.84131  1.0000
  H   H1071     1.0  0.11660  0.88583  0.78682  1.0000
  H   H1072     1.0  0.14245  0.85729  0.80756  1.0000
  H   H1073     1.0  0.14288  0.78421  0.83384  1.0000
  H   H1074     1.0  0.17197  0.76848  0.80474  1.0000
  H   H1075     1.0  0.20386  0.79022  0.78603  1.0000
  H   H1076     1.0  0.20578  0.82788  0.79658  1.0000
  H   H1077     1.0  0.17750  0.84359  0.82632  1.0000
  H   H1078     1.0  0.15346  0.68479  0.85929  1.0000
  H   H1079     1.0  0.42704  0.75477  0.80489  1.0000
  C   C1340     1.0  0.17947  0.72994  0.98706  1.0000
  H   H1080     1.0  0.15584  0.90157  0.80931  1.0000
  C   C1341     1.0  0.19094  0.53430  0.74857  1.0000
  S   S188      1.0  0.18633  0.60783  0.77259  1.0000
  H   H1081     1.0  0.29421  0.77706  0.78432  1.0000
  H   H1082     1.0  0.27560  0.63636  0.96613  1.0000
  H   H1083     1.0  0.23170  0.97542  0.77852  1.0000
  H   H1084     1.0  0.37011  0.80440  0.76151  1.0000
  C   C1342     1.0  0.17992  0.55554  0.75376  1.0000
  C   C1343     1.0  0.50172  0.67406  0.76817  1.0000
  H   H1085     1.0  0.03528  0.83446  0.76662  1.0000
  C   C1344     1.0  0.42496  0.78037  0.89254  1.0000
  H   H1086     1.0  0.23054  0.70188  0.89562  1.0000
  H   H1087     1.0  0.29004  0.67019  0.94221  1.0000
  H   H1088     1.0  0.40986  0.78856  0.76656  1.0000
  H   H1089     1.0  0.14221  0.76003  0.75242  1.0000
  C   C1345     1.0  0.17905  0.75631  0.75086  1.0000
  C   C1346     1.0  0.25113  0.64294  0.87515  1.0000
  C   C1347     1.0  0.09804  0.84673  0.75946  1.0000
  C   C1348     1.0  0.21311  0.61864  0.83134  1.0000
  H   H1090     1.0  0.40600  0.77635  0.83516  1.0000
  C   C1349     1.0  0.33429  0.81728  0.82719  1.0000
  H   H1091     1.0  0.30328  0.68918  0.76413  1.0000
  C   C1350     1.0  0.26671  0.68582  0.81375  1.0000
  C   C1351     1.0  0.18024  0.69505  0.80534  1.0000
  H   H1092     1.0  0.27006  0.57697  0.82821  1.0000
  H   H1093     1.0  0.22499  0.69621  0.85764  1.0000
  H   H1094     1.0  0.47322  0.65095  0.81797  1.0000
  H   H1095     1.0  0.04220  0.76413  0.75811  1.0000
  C   C1352     1.0  0.31399  0.78276  0.75138  1.0000
  H   H1096     1.0  0.30130  0.81263  0.79610  1.0000
  C   C1353     1.0  0.34668  0.73548  0.93404  1.0000
  C   C1354     1.0  0.25297  0.69690  0.98188  1.0000
  H   H1097     1.0  0.27564  0.70887  0.95251  1.0000
  C   C1355     1.0  0.39724  0.81445  0.89441  1.0000
  H   H1098     1.0  0.32840  0.74259  0.87433  1.0000
  H   H1099     1.0  0.33771  0.82517  0.80982  1.0000
  C   C1356     1.0  0.15591  0.68309  0.76247  1.0000
  C   C1357     1.0  0.35301  0.75000  0.89386  1.0000
  H   H1100     1.0  0.31268  0.88184  0.83238  1.0000
  C   C1358     1.0  0.32518  0.79609  0.87171  1.0000
  C   C1359     1.0  0.32761  0.72611  0.93077  1.0000
  C   C1360     1.0  0.03946  0.79859  0.76449  1.0000
  C   C1361     1.0  0.18771  0.65294  0.75548  1.0000
  H   H1101     1.0  0.36251  0.72346  0.85642  1.0000
  C   C1362     1.0  0.24032  0.66076  0.86082  1.0000
  C   C1363     1.0  0.23384  0.62673  0.83216  1.0000
  H   H1102     1.0  0.35129  0.73395  0.95092  1.0000
  C   C1364     1.0  0.23312  0.68207  0.86840  1.0000
  C   C1365     1.0  0.17683  0.89477  0.83627  1.0000
  C   C1366     1.0  0.23649  0.70393  0.74973  1.0000
  C   C1367     1.0  0.26932  0.65326  0.97059  1.0000
  H   H1103     1.0  0.43588  0.98802  0.94134  1.0000
  H   H1104     1.0  0.31742  0.71747  0.94510  1.0000
  H   H1105     1.0  0.30646  0.72130  0.90650  1.0000
  C   C1368     1.0  0.35938  0.74735  0.91569  1.0000
  H   H1106     1.0  0.44179  0.77123  0.89501  1.0000
  C   C1369     1.0  0.37682  0.73040  0.84581  1.0000
  C   C1370     1.0  0.33393  0.74035  0.89081  1.0000
  C   C1371     1.0  0.21293  0.59565  0.82984  1.0000
  C   C1372     1.0  0.32139  0.72834  0.90911  1.0000
  C   C1373     1.0  0.31328  0.82339  0.84030  1.0000
  C   C1374     1.0  0.27960  0.66469  0.77470  1.0000
  C   C1375     1.0  0.25436  0.61149  0.83098  1.0000
  H   H1107     1.0  0.36632  0.79518  0.82539  1.0000
  Fe  Fe93      1.0  0.36646  0.73626  0.76306  1.0000
  H   H1108     1.0  0.31009  0.87108  0.79486  1.0000
  P   P46       1.0  0.22680  0.75123  0.74839  1.0000
  H   H1109     1.0  0.16236  0.83575  0.76767  1.0000
  C   C1376     1.0  0.25405  0.58846  0.82978  1.0000
  C   C1377     1.0  0.23334  0.58051  0.82933  1.0000
  C   C1378     1.0  0.23098  0.74642  0.77792  1.0000
  C   C1379     1.0  0.25174  0.74968  0.78441  1.0000
  C   C1380     1.0  0.25443  0.74680  0.80733  1.0000
  C   C1381     1.0  0.23665  0.74027  0.82395  1.0000
  C   C1382     1.0  0.21621  0.73632  0.81764  1.0000
  C   C1383     1.0  0.21343  0.73931  0.79472  1.0000
  H   H1110     1.0  0.24293  0.70350  0.76559  1.0000
  Fe  Fe94      1.0  0.27252  0.58981  0.76102  1.0000
  C   C1384     1.0  0.17509  0.63692  0.76910  1.0000
  H   H1111     1.0  0.26220  0.69420  0.82878  1.0000
  C   C1385     1.0  0.35056  0.80019  0.83614  1.0000
  Fe  Fe95      1.0  0.23481  0.85391  0.75638  1.0000
  H   H1112     1.0  0.16810  0.88087  0.84529  1.0000
  H   H1113     1.0  0.39255  0.83172  0.89837  1.0000
  S   S189      1.0  0.24374  0.56921  0.77496  1.0000
  C   C1386     1.0  0.20203  0.68320  0.80805  1.0000
  C   C1387     1.0  0.32583  0.62860  0.78310  1.0000
  H   H1114     1.0  0.26592  0.75450  0.77194  1.0000
  H   H1115     1.0  0.27036  0.74958  0.81223  1.0000
  H   H1116     1.0  0.23886  0.73812  0.84170  1.0000
  H   H1117     1.0  0.20243  0.73113  0.83052  1.0000
  H   H1118     1.0  0.19745  0.73638  0.79019  1.0000
  H   H1119     1.0  0.17682  0.70372  0.78889  1.0000
  H   H1120     1.0  0.20952  0.94302  0.80242  1.0000
  C   C1388     1.0  0.38883  0.71832  0.82854  1.0000
  H   H1121     1.0  0.38349  0.70256  0.82600  1.0000
  C   C1389     1.0  0.23618  0.68535  0.89005  1.0000
  H   H1122     1.0  0.29141  0.70840  0.79841  1.0000
  H   H1123     1.0  0.14579  0.70435  0.82160  1.0000
  C   C1390     1.0  0.34605  0.78930  0.85844  1.0000
  H   H1124     1.0  0.25511  0.64207  0.78934  1.0000
  H   H1125     1.0  0.21513  0.68246  0.79347  1.0000
  C   C1391     1.0  0.16278  0.69558  0.82377  1.0000
  C   C1392     1.0  0.30455  0.78834  0.77281  1.0000
  S   S190      1.0  0.14437  0.71194  0.75643  1.0000
  H   H1126     1.0  0.07600  0.89551  0.80333  1.0000
  C   C1393     1.0  0.20657  0.67220  0.82945  1.0000
  H   H1127     1.0  0.47046  0.76404  0.77489  1.0000
  H   H1128     1.0  0.19701  0.58972  0.82840  1.0000
  H   H1129     1.0  0.27073  0.61749  0.83039  1.0000
  C   C1394     1.0  0.28338  0.69394  0.79659  1.0000
  C   C1395     1.0  0.38150  0.80394  0.88617  1.0000
  H   H1130     1.0  0.03445  0.72660  0.74625  1.0000
  H   H1131     1.0  0.17870  0.55977  0.77077  1.0000
  H   H1132     1.0  0.37373  0.75484  0.91882  1.0000
  H   H1133     1.0  0.41407  0.75241  0.88067  1.0000
  C   C1396     1.0  0.25450  0.64640  0.89673  1.0000
  H   H1134     1.0  0.36471  0.81329  0.88399  1.0000
  C   C1397     1.0  0.26280  0.65660  0.79169  1.0000
  H   H1135     1.0  0.43972  0.67140  0.79986  1.0000
  C   C1398     1.0  0.30867  0.80841  0.77948  1.0000
  C   C1399     1.0  0.45701  0.67222  0.79114  1.0000
  S   S191      1.0  0.22519  0.93804  0.75731  1.0000
  C   C1400     1.0  0.25893  0.96013  0.82781  1.0000
  C   C1401     1.0  0.23696  0.95336  0.83341  1.0000
  C   C1402     1.0  0.21758  0.97015  0.83428  1.0000
  P   P47       1.0  0.23370  0.92353  0.84106  1.0000
  C   C1403     1.0  0.25793  0.90684  0.82641  1.0000
  C   C1404     1.0  0.23247  0.91587  0.87139  1.0000
  C   C1405     1.0  0.23886  0.89319  0.88065  1.0000
  C   C1406     1.0  0.23711  0.88699  0.90410  1.0000
  C   C1407     1.0  0.22912  0.90343  0.91856  1.0000
  C   C1408     1.0  0.22282  0.92609  0.90953  1.0000
  C   C1409     1.0  0.22441  0.93231  0.88604  1.0000
  C   C1410     1.0  0.27832  0.90002  0.83609  1.0000
  C   C1411     1.0  0.29707  0.88717  0.82476  1.0000
  C   C1412     1.0  0.29566  0.88111  0.80365  1.0000
  C   C1413     1.0  0.27557  0.88803  0.79382  1.0000
  C   C1414     1.0  0.25686  0.90102  0.80499  1.0000
  C   C1415     1.0  0.20768  0.91787  0.83231  1.0000
  C   C1416     1.0  0.19550  0.90056  0.84453  1.0000
  H   H1136     1.0  0.41598  0.71788  0.80029  1.0000
  C   C1417     1.0  0.16993  0.90641  0.81602  1.0000
  C   C1418     1.0  0.18158  0.92404  0.80411  1.0000
  C   C1419     1.0  0.20029  0.92979  0.81226  1.0000
  H   H1137     1.0  0.29253  0.81762  0.87275  1.0000
  C   C1420     1.0  0.38748  0.78159  0.88090  1.0000
  C   C1421     1.0  0.03446  0.82160  0.75611  1.0000
  C   C1422     1.0  0.25641  0.66692  0.81152  1.0000
  H   H1138     1.0  0.20048  0.96539  0.83882  1.0000
  H   H1139     1.0  0.24510  0.88015  0.86982  1.0000
  H   H1140     1.0  0.24189  0.86932  0.91096  1.0000
  H   H1141     1.0  0.21662  0.93885  0.92074  1.0000
  H   H1142     1.0  0.21927  0.94989  0.87941  1.0000
  H   H1143     1.0  0.27979  0.90470  0.85235  1.0000
  C   C1423     1.0  0.26937  0.69405  0.96285  1.0000
  H   H1144     1.0  0.27433  0.88314  0.77759  1.0000
  H   H1145     1.0  0.20441  0.70160  0.97870  1.0000
  H   H1146     1.0  0.24160  0.90626  0.79683  1.0000
  H   H1147     1.0  0.20072  0.89098  0.86004  1.0000
  C   C1424     1.0  0.34217  0.64282  0.77240  1.0000
  C   C1425     1.0  0.27749  0.67227  0.95713  1.0000
  H   H1148     1.0  0.17672  0.93275  0.78805  1.0000
  H   H1149     1.0  0.08004  0.85023  0.75746  1.0000
  C   C1426     1.0  0.17813  0.67594  0.75231  1.0000
  H   H1150     1.0  0.24436  0.66756  0.74977  1.0000
  C   C1427     1.0  0.22017  0.99326  0.82916  1.0000
  H   H1151     1.0  0.24341  0.79394  0.75114  1.0000
  H   H1152     1.0  0.24671  0.71393  0.98598  1.0000
  Fe  Fe96      1.0  0.22216  0.59697  0.75523  1.0000
  C   C1428     1.0  0.32134  0.61888  0.74677  1.0000
  C   C1429     1.0  0.24742  0.95526  0.75211  1.0000
  C   C1430     1.0  0.00784  0.73352  0.79175  1.0000
  C   C1431     1.0  0.38389  0.80978  0.74876  1.0000
  S   S192      1.0  0.34368  0.72224  0.74395  1.0000
  C   C1432     1.0  0.46046  0.68505  0.76977  1.0000
  C   C1433     1.0  0.03876  0.78183  0.75104  1.0000
  H   H1153     1.0  0.31100  0.76711  0.74623  1.0000
  C   C1434     1.0  0.49612  0.76339  0.74534  1.0000
  C   C1435     1.0  0.45910  0.74944  0.74878  1.0000
  C   C1436     1.0  0.40651  0.80069  0.75174  1.0000
  C   C1437     1.0  0.15737  0.76853  0.74824  1.0000
  C   C1438     1.0  0.34869  0.64441  0.74895  1.0000
  C   C1439     1.0  0.06905  0.70959  0.74423  1.0000
  C   C1440     1.0  0.00281  0.75681  0.79351  1.0000
  H   H1154     1.0  0.83736  0.37355  0.17457  1.0000
  S   S193      1.0  0.93277  0.21669  0.17411  1.0000
  S   S194      1.0  0.94811  0.18525  0.23004  1.0000
  C   C1441     1.0  0.65381  0.23117  0.18821  1.0000
  H   H1155     1.0  0.52633  0.34141  0.21452  1.0000
  C   C1442     1.0  0.82347  0.22017  0.21113  1.0000
  C   C1443     1.0  0.80093  0.22388  0.20626  1.0000
  S   S195      1.0  0.75933  0.07273  0.22699  1.0000
  H   H1156     1.0  0.74948  0.45013  0.23114  1.0000
  C   C1444     1.0  0.72626  0.30394  0.22824  1.0000
  Fe  Fe97      1.0  0.78209  0.10013  0.21815  1.0000
  S   S196      1.0  0.78719  0.11870  0.18271  1.0000
  H   H1157     1.0  0.73198  0.02270  0.23372  1.0000
  Fe  Fe98      1.0  0.82471  0.24585  0.11404  1.0000
  S   S197      1.0  0.81035  0.25525  0.14825  1.0000
  S   S198      1.0  0.86007  0.22692  0.10613  1.0000
  Fe  Fe99      1.0  0.78177  0.26779  0.09327  1.0000
  S   S199      1.0  0.76412  0.27972  0.12619  1.0000
  S   S200      1.0  0.76415  0.27584  0.06163  1.0000
  Fe  Fe100     1.0  0.79833  0.28916  0.12961  1.0000
  S   S201      1.0  0.80807  0.31844  0.14361  1.0000
  Fe  Fe101     1.0  0.77790  0.24476  0.14191  1.0000
  S   S202      1.0  0.75715  0.22511  0.17065  1.0000
  S   S203      1.0  0.81483  0.28047  0.09538  1.0000
  S   S204      1.0  0.79317  0.23224  0.10901  1.0000
  H   H1158     1.0  0.88984  0.29393  0.20748  1.0000
  H   H1159     1.0  0.83636  0.18552  0.12677  1.0000
  H   H1160     1.0  0.90694  0.13082  0.13664  1.0000
  C   C1445     1.0  0.75547  0.25916  0.02428  1.0000
  C   C1446     1.0  0.70930  0.31288  0.14787  1.0000
  C   C1447     1.0  0.71286  0.03782  0.12077  1.0000
  H   H1161     1.0  0.70689  0.20275  0.19490  1.0000
  H   H1162     1.0  0.59006  0.20927  0.20741  1.0000
  S   S205      1.0  0.73620  0.36791  0.21484  1.0000
  H   H1163     1.0  0.94395  0.27614  0.23064  1.0000
  H   H1164     1.0  0.86689  0.18047  0.09421  1.0000
  H   H1165     1.0  0.90224  0.15327  0.09923  1.0000
  C   C1448     1.0  0.58266  0.22608  0.21150  1.0000
  C   C1449     1.0  0.78783  0.33000  0.16469  1.0000
  C   C1450     1.0  0.79537  0.33777  0.18260  1.0000
  C   C1451     1.0  0.77955  0.34880  0.19861  1.0000
  C   C1452     1.0  0.75621  0.35247  0.19639  1.0000
  C   C1453     1.0  0.74864  0.34451  0.17863  1.0000
  C   C1454     1.0  0.76440  0.33299  0.16296  1.0000
  H   H1166     1.0  0.81344  0.33527  0.18401  1.0000
  H   H1167     1.0  0.78538  0.35497  0.21230  1.0000
  H   H1168     1.0  0.73057  0.34746  0.17697  1.0000
  H   H1169     1.0  0.75859  0.32715  0.14908  1.0000
  C   C1455     1.0  0.76656  0.25454  0.04374  1.0000
  C   C1456     1.0  0.77860  0.23283  0.04900  1.0000
  C   C1457     1.0  0.77941  0.21589  0.03511  1.0000
  C   C1458     1.0  0.76842  0.22051  0.01563  1.0000
  H   H1170     1.0  0.78733  0.22907  0.06375  1.0000
  H   H1171     1.0  0.78880  0.19919  0.03935  1.0000
  C   C1459     1.0  0.82759  0.21968  0.23332  1.0000
  C   C1460     1.0  0.77951  0.14833  0.18028  1.0000
  C   C1461     1.0  0.76342  0.15842  0.19659  1.0000
  C   C1462     1.0  0.75690  0.18211  0.19372  1.0000
  C   C1463     1.0  0.76644  0.19568  0.17458  1.0000
  C   C1464     1.0  0.78277  0.18557  0.15851  1.0000
  C   C1465     1.0  0.78913  0.16191  0.16124  1.0000
  H   H1172     1.0  0.75566  0.14798  0.21116  1.0000
  H   H1173     1.0  0.74443  0.18988  0.20631  1.0000
  H   H1174     1.0  0.79036  0.19588  0.14384  1.0000
  H   H1175     1.0  0.80152  0.15414  0.14857  1.0000
  C   C1466     1.0  0.91129  0.21757  0.15700  1.0000
  C   C1467     1.0  0.91776  0.21058  0.13559  1.0000
  C   C1468     1.0  0.90158  0.21269  0.12064  1.0000
  C   C1469     1.0  0.87893  0.22249  0.12667  1.0000
  C   C1470     1.0  0.87227  0.22906  0.14834  1.0000
  C   C1471     1.0  0.88840  0.22641  0.16361  1.0000
  H   H1176     1.0  0.93542  0.20376  0.13041  1.0000
  H   H1177     1.0  0.90683  0.20750  0.10402  1.0000
  H   H1178     1.0  0.85490  0.23652  0.15324  1.0000
  H   H1179     1.0  0.88333  0.23199  0.18010  1.0000
  H   H1180     1.0  0.64496  0.26750  0.18361  1.0000
  H   H1181     1.0  0.71360  0.13721  0.03054  1.0000
  H   H1182     1.0  0.67289  0.27569  0.14365  1.0000
  C   C1472     1.0  0.77525  0.48856  0.22900  1.0000
  C   C1473     1.0  0.99059  0.23742  0.22546  1.0000
  H   H1183     1.0  0.76936  0.27683  0.19387  1.0000
  C   C1474     1.0  0.68737  0.07580  0.22025  1.0000
  C   C1475     1.0  0.85877  0.28036  0.22136  1.0000
  H   H1184     1.0  0.83739  0.43761  0.20595  1.0000
  C   C1476     1.0  0.87464  0.28849  0.20354  1.0000
  C   C1477     1.0  0.87060  0.28995  0.18103  1.0000
  C   C1478     1.0  0.85019  0.28356  0.17672  1.0000
  P   P48       1.0  0.88963  0.30347  0.15839  1.0000
  C   C1479     1.0  0.87878  0.33342  0.15313  1.0000
  C   C1480     1.0  0.91807  0.29909  0.16663  1.0000
  C   C1481     1.0  0.92720  0.27731  0.17611  1.0000
  C   C1482     1.0  0.94923  0.27343  0.18236  1.0000
  C   C1483     1.0  0.96215  0.29142  0.17973  1.0000
  C   C1484     1.0  0.95306  0.31328  0.17065  1.0000
  C   C1485     1.0  0.93111  0.31713  0.16406  1.0000
  C   C1486     1.0  0.88728  0.34666  0.13316  1.0000
  C   C1487     1.0  0.87806  0.36955  0.12833  1.0000
  C   C1488     1.0  0.86019  0.37931  0.14331  1.0000
  C   C1489     1.0  0.85165  0.36623  0.16322  1.0000
  C   C1490     1.0  0.86095  0.34339  0.16815  1.0000
  C   C1491     1.0  0.89028  0.29149  0.13259  1.0000
  C   C1492     1.0  0.87271  0.29918  0.11906  1.0000
  C   C1493     1.0  0.87331  0.29060  0.09872  1.0000
  C   C1494     1.0  0.89132  0.27419  0.09176  1.0000
  C   C1495     1.0  0.90895  0.26658  0.10500  1.0000
  C   C1496     1.0  0.90841  0.27504  0.12540  1.0000
  H   H1185     1.0  0.96525  0.13644  0.20265  1.0000
  C   C1497     1.0  0.69010  0.29600  0.11566  1.0000
  C   C1498     1.0  0.79641  0.04219  0.17989  1.0000
  C   C1499     1.0  0.58302  0.33040  0.17367  1.0000
  H   H1186     1.0  0.84635  0.28496  0.15960  1.0000
  H   H1187     1.0  0.91731  0.26322  0.17844  1.0000
  H   H1188     1.0  0.95625  0.25636  0.18909  1.0000
  H   H1189     1.0  0.92448  0.33415  0.15701  1.0000
  H   H1190     1.0  0.90073  0.33912  0.12115  1.0000
  H   H1191     1.0  0.88445  0.37957  0.11271  1.0000
  H   H1192     1.0  0.85267  0.39687  0.13929  1.0000
  H   H1193     1.0  0.96315  0.32717  0.16859  1.0000
  H   H1194     1.0  0.85373  0.33342  0.18335  1.0000
  H   H1195     1.0  0.85835  0.31165  0.12430  1.0000
  H   H1196     1.0  0.85958  0.29639  0.08853  1.0000
  H   H1197     1.0  0.89127  0.26692  0.07644  1.0000
  H   H1198     1.0  0.92267  0.25350  0.09982  1.0000
  H   H1199     1.0  0.92201  0.26833  0.13549  1.0000
  H   H1200     1.0  0.88199  0.15445  0.21705  1.0000
  H   H1201     1.0  0.86949  0.09203  0.21705  1.0000
  H   H1202     1.0  0.72722  0.33248  0.11943  1.0000
  C   C1500     1.0  0.56032  0.23495  0.20742  1.0000
  H   H1203     1.0  0.76300  0.29771  0.22726  1.0000
  H   H1204     1.0  0.70124  0.19932  0.23926  1.0000
  H   H1205     1.0  0.82490  0.33851  0.22361  1.0000
  P   P49       1.0  0.79352  0.46705  0.21421  1.0000
  H   H1206     1.0  0.97923  0.28842  0.18466  1.0000
  C   C1501     1.0  0.77714  0.44969  0.20296  1.0000
  C   C1502     1.0  0.70557  0.31183  0.10869  1.0000
  C   C1503     1.0  0.71503  0.32037  0.12481  1.0000
  H   H1207     1.0  0.71051  0.31722  0.09079  1.0000
  C   C1504     1.0  0.77432  0.42507  0.17540  1.0000
  C   C1505     1.0  0.78627  0.43991  0.18320  1.0000
  H   H1208     1.0  0.51206  0.30165  0.20474  1.0000
  C   C1506     1.0  0.75336  0.41971  0.18741  1.0000
  C   C1507     1.0  0.83279  0.48722  0.19632  1.0000
  C   C1508     1.0  0.67807  0.03365  0.14704  1.0000
  C   C1509     1.0  0.67116  0.21285  0.19146  1.0000
  H   H1209     1.0  0.84501  0.21690  0.23719  1.0000
  S   S206      1.0  0.89215  0.19519  0.23029  1.0000
  C   C1510     1.0  0.77673  0.03130  0.18483  1.0000
  H   H1210     1.0  0.85863  0.40770  0.23084  1.0000
  C   C1511     1.0  0.75644  0.24224  0.01023  1.0000
  C   C1512     1.0  0.69808  0.23924  0.19119  1.0000
  H   H1211     1.0  0.65326  0.28025  0.22544  1.0000
  H   H1212     1.0  0.83888  0.48103  0.21244  1.0000
  H   H1213     1.0  0.55027  0.22500  0.20028  1.0000
  C   C1513     1.0  0.86694  0.06894  0.16117  1.0000
  C   C1514     1.0  0.69426  0.29653  0.15500  1.0000
  C   C1515     1.0  0.65858  0.25354  0.18640  1.0000
  H   H1214     1.0  0.78147  0.41724  0.16036  1.0000
  H   H1215     1.0  0.80282  0.44328  0.17408  1.0000
  C   C1516     1.0  0.62256  0.33239  0.21351  1.0000
  C   C1517     1.0  0.58544  0.26007  0.22731  1.0000
  C   C1518     1.0  0.84793  0.16211  0.23412  1.0000
  H   H1216     1.0  0.69054  0.30821  0.22510  1.0000
  C   C1519     1.0  0.81150  0.48263  0.19229  1.0000
  H   H1217     1.0  0.81826  0.27124  0.19127  1.0000
  S   S207      1.0  0.80361  0.01623  0.23473  1.0000
  H   H1218     1.0  0.84047  0.16340  0.16393  1.0000
  H   H1219     1.0  0.74747  0.49183  0.20894  1.0000
  H   H1220     1.0  0.59898  0.32749  0.16241  1.0000
  P   P50       1.0  0.68709  0.28677  0.18484  1.0000
  H   H1221     1.0  0.68173  0.02850  0.18240  1.0000
  H   H1222     1.0  0.69574  0.07003  0.18557  1.0000
  H   H1223     1.0  0.74744  0.15778  0.02569  1.0000
  H   H1224     1.0  0.86570  0.06259  0.14564  1.0000
  C   C1520     1.0  0.59521  0.23865  0.22143  1.0000
  C   C1521     1.0  0.56267  0.26876  0.22404  1.0000
  C   C1522     1.0  0.83846  0.27414  0.21700  1.0000
  C   C1523     1.0  0.68456  0.28825  0.13870  1.0000
  C   C1524     1.0  0.83093  0.43454  0.22381  1.0000
  H   H1225     1.0  0.59560  0.26964  0.23470  1.0000
  H   H1226     1.0  0.68287  0.28930  0.10312  1.0000
  H   H1227     1.0  0.74436  0.40777  0.18170  1.0000
  H   H1228     1.0  0.85958  0.03785  0.18258  1.0000
  H   H1229     1.0  0.86177  0.05264  0.21813  1.0000
  H   H1230     1.0  0.58948  0.29850  0.19479  1.0000
  C   C1525     1.0  0.74851  0.29506  0.21965  1.0000
  H   H1231     1.0  0.82867  0.12794  0.19287  1.0000
  C   C1526     1.0  0.86353  0.05499  0.18193  1.0000
  C   C1527     1.0  0.64834  0.29683  0.21608  1.0000
  C   C1528     1.0  0.54759  0.35445  0.18464  1.0000
  H   H1232     1.0  0.74609  0.27588  0.02008  1.0000
  C   C1529     1.0  0.56805  0.35063  0.16993  1.0000
  H   H1233     1.0  0.97476  0.23462  0.22041  1.0000
  C   C1530     1.0  0.55028  0.25610  0.21382  1.0000
  H   H1234     1.0  0.71683  0.31968  0.16008  1.0000
  C   C1531     1.0  0.75208  0.28335  0.20085  1.0000
  C   C1532     1.0  0.73342  0.28060  0.19059  1.0000
  C   C1533     1.0  0.71094  0.28925  0.19921  1.0000
  C   C1534     1.0  0.70752  0.30100  0.21815  1.0000
  C   C1535     1.0  0.66174  0.30465  0.19587  1.0000
  C   C1536     1.0  0.62872  0.31059  0.22472  1.0000
  H   H1235     1.0  0.61238  0.23157  0.22503  1.0000
  C   C1537     1.0  0.63594  0.34041  0.19353  1.0000
  C   C1538     1.0  0.65549  0.32663  0.18473  1.0000
  C   C1539     1.0  0.83415  0.27578  0.19468  1.0000
  C   C1540     1.0  0.83649  0.33218  0.23601  1.0000
  H   H1236     1.0  0.72157  0.04001  0.10353  1.0000
  H   H1237     1.0  0.73661  0.27207  0.17563  1.0000
  C   C1541     1.0  0.68079  0.25777  0.18808  1.0000
  C   C1542     1.0  0.75627  0.44387  0.21515  1.0000
  H   H1238     1.0  0.63140  0.35747  0.18506  1.0000
  H   H1239     1.0  0.66583  0.33333  0.16946  1.0000
  H   H1240     1.0  0.71516  0.24183  0.19299  1.0000
  H   H1241     1.0  0.86205  0.27923  0.23865  1.0000
  H   H1242     1.0  0.76517  0.22967  0.21924  1.0000
  C   C1543     1.0  0.72535  0.03560  0.13895  1.0000
  H   H1243     1.0  0.72355  0.31345  0.24254  1.0000
  H   H1244     1.0  0.90669  0.16522  0.16962  1.0000
  C   C1544     1.0  0.78247  0.22715  0.22349  1.0000
  C   C1545     1.0  0.69032  0.15572  0.16051  1.0000
  C   C1546     1.0  0.70239  0.14134  0.17649  1.0000
  C   C1547     1.0  0.72588  0.13437  0.17109  1.0000
  C   C1548     1.0  0.73737  0.14187  0.14979  1.0000
  C   C1549     1.0  0.72537  0.15615  0.13350  1.0000
  C   C1550     1.0  0.70175  0.16315  0.13914  1.0000
  P   P51       1.0  0.73998  0.16745  0.10632  1.0000
  C   C1551     1.0  0.73303  0.19809  0.10397  1.0000
  C   C1552     1.0  0.77080  0.15992  0.10389  1.0000
  C   C1553     1.0  0.78531  0.17681  0.09756  1.0000
  C   C1554     1.0  0.80914  0.17085  0.09468  1.0000
  C   C1555     1.0  0.81869  0.14795  0.09805  1.0000
  C   C1556     1.0  0.80438  0.13097  0.10384  1.0000
  C   C1557     1.0  0.78052  0.13690  0.10636  1.0000
  C   C1558     1.0  0.72838  0.21124  0.08337  1.0000
  C   C1559     1.0  0.72456  0.23499  0.08158  1.0000
  C   C1560     1.0  0.72549  0.24581  0.10018  1.0000
  C   C1561     1.0  0.72934  0.23291  0.12090  1.0000
  C   C1562     1.0  0.73325  0.20912  0.12280  1.0000
  C   C1563     1.0  0.73170  0.15701  0.08272  1.0000
  C   C1564     1.0  0.71268  0.14519  0.08542  1.0000
  C   C1565     1.0  0.70624  0.13796  0.06666  1.0000
  C   C1566     1.0  0.71874  0.14246  0.04515  1.0000
  C   C1567     1.0  0.73785  0.15396  0.04240  1.0000
  C   C1568     1.0  0.74444  0.16101  0.06110  1.0000
  H   H1245     1.0  0.67217  0.16141  0.16483  1.0000
  H   H1246     1.0  0.69369  0.13589  0.19321  1.0000
  H   H1247     1.0  0.73542  0.12365  0.18365  1.0000
  H   H1248     1.0  0.75570  0.13701  0.14661  1.0000
  H   H1249     1.0  0.69229  0.17473  0.12711  1.0000
  H   H1250     1.0  0.77832  0.19458  0.09440  1.0000
  H   H1251     1.0  0.82016  0.18407  0.08974  1.0000
  H   H1252     1.0  0.83717  0.14337  0.09599  1.0000
  H   H1253     1.0  0.81178  0.11321  0.10628  1.0000
  H   H1254     1.0  0.76963  0.12357  0.11030  1.0000
  H   H1255     1.0  0.72828  0.20351  0.06841  1.0000
  H   H1256     1.0  0.72187  0.24509  0.06544  1.0000
  H   H1257     1.0  0.72401  0.26420  0.09826  1.0000
  H   H1258     1.0  0.73000  0.24139  0.13531  1.0000
  H   H1259     1.0  0.73704  0.19942  0.13881  1.0000
  H   H1260     1.0  0.70273  0.14160  0.10186  1.0000
  H   H1261     1.0  0.69142  0.12906  0.06873  1.0000
  Fe  Fe102     1.0  0.92291  0.21035  0.21184  1.0000
  S   S208      1.0  0.76989  0.19847  0.99888  1.0000
  H   H1262     1.0  0.75916  0.17019  0.05848  1.0000
  C   C1569     1.0  0.84297  0.41753  0.23781  1.0000
  S   S209      1.0  0.81271  0.07856  0.23131  1.0000
  P   P52       1.0  0.73020  0.02917  0.18488  1.0000
  C   C1570     1.0  0.75622  0.04200  0.17697  1.0000
  H   H1263     1.0  0.67557  0.09118  0.21657  1.0000
  C   C1571     1.0  0.74438  0.42905  0.20729  1.0000
  H   H1264     1.0  0.94442  0.16849  0.17955  1.0000
  H   H1265     1.0  0.57235  0.36338  0.15567  1.0000
  H   H1266     1.0  0.53606  0.37020  0.18182  1.0000
  H   H1267     1.0  0.53265  0.26206  0.21126  1.0000
  C   C1572     1.0  0.75554  0.06390  0.16454  1.0000
  C   C1573     1.0  0.77526  0.07466  0.15954  1.0000
  C   C1574     1.0  0.79566  0.06388  0.16733  1.0000
  C   C1575     1.0  0.54204  0.33801  0.20305  1.0000
  H   H1268     1.0  0.69257  0.16012  0.22741  1.0000
  C   C1576     1.0  0.71416  0.03281  0.16132  1.0000
  C   C1577     1.0  0.69051  0.03143  0.16525  1.0000
  H   H1269     1.0  0.74789  0.24597  0.99529  1.0000
  C   C1578     1.0  0.68922  0.03693  0.12481  1.0000
  H   H1270     1.0  0.72859  0.42408  0.21707  1.0000
  C   C1579     1.0  0.71898  0.03702  0.22987  1.0000
  H   H1271     1.0  0.74373  0.03581  0.13549  1.0000
  H   H1272     1.0  0.65980  0.03264  0.15018  1.0000
  C   C1580     1.0  0.85396  0.16049  0.15001  1.0000
  H   H1273     1.0  0.63666  0.22797  0.18711  1.0000
  H   H1274     1.0  0.87383  0.10177  0.14422  1.0000
  C   C1581     1.0  0.85894  0.33742  0.23211  1.0000
  H   H1275     1.0  0.73964  0.07292  0.15922  1.0000
  H   H1276     1.0  0.77455  0.09182  0.15052  1.0000
  H   H1277     1.0  0.81060  0.07275  0.16440  1.0000
  C   C1582     1.0  0.81026  0.44685  0.23270  1.0000
  H   H1278     1.0  0.61870  0.30449  0.24050  1.0000
  P   P53       1.0  0.55032  0.29674  0.23111  1.0000
  C   C1583     1.0  0.71413  0.04378  0.20759  1.0000
  C   C1584     1.0  0.69336  0.21692  0.19257  1.0000
  H   H1279     1.0  0.66741  0.19549  0.19340  1.0000
  C   C1585     1.0  0.73538  0.99866  0.19276  1.0000
  H   H1280     1.0  0.79780  0.22384  0.18912  1.0000
  H   H1281     1.0  0.83773  0.21759  0.19774  1.0000
  C   C1586     1.0  0.85142  0.17300  0.12881  1.0000
  C   C1587     1.0  0.93737  0.15258  0.18452  1.0000
  C   C1588     1.0  0.94918  0.13446  0.19743  1.0000
  C   C1589     1.0  0.93981  0.11414  0.20432  1.0000
  C   C1590     1.0  0.91855  0.11196  0.19844  1.0000
  C   C1591     1.0  0.90650  0.13015  0.18556  1.0000
  C   C1592     1.0  0.91602  0.15057  0.17878  1.0000
  P   P54       1.0  0.87775  0.12878  0.18032  1.0000
  C   C1593     1.0  0.87292  0.09970  0.18057  1.0000
  C   C1594     1.0  0.85731  0.14050  0.20233  1.0000
  C   C1595     1.0  0.86415  0.15263  0.21756  1.0000
  H   H1282     1.0  0.91134  0.09636  0.20459  1.0000
  H   H1283     1.0  0.71646  0.12327  0.23840  1.0000
  C   C1596     1.0  0.81801  0.14715  0.22078  1.0000
  C   C1597     1.0  0.83418  0.13751  0.20429  1.0000
  C   C1598     1.0  0.87163  0.09122  0.16045  1.0000
  C   C1599     1.0  0.82491  0.15943  0.23568  1.0000
  H   H1284     1.0  0.94854  0.10043  0.21507  1.0000
  C   C1600     1.0  0.86483  0.06329  0.20197  1.0000
  C   C1601     1.0  0.86927  0.08561  0.20132  1.0000
  C   C1602     1.0  0.87389  0.14498  0.15302  1.0000
  C   C1603     1.0  0.89127  0.14239  0.13455  1.0000
  C   C1604     1.0  0.88863  0.15494  0.11333  1.0000
  C   C1605     1.0  0.86869  0.17019  0.11046  1.0000
  H   H1285     1.0  0.80017  0.14505  0.22200  1.0000
  H   H1286     1.0  0.77741  0.01497  0.19549  1.0000
  H   H1287     1.0  0.86482  0.34792  0.21665  1.0000
  C   C1606     1.0  0.55685  0.31750  0.20674  1.0000
  S   S210      1.0  0.92030  0.23653  0.23509  1.0000
  C   C1607     1.0  0.51956  0.29780  0.23921  1.0000
  H   H1288     1.0  0.60766  0.34320  0.22051  1.0000
  H   H1289     1.0  0.81197  0.03417  0.18664  1.0000
  C   C1608     1.0  0.57749  0.31391  0.19203  1.0000
  C   C1609     1.0  0.69166  0.06846  0.24250  1.0000
  C   C1610     1.0  0.69872  0.06365  0.20279  1.0000
  H   H1290     1.0  0.67959  0.03853  0.11071  1.0000
  H   H1291     1.0  0.82612  0.26808  0.23097  1.0000
  H   H1292     1.0  0.56684  0.33781  0.24050  1.0000
  C   C1611     1.0  0.80349  0.49187  0.17168  1.0000
  H   H1293     1.0  0.91192  0.48351  0.24077  1.0000
  C   C1612     1.0  0.50502  0.30046  0.22251  1.0000
  H   H1294     1.0  0.78675  0.48918  0.16857  1.0000
  H   H1295     1.0  0.67457  0.23517  0.24183  1.0000
  Fe  Fe103     1.0  0.78911  0.05186  0.24253  1.0000
  C   C1613     1.0  0.83427  0.41247  0.26066  1.0000
  H   H1296     1.0  0.71591  0.49282  0.28831  1.0000
  C   C1614     1.0  0.87593  0.28306  0.30975  1.0000
  C   C1615     1.0  0.65690  0.43093  0.34344  1.0000
  H   H1297     1.0  0.81143  0.31489  0.25905  1.0000
  C   C1616     1.0  0.80152  0.44145  0.25557  1.0000
  H   H1298     1.0  0.52049  0.29318  0.27551  1.0000
  S   S211      1.0  0.85969  0.24021  0.26997  1.0000
  S   S212      1.0  0.91465  0.19445  0.27744  1.0000
  S   S213      1.0  0.71508  0.09245  0.28059  1.0000
  C   C1617     1.0  0.00240  0.11972  0.25726  1.0000
  Fe  Fe104     1.0  0.63940  0.20602  0.28153  1.0000
  S   S214      1.0  0.61746  0.19359  0.31364  1.0000
  C   C1618     1.0  0.53536  0.21714  0.25828  1.0000
  Fe  Fe105     1.0  0.63580  0.25386  0.29369  1.0000
  S   S215      1.0  0.61378  0.24572  0.32685  1.0000
  S   S216      1.0  0.64461  0.28848  0.27784  1.0000
  Fe  Fe106     1.0  0.63796  0.21301  0.33033  1.0000
  S   S217      1.0  0.65311  0.19808  0.36232  1.0000
  Fe  Fe107     1.0  0.59503  0.22726  0.30738  1.0000
  S   S218      1.0  0.55618  0.23402  0.31381  1.0000
  S   S219      1.0  0.66161  0.22278  0.29869  1.0000
  S   S220      1.0  0.61525  0.23804  0.27395  1.0000
  Fe  Fe108     1.0  0.74210  0.25659  0.40043  1.0000
  S   S221      1.0  0.75689  0.27240  0.42520  1.0000
  S   S222      1.0  0.70522  0.26786  0.39555  1.0000
  Fe  Fe109     1.0  0.78715  0.22824  0.38557  1.0000
  S   S223      1.0  0.80552  0.24119  0.40949  1.0000
  S   S224      1.0  0.80635  0.20178  0.36425  1.0000
  Fe  Fe110     1.0  0.77413  0.23693  0.43501  1.0000
  S   S225      1.0  0.77912  0.22014  0.47067  1.0000
  Fe  Fe111     1.0  0.78682  0.27530  0.39753  1.0000
  S   S226      1.0  0.80713  0.30489  0.39054  1.0000
  S   S227      1.0  0.75718  0.22088  0.41204  1.0000
  S   S228      1.0  0.77046  0.26267  0.37185  1.0000
  C   C1619     1.0  0.57716  0.28998  0.29046  1.0000
  Fe  Fe112     1.0  0.78032  0.37002  0.28159  1.0000
  S   S229      1.0  0.81527  0.36194  0.29256  1.0000
  S   S230      1.0  0.75277  0.38288  0.30817  1.0000
  Fe  Fe113     1.0  0.94338  0.21034  0.25473  1.0000
  C   C1620     1.0  0.73768  0.18172  0.46363  1.0000
  H   H1299     1.0  0.72561  0.26492  0.26525  1.0000
  C   C1621     1.0  0.74149  0.46369  0.29444  1.0000
  C   C1622     1.0  0.76181  0.45558  0.30374  1.0000
  C   C1623     1.0  0.77309  0.47062  0.31235  1.0000
  C   C1624     1.0  0.88065  0.37110  0.30755  1.0000
  H   H1300     1.0  0.72837  0.43148  0.45746  1.0000
  H   H1301     1.0  0.78922  0.46447  0.31877  1.0000
  C   C1625     1.0  0.80888  0.32042  0.36314  1.0000
  C   C1626     1.0  0.82482  0.33590  0.35693  1.0000
  C   C1627     1.0  0.82676  0.34850  0.33524  1.0000
  C   C1628     1.0  0.81265  0.34592  0.31967  1.0000
  C   C1629     1.0  0.79633  0.33081  0.32599  1.0000
  C   C1630     1.0  0.79457  0.31794  0.34764  1.0000
  H   H1302     1.0  0.83580  0.33807  0.36886  1.0000
  H   H1303     1.0  0.83885  0.36061  0.33070  1.0000
  H   H1304     1.0  0.78512  0.32899  0.31416  1.0000
  H   H1305     1.0  0.78189  0.30643  0.35237  1.0000
  C   C1631     1.0  0.87984  0.35311  0.29561  1.0000
  C   C1632     1.0  0.64975  0.37082  0.39916  1.0000
  C   C1633     1.0  0.66605  0.29904  0.28845  1.0000
  C   C1634     1.0  0.67360  0.28906  0.30899  1.0000
  C   C1635     1.0  0.68848  0.29966  0.31850  1.0000
  C   C1636     1.0  0.69645  0.31976  0.30717  1.0000
  C   C1637     1.0  0.69002  0.32889  0.28595  1.0000
  C   C1638     1.0  0.67462  0.31871  0.27675  1.0000
  H   H1306     1.0  0.66714  0.27382  0.31805  1.0000
  H   H1307     1.0  0.69340  0.29266  0.33492  1.0000
  S   S231      1.0  0.77008  0.11564  0.25013  1.0000
  C   C1639     1.0  0.66846  0.21726  0.37075  1.0000
  C   C1640     1.0  0.68532  0.20924  0.38494  1.0000
  C   C1641     1.0  0.69748  0.22457  0.39190  1.0000
  C   C1642     1.0  0.69212  0.24802  0.38537  1.0000
  C   C1643     1.0  0.67515  0.25597  0.37138  1.0000
  C   C1644     1.0  0.66364  0.24064  0.36373  1.0000
  H   H1308     1.0  0.68897  0.19121  0.39054  1.0000
  H   H1309     1.0  0.71041  0.21831  0.40288  1.0000
  H   H1310     1.0  0.67108  0.27403  0.36627  1.0000
  H   H1311     1.0  0.65071  0.24699  0.35278  1.0000
  C   C1645     1.0  0.53976  0.23130  0.29270  1.0000
  Fe  Fe114     1.0  0.73222  0.35950  0.29680  1.0000
  S   S232      1.0  0.71285  0.33417  0.32054  1.0000
  C   C1646     1.0  0.77647  0.28315  0.29325  1.0000
  H   H1312     1.0  0.51480  0.19222  0.33316  1.0000
  H   H1313     1.0  0.64748  0.31849  0.43203  1.0000
  H   H1314     1.0  0.57974  0.27672  0.30456  1.0000
  C   C1647     1.0  0.66974  0.15020  0.28282  1.0000
  C   C1648     1.0  0.68283  0.12911  0.28885  1.0000
  C   C1649     1.0  0.69967  0.11934  0.27287  1.0000
  S   S233      1.0  0.81699  0.10487  0.28861  1.0000
  C   C1650     1.0  0.78645  0.29734  0.45615  1.0000
  H   H1315     1.0  0.65680  0.15764  0.29527  1.0000
  H   H1316     1.0  0.67995  0.12040  0.30596  1.0000
  H   H1317     1.0  0.73838  0.18858  0.47904  1.0000
  C   C1651     1.0  0.71652  0.18116  0.45641  1.0000
  C   C1652     1.0  0.84438  0.22882  0.29554  1.0000
  C   C1653     1.0  0.82680  0.24303  0.30683  1.0000
  C   C1654     1.0  0.81488  0.23481  0.32774  1.0000
  C   C1655     1.0  0.82035  0.21222  0.33745  1.0000
  C   C1656     1.0  0.83737  0.19772  0.32572  1.0000
  C   C1657     1.0  0.84946  0.20603  0.30485  1.0000
  H   H1318     1.0  0.82287  0.26067  0.29973  1.0000
  H   H1319     1.0  0.80165  0.24608  0.33635  1.0000
  H   H1320     1.0  0.84149  0.18013  0.33293  1.0000
  H   H1321     1.0  0.86275  0.19483  0.29605  1.0000
  H   H1322     1.0  0.61828  0.15684  0.47824  1.0000
  C   C1658     1.0  0.87233  0.13861  0.27946  1.0000
  C   C1659     1.0  0.85042  0.13199  0.28662  1.0000
  H   H1323     1.0  0.54248  0.20727  0.24468  1.0000
  H   H1324     1.0  0.69618  0.34431  0.27703  1.0000
  H   H1325     1.0  0.67842  0.44844  0.31604  1.0000
  C   C1660     1.0  0.74221  0.39814  0.47248  1.0000
  H   H1326     1.0  0.83821  0.14143  0.29822  1.0000
  Fe  Fe115     1.0  0.74142  0.40881  0.27962  1.0000
  H   H1327     1.0  0.78848  0.17719  0.33678  1.0000
  C   C1661     1.0  0.74554  0.25140  0.30479  1.0000
  H   H1328     1.0  0.79178  0.14130  0.32015  1.0000
  H   H1329     1.0  0.73330  0.23933  0.30940  1.0000
  P   P55       1.0  0.69026  0.19037  0.47406  1.0000
  H   H1330     1.0  0.61919  0.36368  0.38772  1.0000
  H   H1331     1.0  0.70758  0.41466  0.31180  1.0000
  H   H1332     1.0  0.60790  0.38820  0.45206  1.0000
  C   C1662     1.0  0.67619  0.43253  0.32700  1.0000
  C   C1663     1.0  0.63014  0.16763  0.46812  1.0000
  H   H1333     1.0  0.73112  0.27029  0.33251  1.0000
  C   C1664     1.0  0.64032  0.33831  0.32728  1.0000
  C   C1665     1.0  0.63313  0.31840  0.33975  1.0000
  C   C1666     1.0  0.63735  0.31217  0.36215  1.0000
  C   C1667     1.0  0.64875  0.32584  0.37211  1.0000
  C   C1668     1.0  0.65575  0.34607  0.35980  1.0000
  C   C1669     1.0  0.65166  0.35208  0.33720  1.0000
  P   P56       1.0  0.66861  0.36462  0.37357  1.0000
  C   C1670     1.0  0.69729  0.35243  0.37932  1.0000
  C   C1671     1.0  0.70586  0.32969  0.37659  1.0000
  C   C1672     1.0  0.72833  0.32079  0.38025  1.0000
  C   C1673     1.0  0.74250  0.33444  0.38655  1.0000
  C   C1674     1.0  0.73435  0.35721  0.38884  1.0000
  C   C1675     1.0  0.71192  0.36624  0.38506  1.0000
  C   C1676     1.0  0.67116  0.39124  0.35530  1.0000
  C   C1677     1.0  0.69024  0.39293  0.33852  1.0000
  C   C1678     1.0  0.65431  0.41033  0.35754  1.0000
  H   H1334     1.0  0.62516  0.30733  0.33171  1.0000
  H   H1335     1.0  0.63232  0.29639  0.37157  1.0000
  H   H1336     1.0  0.65228  0.32057  0.38934  1.0000
  H   H1337     1.0  0.69567  0.31883  0.37095  1.0000
  H   H1338     1.0  0.74571  0.36802  0.39276  1.0000
  H   H1339     1.0  0.70628  0.38419  0.38586  1.0000
  H   H1340     1.0  0.63922  0.40942  0.37007  1.0000
  C   C1679     1.0  0.69274  0.41350  0.32457  1.0000
  H   H1341     1.0  0.73489  0.30341  0.37752  1.0000
  H   H1342     1.0  0.77506  0.21371  0.31592  1.0000
  S   S234      1.0  0.97335  0.21942  0.26850  1.0000
  H   H1343     1.0  0.84766  0.30350  0.32757  1.0000
  S   S235      1.0  0.65556  0.18686  0.25235  1.0000
  C   C1680     1.0  0.76251  0.24948  0.28585  1.0000
  C   C1681     1.0  0.77241  0.28826  0.47515  1.0000
  S   S236      1.0  0.77790  0.06306  0.27679  1.0000
  H   H1344     1.0  0.84932  0.26990  0.44861  1.0000
  C   C1682     1.0  0.64063  0.19279  0.43380  1.0000
  C   C1683     1.0  0.69864  0.23486  0.45709  1.0000
  C   C1684     1.0  0.62620  0.36918  0.40112  1.0000
  H   H1345     1.0  0.61056  0.17579  0.44001  1.0000
  H   H1346     1.0  0.56168  0.26909  0.27318  1.0000
  C   C1685     1.0  0.61125  0.37518  0.42025  1.0000
  C   C1686     1.0  0.80926  0.22260  0.25066  1.0000
  C   C1687     1.0  0.95933  0.28614  0.25669  1.0000
  H   H1347     1.0  0.85556  0.08658  0.25799  1.0000
  H   H1348     1.0  0.00093  0.10277  0.25409  1.0000
  H   H1349     1.0  0.68316  0.07811  0.25597  1.0000
  C   C1688     1.0  0.78026  0.15831  0.28908  1.0000
  C   C1689     1.0  0.54910  0.21922  0.27460  1.0000
  C   C1690     1.0  0.50831  0.18024  0.30378  1.0000
  C   C1691     1.0  0.69172  0.23385  0.24625  1.0000
  C   C1692     1.0  0.69464  0.33165  0.46403  1.0000
  H   H1350     1.0  0.87491  0.35707  0.27883  1.0000
  H   H1351     1.0  0.54136  0.21114  0.40708  1.0000
  H   H1352     1.0  0.64921  0.39183  0.44865  1.0000
  C   C1693     1.0  0.77560  0.19849  0.30826  1.0000
  H   H1353     1.0  0.87692  0.15310  0.28552  1.0000
  C   C1694     1.0  0.56678  0.28572  0.27266  1.0000
  C   C1695     1.0  0.86303  0.24679  0.34230  1.0000
  C   C1696     1.0  0.85730  0.28671  0.32685  1.0000
  C   C1697     1.0  0.61957  0.38328  0.43739  1.0000
  H   H1354     1.0  0.81260  0.16666  0.24865  1.0000
  C   C1698     1.0  0.77919  0.31848  0.44427  1.0000
  C   C1699     1.0  0.75781  0.33048  0.45115  1.0000
  C   C1700     1.0  0.74377  0.32176  0.47050  1.0000
  H   H1355     1.0  0.78269  0.14280  0.28146  1.0000
  C   C1701     1.0  0.51245  0.22762  0.25955  1.0000
  H   H1356     1.0  0.63719  0.20130  0.41717  1.0000
  C   C1702     1.0  0.50716  0.20327  0.40751  1.0000
  C   C1703     1.0  0.70077  0.32187  0.44387  1.0000
  C   C1704     1.0  0.68374  0.31712  0.43248  1.0000
  H   H1357     1.0  0.79121  0.26455  0.26564  1.0000
  H   H1358     1.0  0.73691  0.25161  0.47394  1.0000
  H   H1359     1.0  0.58624  0.34466  0.27151  1.0000
  C   C1705     1.0  0.82935  0.24787  0.47285  1.0000
  H   H1360     1.0  0.78848  0.29542  0.28906  1.0000
  H   H1361     1.0  0.50518  0.19640  0.42531  1.0000
  H   H1362     1.0  0.50942  0.25101  0.30797  1.0000
  C   C1706     1.0  0.72585  0.41372  0.46190  1.0000
  C   C1707     1.0  0.67807  0.26815  0.47302  1.0000
  C   C1708     1.0  0.74417  0.26894  0.31787  1.0000
  C   C1709     1.0  0.85093  0.26867  0.34310  1.0000
  H   H1363     1.0  0.78998  0.32537  0.42938  1.0000
  C   C1710     1.0  0.77799  0.26554  0.28011  1.0000
  C   C1711     1.0  0.86014  0.10119  0.26379  1.0000
  H   H1364     1.0  0.71860  0.31755  0.43696  1.0000
  H   H1365     1.0  0.68854  0.30882  0.41738  1.0000
  H   H1366     1.0  0.90409  0.28655  0.24857  1.0000
  H   H1367     1.0  0.73661  0.15900  0.40719  1.0000
  C   C1712     1.0  0.78334  0.17761  0.32036  1.0000
  C   C1713     1.0  0.65796  0.37896  0.41651  1.0000
  H   H1368     1.0  0.70038  0.17204  0.42988  1.0000
  C   C1714     1.0  0.72867  0.21158  0.25098  1.0000
  Fe  Fe116     1.0  0.91702  0.17186  0.25055  1.0000
  C   C1715     1.0  0.87375  0.32928  0.24826  1.0000
  H   H1369     1.0  0.89014  0.22580  0.32397  1.0000
  S   S237      1.0  0.76072  0.34464  0.27236  1.0000
  H   H1370     1.0  0.96605  0.12789  0.26829  1.0000
  C   C1716     1.0  0.53000  0.22049  0.37436  1.0000
  H   H1371     1.0  0.71163  0.04422  0.26442  1.0000
  H   H1372     1.0  0.70325  0.37835  0.33617  1.0000
  H   H1373     1.0  0.75228  0.34652  0.44123  1.0000
  C   C1717     1.0  0.77325  0.17921  0.27660  1.0000
  C   C1718     1.0  0.66005  0.19631  0.44236  1.0000
  C   C1719     1.0  0.75110  0.30040  0.48234  1.0000
  C   C1720     1.0  0.68621  0.22078  0.47378  1.0000
  P   P57       1.0  0.76342  0.22671  0.26914  1.0000
  Fe  Fe117     1.0  0.79885  0.09164  0.26426  1.0000
  C   C1721     1.0  0.77011  0.19951  0.28627  1.0000
  C   C1722     1.0  0.88136  0.24292  0.32512  1.0000
  C   C1723     1.0  0.88781  0.26096  0.30886  1.0000
  H   H1374     1.0  0.69381  0.41846  0.44844  1.0000
  H   H1375     1.0  0.87638  0.38853  0.29990  1.0000
  H   H1376     1.0  0.59312  0.37386  0.42157  1.0000
  C   C1724     1.0  0.78539  0.15747  0.31093  1.0000
  C   C1725     1.0  0.70318  0.38343  0.46239  1.0000
  S   S238      1.0  0.71756  0.38675  0.27126  1.0000
  H   H1377     1.0  0.63794  0.34258  0.30961  1.0000
  H   H1378     1.0  0.85764  0.23267  0.35449  1.0000
  C   C1726     1.0  0.66516  0.18494  0.46352  1.0000
  H   H1379     1.0  0.83634  0.27158  0.35608  1.0000
  C   C1727     1.0  0.62568  0.17840  0.44665  1.0000
  C   C1728     1.0  0.50987  0.29580  0.26214  1.0000
  H   H1380     1.0  0.59317  0.31402  0.30340  1.0000
  C   C1729     1.0  0.66056  0.32237  0.44087  1.0000
  H   H1381     1.0  0.90180  0.25745  0.29551  1.0000
  H   H1382     1.0  0.65761  0.36705  0.32696  1.0000
  C   C1730     1.0  0.69457  0.25849  0.45679  1.0000
  H   H1383     1.0  0.75811  0.29873  0.32199  1.0000
  C   C1731     1.0  0.71628  0.17267  0.43604  1.0000
  C   C1732     1.0  0.73689  0.16492  0.42316  1.0000
  C   C1733     1.0  0.75786  0.16522  0.43063  1.0000
  C   C1734     1.0  0.75824  0.17363  0.45087  1.0000
  H   H1384     1.0  0.76002  0.32752  0.38896  1.0000
  H   H1385     1.0  0.70439  0.26924  0.44398  1.0000
  C   C1735     1.0  0.50317  0.23959  0.27772  1.0000
  H   H1386     1.0  0.71143  0.22774  0.44430  1.0000
  C   C1736     1.0  0.51675  0.24142  0.29421  1.0000
  H   H1387     1.0  0.77384  0.15965  0.42041  1.0000
  H   H1388     1.0  0.77450  0.17460  0.45633  1.0000
  H   H1389     1.0  0.76909  0.43789  0.30373  1.0000
  H   H1390     1.0  0.67114  0.20799  0.43244  1.0000
  H   H1391     1.0  0.81281  0.22144  0.26789  1.0000
  C   C1737     1.0  0.70346  0.13075  0.25079  1.0000
  C   C1738     1.0  0.67296  0.16125  0.26058  1.0000
  C   C1739     1.0  0.71950  0.36765  0.47309  1.0000
  H   H1392     1.0  0.67533  0.28632  0.47315  1.0000
  C   C1740     1.0  0.91415  0.29932  0.27665  1.0000
  C   C1741     1.0  0.93294  0.30169  0.28713  1.0000
  P   P58       1.0  0.88507  0.30691  0.28999  1.0000
  C   C1742     1.0  0.86617  0.31596  0.26860  1.0000
  C   C1743     1.0  0.84362  0.31063  0.27231  1.0000
  H   H1393     1.0  0.97674  0.28072  0.24913  1.0000
  C   C1744     1.0  0.70636  0.40637  0.45685  1.0000
  C   C1745     1.0  0.73574  0.22968  0.25912  1.0000
  C   C1746     1.0  0.95541  0.29514  0.27715  1.0000
  C   C1747     1.0  0.88484  0.33041  0.30558  1.0000
  C   C1748     1.0  0.89035  0.32607  0.32779  1.0000
  C   C1749     1.0  0.89094  0.34408  0.33975  1.0000
  C   C1750     1.0  0.88618  0.36659  0.32961  1.0000
  C   C1751     1.0  0.99440  0.23113  0.24800  1.0000
  C   C1752     1.0  0.56974  0.32424  0.25424  1.0000
  H   H1394     1.0  0.52638  0.17540  0.29811  1.0000
  C   C1753     1.0  0.88837  0.12624  0.26481  1.0000
  H   H1395     1.0  0.93036  0.30830  0.30312  1.0000
  H   H1396     1.0  0.83720  0.30053  0.28781  1.0000
  H   H1397     1.0  0.75743  0.40382  0.47622  1.0000
  C   C1754     1.0  0.58058  0.32829  0.27188  1.0000
  C   C1755     1.0  0.94077  0.28353  0.24627  1.0000
  C   C1756     1.0  0.82889  0.31873  0.25603  1.0000
  H   H1398     1.0  0.89422  0.30872  0.33590  1.0000
  H   H1399     1.0  0.89491  0.34054  0.35697  1.0000
  H   H1400     1.0  0.88637  0.38053  0.33899  1.0000
  C   C1757     1.0  0.84419  0.11343  0.27860  1.0000
  C   C1758     1.0  0.69881  0.25226  0.25345  1.0000
  C   C1759     1.0  0.78655  0.22643  0.24589  1.0000
  C   C1760     1.0  0.64976  0.17094  0.47660  1.0000
  C   C1761     1.0  0.69971  0.07619  0.34493  1.0000
  C   C1762     1.0  0.71840  0.06316  0.33381  1.0000
  C   C1763     1.0  0.74025  0.06976  0.33094  1.0000
  C   C1764     1.0  0.74348  0.08945  0.33901  1.0000
  C   C1765     1.0  0.72498  0.10205  0.35113  1.0000
  C   C1766     1.0  0.70296  0.09557  0.35357  1.0000
  P   P59       1.0  0.72909  0.12734  0.36187  1.0000
  C   C1767     1.0  0.70781  0.13111  0.38640  1.0000
  C   C1768     1.0  0.75724  0.12397  0.37072  1.0000
  C   C1769     1.0  0.76796  0.10226  0.37884  1.0000
  C   C1770     1.0  0.78992  0.09957  0.38520  1.0000
  C   C1771     1.0  0.80122  0.11855  0.38386  1.0000
  C   C1772     1.0  0.79043  0.14024  0.37647  1.0000
  C   C1773     1.0  0.76851  0.14298  0.37004  1.0000
  C   C1774     1.0  0.68638  0.14420  0.38393  1.0000
  C   C1775     1.0  0.66971  0.14676  0.40280  1.0000
  C   C1776     1.0  0.67415  0.13604  0.42424  1.0000
  C   C1777     1.0  0.69532  0.12276  0.42683  1.0000
  C   C1778     1.0  0.71208  0.12022  0.40798  1.0000
  C   C1779     1.0  0.72495  0.15179  0.34047  1.0000
  C   C1780     1.0  0.72404  0.14900  0.31794  1.0000
  C   C1781     1.0  0.71885  0.16800  0.30203  1.0000
  C   C1782     1.0  0.71466  0.18983  0.30843  1.0000
  C   C1783     1.0  0.71581  0.19277  0.33068  1.0000
  C   C1784     1.0  0.72098  0.17385  0.34662  1.0000
  H   H1401     1.0  0.68264  0.07155  0.34638  1.0000
  H   H1402     1.0  0.71583  0.04847  0.32661  1.0000
  H   H1403     1.0  0.75459  0.05996  0.32185  1.0000
  H   H1404     1.0  0.76036  0.09488  0.33557  1.0000
  H   H1405     1.0  0.68818  0.10564  0.36175  1.0000
  H   H1406     1.0  0.75947  0.08734  0.38011  1.0000
  H   H1407     1.0  0.79832  0.08273  0.39089  1.0000
  H   H1408     1.0  0.81839  0.11649  0.38843  1.0000
  H   H1409     1.0  0.79922  0.15496  0.37546  1.0000
  H   H1410     1.0  0.76059  0.15996  0.36443  1.0000
  H   H1411     1.0  0.68237  0.15242  0.36742  1.0000
  H   H1412     1.0  0.65335  0.15714  0.40061  1.0000
  H   H1413     1.0  0.66116  0.13797  0.43879  1.0000
  H   H1414     1.0  0.69875  0.11439  0.44344  1.0000
  H   H1415     1.0  0.72828  0.10973  0.41031  1.0000
  H   H1416     1.0  0.72687  0.13225  0.31259  1.0000
  H   H1417     1.0  0.71766  0.16572  0.28480  1.0000
  H   H1418     1.0  0.71019  0.20448  0.29628  1.0000
  H   H1419     1.0  0.71208  0.20968  0.33573  1.0000
  H   H1420     1.0  0.72125  0.17644  0.36390  1.0000
  H   H1421     1.0  0.80264  0.28775  0.45011  1.0000
  C   C1785     1.0  0.64287  0.38528  0.43546  1.0000
  C   C1786     1.0  0.58440  0.31111  0.28992  1.0000
  S   S239      1.0  0.77041  0.39740  0.25346  1.0000
  H   H1422     1.0  0.67588  0.38070  0.41540  1.0000
  S   S240      1.0  0.72842  0.44639  0.28055  1.0000
  C   C1787     1.0  0.75951  0.28492  0.31201  1.0000
  H   H1423     1.0  0.64399  0.44569  0.34520  1.0000
  Fe  Fe118     1.0  0.89178  0.21879  0.25579  1.0000
  H   H1424     1.0  0.96932  0.16671  0.27560  1.0000
  H   H1425     1.0  0.77165  0.17939  0.25903  1.0000
  C   C1788     1.0  0.56312  0.30275  0.25434  1.0000
  H   H1426     1.0  0.76128  0.00970  0.26559  1.0000
  C   C1789     1.0  0.73173  0.48646  0.29526  1.0000
  Fe  Fe119     1.0  0.75003  0.08636  0.26037  1.0000
  C   C1790     1.0  0.52750  0.21161  0.39729  1.0000
  H   H1427     1.0  0.78490  0.44970  0.26235  1.0000
  C   C1791     1.0  0.98454  0.15567  0.26946  1.0000
  C   C1792     1.0  0.84399  0.26449  0.46644  1.0000
  C   C1793     1.0  0.88232  0.10734  0.25723  1.0000
  H   H1428     1.0  0.56679  0.21123  0.27333  1.0000
  H   H1429     1.0  0.80641  0.41974  0.28702  1.0000
  H   H1430     1.0  0.82318  0.24051  0.46002  1.0000
  H   H1431     1.0  0.66893  0.32641  0.26080  1.0000
  C   C1794     1.0  0.65433  0.33221  0.46084  1.0000
  H   H1432     1.0  0.54581  0.22681  0.36622  1.0000
  H   H1433     1.0  0.68722  0.26801  0.25449  1.0000
  C   C1795     1.0  0.98275  0.13379  0.26536  1.0000
  S   S241      1.0  0.91610  0.13393  0.25602  1.0000
  H   H1434     1.0  0.96985  0.29669  0.28542  1.0000
  C   C1796     1.0  0.72071  0.25028  0.25975  1.0000
  C   C1797     1.0  0.81358  0.42444  0.26953  1.0000
  C   C1798     1.0  0.91825  0.28967  0.25638  1.0000
  C   C1799     1.0  0.67128  0.33686  0.47239  1.0000
  H   H1435     1.0  0.63634  0.33615  0.46739  1.0000
  C   C1800     1.0  0.70758  0.04920  0.24729  1.0000
  C   C1801     1.0  0.73898  0.24278  0.49068  1.0000
  H   H1436     1.0  0.84303  0.39868  0.27137  1.0000
  H   H1437     1.0  0.86211  0.28783  0.47798  1.0000
  P   P60       1.0  0.71629  0.33771  0.47924  1.0000
  H   H1438     1.0  0.68817  0.37808  0.45803  1.0000
  C   C1802     1.0  0.68990  0.15153  0.24459  1.0000
  H   H1439     1.0  0.75213  0.36327  0.48593  1.0000
  H   H1440     1.0  0.89478  0.09756  0.24619  1.0000
  C   C1803     1.0  0.85521  0.47943  0.25751  1.0000
  H   H1441     1.0  0.73964  0.19573  0.24946  1.0000
  C   C1804     1.0  0.85122  0.27453  0.48300  1.0000
  C   C1805     1.0  0.66519  0.25429  0.48927  1.0000
  C   C1806     1.0  0.66901  0.23069  0.48945  1.0000
  H   H1442     1.0  0.66618  0.34448  0.48788  1.0000
  C   C1807     1.0  0.73911  0.37519  0.47801  1.0000
  H   H1443     1.0  0.79993  0.49084  0.25093  1.0000
  H   H1444     1.0  0.85319  0.17115  0.24615  1.0000
  C   C1808     1.0  0.75814  0.22651  0.49374  1.0000
  H   H1445     1.0  0.84361  0.46678  0.26313  1.0000
  H   H1446     1.0  0.77785  0.27157  0.48399  1.0000
  C   C1809     1.0  0.51220  0.22104  0.36166  1.0000
  C   C1810     1.0  0.70672  0.21360  0.24488  1.0000
  H   H1447     1.0  0.51454  0.22791  0.34391  1.0000
  C   C1811     1.0  0.76368  0.49362  0.31246  1.0000
  Fe  Fe120     1.0  0.74743  0.37332  0.24721  1.0000
  H   H1448     1.0  0.88515  0.45459  0.25186  1.0000
  C   C1812     1.0  0.87862  0.47257  0.25128  1.0000
  C   C1813     1.0  0.89367  0.48889  0.24497  1.0000
  C   C1814     1.0  0.78346  0.49775  0.24563  1.0000
  H   H1449     1.0  0.89101  0.33373  0.24511  1.0000
  H   H1450     1.0  0.65251  0.16291  0.49345  1.0000
  C   C1815     1.0  0.87664  0.23290  0.58869  1.0000
  C   C1816     1.0  0.70239  0.17666  0.54025  1.0000
  H   H1451     1.0  0.70245  0.11472  0.67675  1.0000
  Fe  Fe121     1.0  0.72533  0.26875  0.62161  1.0000
  S   S242      1.0  0.69182  0.26506  0.61128  1.0000
  S   S243      1.0  0.73540  0.30364  0.62128  1.0000
  Fe  Fe122     1.0  0.74058  0.21758  0.62672  1.0000
  S   S244      1.0  0.70817  0.20977  0.61672  1.0000
  S   S245      1.0  0.77006  0.19038  0.63448  1.0000
  Fe  Fe123     1.0  0.71224  0.23971  0.58956  1.0000
  S   S246      1.0  0.70373  0.24288  0.55382  1.0000
  Fe  Fe124     1.0  0.69077  0.23566  0.63937  1.0000
  S   S247      1.0  0.65678  0.23207  0.66155  1.0000
  S   S248      1.0  0.74596  0.24558  0.59783  1.0000
  S   S249      1.0  0.72299  0.24123  0.65151  1.0000
  H   H1452     1.0  0.68039  0.44337  0.73347  1.0000
  C   C1817     1.0  0.79443  0.28369  0.66236  1.0000
  H   H1453     1.0  0.66750  0.18323  0.66833  1.0000
  S   S250      1.0  0.72117  0.32928  0.72071  1.0000
  H   H1454     1.0  0.71213  0.39871  0.66299  1.0000
  C   C1818     1.0  0.83030  0.25016  0.51255  1.0000
  H   H1455     1.0  0.69954  0.20612  0.51545  1.0000
  C   C1819     1.0  0.63573  0.23205  0.72888  1.0000
  C   C1820     1.0  0.78860  0.03640  0.70384  1.0000
  H   H1456     1.0  0.70634  0.36765  0.64265  1.0000
  H   H1457     1.0  0.77637  0.33284  0.71232  1.0000
  H   H1458     1.0  0.74345  0.30646  0.56778  1.0000
  C   C1821     1.0  0.61706  0.31619  0.65211  1.0000
  H   H1459     1.0  0.71779  0.49014  0.72410  1.0000
  H   H1460     1.0  0.72127  0.35752  0.52004  1.0000
  H   H1461     1.0  0.65476  0.18043  0.70944  1.0000
  S   S251      1.0  0.72840  0.44159  0.73456  1.0000
  C   C1822     1.0  0.73146  0.31170  0.64860  1.0000
  C   C1823     1.0  0.74223  0.32947  0.65303  1.0000
  C   C1824     1.0  0.73939  0.33540  0.67512  1.0000
  C   C1825     1.0  0.72556  0.32368  0.69258  1.0000
  C   C1826     1.0  0.71474  0.30622  0.68796  1.0000
  C   C1827     1.0  0.71770  0.30019  0.66613  1.0000
  H   H1462     1.0  0.75287  0.33851  0.63947  1.0000
  H   H1463     1.0  0.74775  0.34896  0.67862  1.0000
  H   H1464     1.0  0.70389  0.29737  0.70148  1.0000
  H   H1465     1.0  0.70903  0.28679  0.66285  1.0000
  C   C1828     1.0  0.65680  0.22945  0.69104  1.0000
  C   C1829     1.0  0.67707  0.22212  0.70054  1.0000
  H   H1466     1.0  0.74379  0.09003  0.69193  1.0000
  C   C1830     1.0  0.85613  0.24346  0.68686  1.0000
  H   H1467     1.0  0.77462  0.07876  0.66143  1.0000
  C   C1831     1.0  0.63609  0.23418  0.70528  1.0000
  H   H1468     1.0  0.69305  0.21792  0.68979  1.0000
  P   P61       1.0  0.82415  0.21790  0.67820  1.0000
  H   H1469     1.0  0.88053  0.26379  0.69362  1.0000
  H   H1470     1.0  0.62030  0.23957  0.69803  1.0000
  C   C1832     1.0  0.72530  0.23668  0.53118  1.0000
  C   C1833     1.0  0.72252  0.24767  0.50931  1.0000
  C   C1834     1.0  0.81087  0.17905  0.70544  1.0000
  C   C1835     1.0  0.76083  0.21526  0.51558  1.0000
  C   C1836     1.0  0.74453  0.22044  0.53432  1.0000
  C   C1837     1.0  0.81866  0.99836  0.66816  1.0000
  H   H1471     1.0  0.77558  0.20252  0.51803  1.0000
  H   H1472     1.0  0.74662  0.21167  0.55109  1.0000
  C   C1838     1.0  0.74832  0.14216  0.69827  1.0000
  C   C1839     1.0  0.73268  0.15996  0.68940  1.0000
  C   C1840     1.0  0.73940  0.17472  0.66996  1.0000
  C   C1841     1.0  0.76191  0.17171  0.65900  1.0000
  C   C1842     1.0  0.77772  0.15375  0.66764  1.0000
  C   C1843     1.0  0.77094  0.13900  0.68735  1.0000
  H   H1473     1.0  0.71525  0.16249  0.69762  1.0000
  H   H1474     1.0  0.72704  0.18839  0.66344  1.0000
  H   H1475     1.0  0.79515  0.15122  0.65917  1.0000
  H   H1476     1.0  0.78311  0.12521  0.69403  1.0000
  C   C1844     1.0  0.87073  0.23986  0.72256  1.0000
  C   C1845     1.0  0.85348  0.23446  0.59792  1.0000
  H   H1477     1.0  0.50767  0.28939  0.73392  1.0000
  C   C1846     1.0  0.87017  0.25029  0.70028  1.0000
  C   C1847     1.0  0.67659  0.21966  0.72413  1.0000
  C   C1848     1.0  0.65155  0.32334  0.72498  1.0000
  H   H1478     1.0  0.60339  0.33428  0.73435  1.0000
  C   C1849     1.0  0.76428  0.19665  0.71181  1.0000
  H   H1479     1.0  0.78002  0.29923  0.63226  1.0000
  C   C1850     1.0  0.69547  0.37074  0.65836  1.0000
  H   H1480     1.0  0.69236  0.21415  0.73130  1.0000
  C   C1851     1.0  0.53574  0.16093  0.72804  1.0000
  H   H1481     1.0  0.83743  0.05049  0.70359  1.0000
  P   P62       1.0  0.82049  0.24195  0.54220  1.0000
  C   C1852     1.0  0.81146  0.21401  0.54756  1.0000
  C   C1853     1.0  0.84263  0.23917  0.56010  1.0000
  C   C1854     1.0  0.86597  0.23688  0.55099  1.0000
  C   C1855     1.0  0.88289  0.23395  0.56526  1.0000
  C   C1856     1.0  0.83656  0.23727  0.58373  1.0000
  C   C1857     1.0  0.79415  0.20900  0.56552  1.0000
  C   C1858     1.0  0.78788  0.18709  0.57068  1.0000
  C   C1859     1.0  0.79894  0.16995  0.55798  1.0000
  C   C1860     1.0  0.81661  0.17463  0.54039  1.0000
  C   C1861     1.0  0.82310  0.19649  0.53540  1.0000
  C   C1862     1.0  0.79656  0.26319  0.54974  1.0000
  C   C1863     1.0  0.79817  0.27898  0.56413  1.0000
  C   C1864     1.0  0.77903  0.29459  0.57049  1.0000
  C   C1865     1.0  0.75841  0.29490  0.56213  1.0000
  C   C1866     1.0  0.75697  0.27991  0.54704  1.0000
  C   C1867     1.0  0.77604  0.26421  0.54076  1.0000
  H   H1482     1.0  0.84953  0.27585  0.51860  1.0000
  H   H1483     1.0  0.57310  0.11529  0.71228  1.0000
  H   H1484     1.0  0.87122  0.23696  0.53298  1.0000
  H   H1485     1.0  0.90088  0.23232  0.55814  1.0000
  H   H1486     1.0  0.81871  0.23784  0.59120  1.0000
  H   H1487     1.0  0.78571  0.22189  0.57580  1.0000
  H   H1488     1.0  0.77450  0.18342  0.58466  1.0000
  H   H1489     1.0  0.79396  0.15301  0.56193  1.0000
  H   H1490     1.0  0.82533  0.16129  0.53066  1.0000
  H   H1491     1.0  0.75832  0.30527  0.74169  1.0000
  H   H1492     1.0  0.53899  0.26895  0.70998  1.0000
  C   C1868     1.0  0.78796  0.28363  0.64115  1.0000
  H   H1493     1.0  0.74087  0.27993  0.54079  1.0000
  H   H1494     1.0  0.77469  0.25262  0.52916  1.0000
  H   H1495     1.0  0.83718  0.19966  0.52209  1.0000
  H   H1496     1.0  0.89646  0.18532  0.63449  1.0000
  H   H1497     1.0  0.80982  0.26406  0.69019  1.0000
  C   C1869     1.0  0.84248  0.22615  0.69574  1.0000
  P   P63       1.0  0.81050  0.01287  0.71052  1.0000
  H   H1498     1.0  0.58694  0.41217  0.69330  1.0000
  C   C1870     1.0  0.73759  0.25590  0.71310  1.0000
  C   C1871     1.0  0.68502  0.39189  0.69028  1.0000
  H   H1499     1.0  0.65759  0.38106  0.71529  1.0000
  C   C1872     1.0  0.79116  0.26337  0.63168  1.0000
  H   H1500     1.0  0.66484  0.27725  0.65674  1.0000
  H   H1501     1.0  0.85584  0.25175  0.66960  1.0000
  H   H1502     1.0  0.84863  0.23331  0.61609  1.0000
  C   C1873     1.0  0.60006  0.35124  0.72526  1.0000
  H   H1503     1.0  0.81193  0.18755  0.65040  1.0000
  H   H1504     1.0  0.74611  0.20308  0.71361  1.0000
  C   C1874     1.0  0.63895  0.32472  0.67971  1.0000
  H   H1505     1.0  0.63231  0.29664  0.72116  1.0000
  C   C1875     1.0  0.56237  0.12656  0.72328  1.0000
  C   C1876     1.0  0.69874  0.38822  0.66981  1.0000
  H   H1506     1.0  0.86070  0.00887  0.69593  1.0000
  C   C1877     1.0  0.69074  0.30396  0.54017  1.0000
  C   C1878     1.0  0.69562  0.31661  0.55592  1.0000
  C   C1879     1.0  0.70652  0.33596  0.54848  1.0000
  C   C1880     1.0  0.71272  0.34258  0.52528  1.0000
  H   H1507     1.0  0.68240  0.28887  0.54599  1.0000
  H   H1508     1.0  0.69116  0.31126  0.57391  1.0000
  H   H1509     1.0  0.71040  0.34566  0.56078  1.0000
  H   H1510     1.0  0.63105  0.28617  0.63613  1.0000
  H   H1511     1.0  0.68791  0.40521  0.69929  1.0000
  H   H1512     1.0  0.62376  0.38846  0.68268  1.0000
  H   H1513     1.0  0.67724  0.34275  0.65866  1.0000
  C   C1881     1.0  0.69147  0.12878  0.68385  1.0000
  H   H1514     1.0  0.70759  0.26004  0.50681  1.0000
  C   C1882     1.0  0.67886  0.35655  0.66761  1.0000
  H   H1515     1.0  0.66955  0.30094  0.68482  1.0000
  H   H1516     1.0  0.62082  0.14486  0.72407  1.0000
  H   H1517     1.0  0.77994  0.30620  0.58230  1.0000
  C   C1883     1.0  0.61158  0.38176  0.69644  1.0000
  H   H1518     1.0  0.82883  0.17185  0.70291  1.0000
  C   C1884     1.0  0.65223  0.29193  0.65979  1.0000
  H   H1519     1.0  0.83304  0.20248  0.72579  1.0000
  H   H1520     1.0  0.69129  0.15053  0.65180  1.0000
  C   C1885     1.0  0.78667  0.31738  0.71890  1.0000
  C   C1886     1.0  0.66805  0.37803  0.69936  1.0000
  H   H1521     1.0  0.77374  0.22608  0.68948  1.0000
  H   H1522     1.0  0.60231  0.32018  0.64305  1.0000
  C   C1887     1.0  0.65496  0.30551  0.67564  1.0000
  H   H1523     1.0  0.52581  0.17631  0.72074  1.0000
  H   H1524     1.0  0.60732  0.34479  0.67059  1.0000
  C   C1888     1.0  0.61994  0.33006  0.66778  1.0000
  H   H1525     1.0  0.87666  0.16333  0.61380  1.0000
  C   C1889     1.0  0.68526  0.14896  0.66981  1.0000
  H   H1526     1.0  0.79096  0.29924  0.67011  1.0000
  C   C1890     1.0  0.66476  0.16577  0.70249  1.0000
  H   H1527     1.0  0.88974  0.23060  0.59974  1.0000
  C   C1891     1.0  0.84298  0.17436  0.63067  1.0000
  C   C1892     1.0  0.80349  0.20110  0.69521  1.0000
  C   C1893     1.0  0.85250  0.00452  0.68273  1.0000
  H   H1528     1.0  0.70154  0.25424  0.71550  1.0000
  H   H1529     1.0  0.70572  0.18619  0.55298  1.0000
  H   H1530     1.0  0.68989  0.11149  0.71779  1.0000
  C   C1894     1.0  0.67194  0.16743  0.67914  1.0000
  C   C1895     1.0  0.70226  0.15312  0.54507  1.0000
  H   H1531     1.0  0.76353  0.00003  0.71641  1.0000
  H   H1532     1.0  0.69241  0.14255  0.49397  1.0000
  C   C1896     1.0  0.82314  0.29305  0.71950  1.0000
  C   C1897     1.0  0.86521  0.19952  0.65363  1.0000
  C   C1898     1.0  0.77129  0.04318  0.72106  1.0000
  H   H1533     1.0  0.58857  0.29733  0.73758  1.0000
  C   C1899     1.0  0.83030  0.18749  0.64676  1.0000
  C   C1900     1.0  0.82625  0.02330  0.72903  1.0000
  C   C1901     1.0  0.57451  0.38670  0.71975  1.0000
  C   C1902     1.0  0.87793  0.18617  0.63769  1.0000
  C   C1903     1.0  0.75610  0.07492  0.69512  1.0000
  C   C1904     1.0  0.77351  0.06854  0.67795  1.0000
  C   C1905     1.0  0.69850  0.18804  0.51888  1.0000
  C   C1906     1.0  0.69854  0.14091  0.52837  1.0000
  P   P64       1.0  0.64314  0.34206  0.70019  1.0000
  H   H1534     1.0  0.69336  0.30019  0.50511  1.0000
  C   C1907     1.0  0.70798  0.32987  0.50932  1.0000
  H   H1535     1.0  0.81400  0.27926  0.57064  1.0000
  C   C1908     1.0  0.79515  0.16618  0.71926  1.0000
  C   C1909     1.0  0.81000  0.31297  0.71073  1.0000
  C   C1910     1.0  0.84121  0.20040  0.65817  1.0000
  C   C1911     1.0  0.77188  0.17506  0.72264  1.0000
  C   C1912     1.0  0.75568  0.25670  0.72495  1.0000
  C   C1913     1.0  0.86622  0.99787  0.66317  1.0000
  C   C1914     1.0  0.80182  0.24328  0.64297  1.0000
  H   H1536     1.0  0.69777  0.17210  0.73116  1.0000
  H   H1537     1.0  0.70536  0.14434  0.56165  1.0000
  H   H1538     1.0  0.83422  0.16459  0.62193  1.0000
  C   C1915     1.0  0.75500  0.06226  0.71667  1.0000
  C   C1916     1.0  0.80511  0.26368  0.67367  1.0000
  C   C1917     1.0  0.86681  0.17370  0.62611  1.0000
  H   H1539     1.0  0.78499  0.26323  0.61578  1.0000
  C   C1918     1.0  0.80954  0.24345  0.66374  1.0000
  C   C1919     1.0  0.85740  0.22253  0.73144  1.0000
  H   H1540     1.0  0.84142  0.29009  0.71386  1.0000
  C   C1920     1.0  0.56579  0.28197  0.72206  1.0000
  H   H1541     1.0  0.69889  0.12259  0.53199  1.0000
  C   C1921     1.0  0.84419  0.26758  0.50598  1.0000
  H   H1542     1.0  0.74030  0.25774  0.69475  1.0000
  C   C1922     1.0  0.64367  0.30201  0.73098  1.0000
  C   C1923     1.0  0.54932  0.14622  0.71390  1.0000
  C   C1924     1.0  0.78978  0.04939  0.68227  1.0000
  C   C1925     1.0  0.61660  0.35982  0.70822  1.0000
  H   H1543     1.0  0.81805  0.32524  0.69809  1.0000
  H   H1544     1.0  0.80100  0.14909  0.72689  1.0000
  C   C1926     1.0  0.68427  0.12703  0.70721  1.0000
  C   C1927     1.0  0.59066  0.39520  0.70232  1.0000
  H   H1545     1.0  0.80366  0.22770  0.63554  1.0000
  C   C1928     1.0  0.84322  0.21577  0.71820  1.0000
  C   C1929     1.0  0.63321  0.29710  0.64813  1.0000
  H   H1546     1.0  0.80350  0.04519  0.66892  1.0000
  C   C1930     1.0  0.66504  0.36001  0.68826  1.0000
  S   S252      1.0  0.73857  0.12410  0.72268  1.0000
  C   C1931     1.0  0.69694  0.31048  0.51699  1.0000
  H   H1547     1.0  0.87427  0.20877  0.66253  1.0000
  C   C1932     1.0  0.78002  0.20963  0.69808  1.0000
  H   H1548     1.0  0.54984  0.15021  0.69569  1.0000
  C   C1933     1.0  0.67063  0.14544  0.71669  1.0000
  H   H1549     1.0  0.77238  0.25896  0.71554  1.0000
  C   C1934     1.0  0.66593  0.32973  0.73848  1.0000
  H   H1550     1.0  0.74192  0.06765  0.73017  1.0000
  C   C1935     1.0  0.83756  0.04245  0.72094  1.0000
  H   H1551     1.0  0.75961  0.16479  0.73285  1.0000
  H   H1552     1.0  0.88140  0.24534  0.73297  1.0000
  C   C1936     1.0  0.82221  0.24100  0.49578  1.0000
  H   H1553     1.0  0.65878  0.22012  0.50204  1.0000
  H   H1554     1.0  0.57959  0.27255  0.71182  1.0000
  H   H1555     1.0  0.55833  0.39710  0.72436  1.0000
  H   H1556     1.0  0.67237  0.34589  0.73459  1.0000
  C   C1937     1.0  0.52517  0.29165  0.73470  1.0000
  S   S253      1.0  0.75721  0.37669  0.73781  1.0000
  C   C1938     1.0  0.81298  0.27747  0.73633  1.0000
  H   H1557     1.0  0.82354  0.26227  0.74296  1.0000
  C   C1939     1.0  0.61644  0.15683  0.73629  1.0000
  H   H1558     1.0  0.58295  0.16866  0.72638  1.0000
  C   C1940     1.0  0.59498  0.17030  0.73748  1.0000
  C   C1941     1.0  0.54294  0.27988  0.72112  1.0000
  C   C1942     1.0  0.57922  0.36471  0.73116  1.0000
  C   C1943     1.0  0.64918  0.42835  0.73738  1.0000
  Fe  Fe125     1.0  0.72784  0.35683  0.73912  1.0000
  H   H1559     1.0  0.84365  0.33142  0.73211  1.0000
  C   C1944     1.0  0.69466  0.15228  0.50694  1.0000
  H   H1560     1.0  0.85651  0.06709  0.72938  1.0000
  H   H1561     1.0  0.61969  0.23560  0.73963  1.0000
  C   C1945     1.0  0.65606  0.22489  0.73838  1.0000
  H   H1562     1.0  0.65236  0.26177  0.50182  1.0000
  H   H1563     1.0  0.81022  0.22869  0.50027  1.0000
  C   C1946     1.0  0.71573  0.25375  0.72483  1.0000
  C   C1947     1.0  0.69399  0.17604  0.50220  1.0000
  C   C1948     1.0  0.57085  0.29599  0.73645  1.0000
  H   H1564     1.0  0.77078  0.03399  0.73803  1.0000
  C   C1949     1.0  0.77648  0.30183  0.73568  1.0000
  H   H1565     1.0  0.65182  0.42456  0.72014  1.0000
  H   H1566     1.0  0.77504  0.42391  0.74174  1.0000
  H   H1567     1.0  0.53222  0.23434  0.73488  1.0000
  C   C1950     1.0  0.82857  0.00512  0.68520  1.0000
  H   H1568     1.0  0.74044  0.29293  0.49695  1.0000
  C   C1951     1.0  0.71597  0.48608  0.74236  1.0000
  C   C1952     1.0  0.84840  0.05189  0.73545  1.0000
  H   H1569     1.0  0.80027  0.99816  0.67008  1.0000
  H   H1570     1.0  0.91479  0.13751  0.73496  1.0000
  H   H1571     1.0  0.88960  0.10769  0.73954  1.0000
  Fe  Fe126     1.0  0.93792  0.24225  0.78329  1.0000
  H   H1572     1.0  0.56234  0.05353  0.83821  1.0000
  S   S254      1.0  0.97233  0.25211  0.78693  1.0000
  Fe  Fe127     1.0  0.89399  0.22982  0.81292  1.0000
  S   S255      1.0  0.87501  0.23025  0.78361  1.0000
  S   S256      1.0  0.88029  0.21742  0.84891  1.0000
  Fe  Fe128     1.0  0.90785  0.21126  0.76841  1.0000
  H   H1573     1.0  0.54978  0.37180  0.79668  1.0000
  Fe  Fe129     1.0  0.89108  0.26169  0.76902  1.0000
  C   C1953     1.0  0.56673  0.15868  0.80799  1.0000
  S   S257      1.0  0.92616  0.20886  0.79866  1.0000
  S   S258      1.0  0.90691  0.26325  0.79998  1.0000
  Fe  Fe130     1.0  0.75998  0.22197  0.91476  1.0000
  S   S259      1.0  0.77864  0.19179  0.93447  1.0000
  S   S260      1.0  0.77473  0.24377  0.88354  1.0000
  Fe  Fe131     1.0  0.71374  0.21374  0.94094  1.0000
  S   S261      1.0  0.72866  0.18269  0.96259  1.0000
  S   S262      1.0  0.67567  0.22469  0.94801  1.0000
  Fe  Fe132     1.0  0.75599  0.20361  0.96519  1.0000
  Fe  Fe133     1.0  0.74984  0.17357  0.93029  1.0000
  S   S263      1.0  0.75824  0.13732  0.92208  1.0000
  S   S264      1.0  0.73953  0.23555  0.94575  1.0000
  S   S265      1.0  0.73258  0.20304  0.90846  1.0000
  Fe  Fe134     1.0  0.80624  0.10210  0.76958  1.0000
  S   S266      1.0  0.77638  0.13018  0.76911  1.0000
  H   H1574     1.0  0.83492  0.01693  0.78427  1.0000
  Fe  Fe135     1.0  0.77539  0.06445  0.77927  1.0000
  S   S267      1.0  0.74320  0.08929  0.77948  1.0000
  Fe  Fe136     1.0  0.76008  0.10869  0.79937  1.0000
  S   S268      1.0  0.73628  0.12676  0.82552  1.0000
  S   S269      1.0  0.79100  0.08235  0.80181  1.0000
  Fe  Fe137     1.0  0.60883  0.25019  0.83810  1.0000
  S   S270      1.0  0.57586  0.26907  0.82722  1.0000
  S   S271      1.0  0.60639  0.25047  0.87563  1.0000
  Fe  Fe138     1.0  0.62647  0.23884  0.79010  1.0000
  S   S272      1.0  0.59462  0.25670  0.77631  1.0000
  Fe  Fe139     1.0  0.59809  0.28392  0.79685  1.0000
  S   S273      1.0  0.59516  0.32128  0.78283  1.0000
  Fe  Fe140     1.0  0.57594  0.23978  0.80832  1.0000
  S   S274      1.0  0.54513  0.22064  0.81442  1.0000
  S   S275      1.0  0.63113  0.26700  0.80886  1.0000
  S   S276      1.0  0.60772  0.21992  0.82088  1.0000
  S   S277      1.0  0.73066  0.39253  0.78666  1.0000
  S   S278      1.0  0.78459  0.34904  0.79568  1.0000
  S   S279      1.0  0.67414  0.36537  0.81165  1.0000
  C   C1954     1.0  0.75168  0.25735  0.83036  1.0000
  C   C1955     1.0  0.68773  0.28198  0.95543  1.0000
  C   C1956     1.0  0.61593  0.16075  0.91367  1.0000
  C   C1957     1.0  0.80281  0.19345  0.77263  1.0000
  C   C1958     1.0  0.75193  0.25585  0.74862  1.0000
  C   C1959     1.0  0.71092  0.47583  0.78944  1.0000
  P   P65       1.0  0.50709  0.32217  0.76592  1.0000
  H   H1575     1.0  0.97062  0.16732  0.88213  1.0000
  H   H1576     1.0  0.70907  0.47179  0.80767  1.0000
  C   C1960     1.0  0.61663  0.33409  0.79111  1.0000
  C   C1961     1.0  0.62478  0.32611  0.81181  1.0000
  C   C1962     1.0  0.64230  0.33593  0.81810  1.0000
  C   C1963     1.0  0.65223  0.35332  0.80343  1.0000
  C   C1964     1.0  0.64391  0.36158  0.78286  1.0000
  C   C1965     1.0  0.62582  0.35228  0.77693  1.0000
  H   H1577     1.0  0.61737  0.31253  0.82317  1.0000
  H   H1578     1.0  0.64843  0.32968  0.83417  1.0000
  H   H1579     1.0  0.80032  0.17740  0.76792  1.0000
  S   S280      1.0  0.77785  0.02607  0.78759  1.0000
  H   H1580     1.0  0.94149  0.23761  0.83410  1.0000
  H   H1581     1.0  0.85028  0.17924  0.83458  1.0000
  H   H1582     1.0  0.69726  0.06761  0.77797  1.0000
  C   C1966     1.0  0.86118  0.12625  0.75872  1.0000
  H   H1583     1.0  0.71352  0.11286  0.92796  1.0000
  H   H1584     1.0  0.73394  0.03961  0.77026  1.0000
  C   C1967     1.0  0.65777  0.23129  0.92663  1.0000
  C   C1968     1.0  0.66607  0.23190  0.90345  1.0000
  C   C1969     1.0  0.65056  0.23725  0.88726  1.0000
  C   C1970     1.0  0.62698  0.24243  0.89438  1.0000
  C   C1971     1.0  0.61896  0.24184  0.91749  1.0000
  C   C1972     1.0  0.63421  0.23622  0.93348  1.0000
  H   H1585     1.0  0.68432  0.22841  0.89810  1.0000
  H   H1586     1.0  0.65669  0.23764  0.86940  1.0000
  H   H1587     1.0  0.60078  0.24583  0.92311  1.0000
  H   H1588     1.0  0.62769  0.23584  0.95131  1.0000
  C   C1973     1.0  0.75340  0.13437  0.89472  1.0000
  C   C1974     1.0  0.76436  0.11549  0.88418  1.0000
  C   C1975     1.0  0.76010  0.11311  0.86241  1.0000
  C   C1976     1.0  0.74440  0.12938  0.85157  1.0000
  C   C1977     1.0  0.73359  0.14808  0.86215  1.0000
  C   C1978     1.0  0.73808  0.15059  0.88357  1.0000
  H   H1589     1.0  0.77601  0.10269  0.89289  1.0000
  H   H1590     1.0  0.76845  0.09851  0.85434  1.0000
  H   H1591     1.0  0.72167  0.16065  0.85364  1.0000
  H   H1592     1.0  0.72896  0.16460  0.89184  1.0000
  C   C1979     1.0  0.63626  0.12751  0.86816  1.0000
  H   H1593     1.0  0.76267  0.31216  0.82126  1.0000
  C   C1980     1.0  0.94415  0.19584  0.87921  1.0000
  C   C1981     1.0  0.75997  0.47051  0.82396  1.0000
  C   C1982     1.0  0.79197  0.40774  0.77022  1.0000
  H   H1594     1.0  0.57818  0.43144  0.87599  1.0000
  C   C1983     1.0  0.80856  0.33257  0.78235  1.0000
  C   C1984     1.0  0.82006  0.31374  0.79494  1.0000
  C   C1985     1.0  0.83967  0.30085  0.78466  1.0000
  H   H1595     1.0  0.81370  0.30899  0.81260  1.0000
  H   H1596     1.0  0.84830  0.28617  0.79435  1.0000
  H   H1597     1.0  0.85808  0.21423  0.74860  1.0000
  C   C1986     1.0  0.51496  0.28673  0.80141  1.0000
  C   C1987     1.0  0.52603  0.22735  0.75196  1.0000
  H   H1598     1.0  0.66209  0.04929  0.78193  1.0000
  H   H1599     1.0  0.80831  0.39626  0.80002  1.0000
  C   C1988     1.0  0.86081  0.48739  0.80867  1.0000
  Fe  Fe141     1.0  0.70352  0.37151  0.78389  1.0000
  H   H1600     1.0  0.99408  0.15290  0.75142  1.0000
  H   H1601     1.0  0.93453  0.19067  0.89551  1.0000
  C   C1989     1.0  0.85082  0.22465  0.85776  1.0000
  C   C1990     1.0  0.84133  0.21486  0.87910  1.0000
  C   C1991     1.0  0.81802  0.22064  0.88703  1.0000
  C   C1992     1.0  0.80400  0.23621  0.87366  1.0000
  C   C1993     1.0  0.81343  0.24593  0.85216  1.0000
  C   C1994     1.0  0.83683  0.24012  0.84418  1.0000
  H   H1602     1.0  0.85209  0.20294  0.88968  1.0000
  H   H1603     1.0  0.81110  0.21335  0.90369  1.0000
  H   H1604     1.0  0.80270  0.25809  0.84175  1.0000
  H   H1605     1.0  0.84410  0.24791  0.82775  1.0000
  C   C1995     1.0  0.60354  0.43847  0.84696  1.0000
  C   C1996     1.0  0.79164  0.45207  0.77996  1.0000
  C   C1997     1.0  0.80926  0.23460  0.78525  1.0000
  C   C1998     1.0  0.53093  0.35045  0.78324  1.0000
  H   H1606     1.0  0.65755  0.08725  0.83332  1.0000
  H   H1607     1.0  0.58236  0.21163  0.87921  1.0000
  C   C1999     1.0  0.76593  0.29065  0.79520  1.0000
  C   C2000     1.0  0.74198  0.47616  0.84095  1.0000
  C   C2001     1.0  0.64137  0.49317  0.79974  1.0000
  C   C2002     1.0  0.82042  0.21412  0.79508  1.0000
  S   S281      1.0  0.84468  0.10348  0.76205  1.0000
  H   H1608     1.0  0.53130  0.14189  0.83691  1.0000
  C   C2003     1.0  0.79113  0.21394  0.76312  1.0000
  C   C2004     1.0  0.53759  0.37128  0.78524  1.0000
  H   H1609     1.0  0.65319  0.47130  0.84190  1.0000
  C   C2005     1.0  0.97611  0.16203  0.78329  1.0000
  C   C2006     1.0  0.66200  0.44384  0.76717  1.0000
  C   C2007     1.0  0.00004  0.16642  0.81105  1.0000
  C   C2008     1.0  0.85993  0.47091  0.79495  1.0000
  H   H1610     1.0  0.58072  0.39049  0.87200  1.0000
  C   C2009     1.0  0.88339  0.12324  0.74686  1.0000
  C   C2010     1.0  0.67275  0.31493  0.75724  1.0000
  S   S282      1.0  0.87244  0.29137  0.74819  1.0000
  C   C2011     1.0  0.51766  0.13960  0.80622  1.0000
  H   H1611     1.0  0.99602  0.08996  0.86157  1.0000
  C   C2012     1.0  0.66577  0.45662  0.83873  1.0000
  C   C2013     1.0  0.71053  0.17066  0.78417  1.0000
  C   C2014     1.0  0.69397  0.15768  0.79628  1.0000
  C   C2015     1.0  0.67874  0.14973  0.78499  1.0000
  H   H1612     1.0  0.59308  0.10787  0.79200  1.0000
  Fe  Fe142     1.0  0.72943  0.40438  0.74974  1.0000
  C   C2016     1.0  0.58087  0.18657  0.90898  1.0000
  H   H1613     1.0  0.87544  0.45993  0.78943  1.0000
  H   H1614     1.0  0.81157  0.25038  0.79074  1.0000
  H   H1615     1.0  0.99103  0.12649  0.83657  1.0000
  C   C2017     1.0  0.54566  0.09759  0.79848  1.0000
  H   H1616     1.0  0.68297  0.27205  0.97166  1.0000
  H   H1617     1.0  0.55255  0.23825  0.76660  1.0000
  C   C2018     1.0  0.84818  0.30718  0.76193  1.0000
  H   H1618     1.0  0.50602  0.40597  0.74793  1.0000
  C   C2019     1.0  0.80102  0.43306  0.79406  1.0000
  H   H1619     1.0  0.52727  0.27787  0.78939  1.0000
  H   H1620     1.0  0.72251  0.17643  0.79304  1.0000
  H   H1621     1.0  0.69331  0.15355  0.81441  1.0000
  H   H1622     1.0  0.66618  0.13949  0.79466  1.0000
  P   P66       1.0  0.77490  0.26033  0.76297  1.0000
  C   C2020     1.0  0.51147  0.27652  0.82396  1.0000
  C   C2021     1.0  0.60517  0.18935  0.76610  1.0000
  C   C2022     1.0  0.97822  0.16681  0.80475  1.0000
  C   C2023     1.0  0.53491  0.08559  0.78594  1.0000
  H   H1623     1.0  0.61705  0.41479  0.74621  1.0000
  H   H1624     1.0  0.76671  0.45277  0.82340  1.0000
  H   H1625     1.0  0.72651  0.25229  0.77856  1.0000
  H   H1626     1.0  0.95923  0.16311  0.77823  1.0000
  C   C2024     1.0  0.53483  0.15583  0.75156  1.0000
  H   H1627     1.0  0.98515  0.21815  0.75597  1.0000
  H   H1628     1.0  0.97720  0.21406  0.82013  1.0000
  C   C2025     1.0  0.54485  0.05051  0.81044  1.0000
  H   H1629     1.0  0.60267  0.45614  0.84925  1.0000
  C   C2026     1.0  0.63668  0.10958  0.85569  1.0000
  C   C2027     1.0  0.81689  0.33866  0.75958  1.0000
  C   C2028     1.0  0.66513  0.29369  0.76284  1.0000
  C   C2029     1.0  0.62602  0.42829  0.77419  1.0000
  H   H1630     1.0  0.56322  0.19270  0.91511  1.0000
  H   H1631     1.0  0.83123  0.21412  0.80793  1.0000
  P   P67       1.0  0.63730  0.44698  0.80996  1.0000
  C   C2030     1.0  0.62667  0.17589  0.76499  1.0000
  H   H1632     1.0  0.53373  0.40744  0.77419  1.0000
  H   H1633     1.0  0.61034  0.42470  0.78501  1.0000
  C   C2031     1.0  0.89038  0.16023  0.75402  1.0000
  C   C2032     1.0  0.51616  0.14440  0.82851  1.0000
  C   C2033     1.0  0.53023  0.21952  0.79180  1.0000
  C   C2034     1.0  0.69729  0.30477  0.82390  1.0000
  C   C2035     1.0  0.69259  0.28232  0.82907  1.0000
  C   C2036     1.0  0.69423  0.27066  0.85081  1.0000
  C   C2037     1.0  0.70008  0.28151  0.86752  1.0000
  C   C2038     1.0  0.70353  0.30450  0.86279  1.0000
  C   C2039     1.0  0.70304  0.31573  0.84060  1.0000
  P   P68       1.0  0.71034  0.31915  0.88433  1.0000
  C   C2040     1.0  0.70129  0.30528  0.91245  1.0000
  C   C2041     1.0  0.74089  0.32010  0.87830  1.0000
  C   C2042     1.0  0.75644  0.30205  0.88715  1.0000
  C   C2043     1.0  0.78009  0.30190  0.88075  1.0000
  C   C2044     1.0  0.78841  0.31964  0.86536  1.0000
  C   C2045     1.0  0.77307  0.33764  0.85644  1.0000
  C   C2046     1.0  0.74939  0.33781  0.86270  1.0000
  C   C2047     1.0  0.71468  0.30364  0.92997  1.0000
  C   C2048     1.0  0.68027  0.29647  0.91716  1.0000
  C   C2049     1.0  0.69494  0.34767  0.88307  1.0000
  C   C2050     1.0  0.67503  0.35362  0.87253  1.0000
  C   C2051     1.0  0.66347  0.37586  0.87145  1.0000
  C   C2052     1.0  0.67126  0.39214  0.88145  1.0000
  C   C2053     1.0  0.69073  0.38620  0.89247  1.0000
  C   C2054     1.0  0.70254  0.36403  0.89330  1.0000
  H   H1634     1.0  0.69621  0.31386  0.80704  1.0000
  H   H1635     1.0  0.68782  0.27395  0.81622  1.0000
  H   H1636     1.0  0.69092  0.25322  0.85480  1.0000
  H   H1637     1.0  0.70188  0.27184  0.88403  1.0000
  H   H1638     1.0  0.70679  0.33310  0.83622  1.0000
  H   H1639     1.0  0.75039  0.28748  0.89814  1.0000
  H   H1640     1.0  0.79194  0.28754  0.88716  1.0000
  H   H1641     1.0  0.80671  0.31914  0.85993  1.0000
  H   H1642     1.0  0.77955  0.35107  0.84403  1.0000
  H   H1643     1.0  0.73780  0.35138  0.85477  1.0000
  H   H1644     1.0  0.73043  0.31115  0.92719  1.0000
  H   H1645     1.0  0.66921  0.29817  0.90420  1.0000
  H   H1646     1.0  0.66845  0.34127  0.86490  1.0000
  H   H1647     1.0  0.64861  0.38045  0.86261  1.0000
  H   H1648     1.0  0.66226  0.40937  0.88048  1.0000
  H   H1649     1.0  0.69673  0.39877  0.90033  1.0000
  H   H1650     1.0  0.71761  0.35960  0.90190  1.0000
  C   C2055     1.0  0.70804  0.29178  0.95130  1.0000
  C   C2056     1.0  0.53009  0.30610  0.74899  1.0000
  C   C2057     1.0  0.56908  0.13752  0.80012  1.0000
  C   C2058     1.0  0.58501  0.16518  0.81623  1.0000
  C   C2059     1.0  0.60616  0.15118  0.81561  1.0000
  C   C2060     1.0  0.60905  0.13066  0.80660  1.0000
  C   C2061     1.0  0.59060  0.12385  0.79884  1.0000
  C   C2062     1.0  0.96824  0.20900  0.83676  1.0000
  H   H1651     1.0  0.58277  0.18134  0.82274  1.0000
  H   H1652     1.0  0.62042  0.15651  0.82163  1.0000
  H   H1653     1.0  0.62562  0.12009  0.80559  1.0000
  H   H1654     1.0  0.68414  0.31998  0.76728  1.0000
  H   H1655     1.0  0.55077  0.17022  0.80792  1.0000
  H   H1656     1.0  0.86254  0.17865  0.77387  1.0000
  C   C2063     1.0  0.72075  0.00813  0.76966  1.0000
  C   C2064     1.0  0.62702  0.17168  0.89352  1.0000
  P   P69       1.0  0.65622  0.16082  0.88319  1.0000
  C   C2065     1.0  0.65636  0.13710  0.86797  1.0000
  C   C2066     1.0  0.67041  0.18211  0.86373  1.0000
  C   C2067     1.0  0.66512  0.18773  0.84151  1.0000
  C   C2068     1.0  0.67720  0.20289  0.82586  1.0000
  C   C2069     1.0  0.69491  0.21225  0.83208  1.0000
  C   C2070     1.0  0.70034  0.20672  0.85413  1.0000
  C   C2071     1.0  0.68796  0.19197  0.86996  1.0000
  C   C2072     1.0  0.67669  0.12858  0.85503  1.0000
  C   C2073     1.0  0.67709  0.11073  0.84257  1.0000
  C   C2074     1.0  0.65710  0.10121  0.84289  1.0000
  C   C2075     1.0  0.67160  0.15264  0.90736  1.0000
  C   C2076     1.0  0.68764  0.13279  0.90908  1.0000
  C   C2077     1.0  0.70043  0.12765  0.92718  1.0000
  C   C2078     1.0  0.69739  0.14225  0.94362  1.0000
  C   C2079     1.0  0.68128  0.16189  0.94218  1.0000
  C   C2080     1.0  0.66840  0.16706  0.92416  1.0000
  H   H1657     1.0  0.62285  0.19906  0.86581  1.0000
  H   H1658     1.0  0.62507  0.14647  0.92346  1.0000
  H   H1659     1.0  0.65187  0.18020  0.83616  1.0000
  H   H1660     1.0  0.67312  0.20702  0.80873  1.0000
  H   H1661     1.0  0.70443  0.22374  0.81980  1.0000
  H   H1662     1.0  0.71420  0.21375  0.85906  1.0000
  H   H1663     1.0  0.69262  0.18802  0.88686  1.0000
  H   H1664     1.0  0.69235  0.13572  0.85463  1.0000
  H   H1665     1.0  0.69306  0.10428  0.83276  1.0000
  H   H1666     1.0  0.69095  0.12156  0.89624  1.0000
  C   C2081     1.0  0.61469  0.18996  0.88108  1.0000
  H   H1667     1.0  0.70802  0.13865  0.95710  1.0000
  H   H1668     1.0  0.67922  0.17350  0.95467  1.0000
  H   H1669     1.0  0.65651  0.18275  0.92297  1.0000
  C   C2082     1.0  0.99574  0.15624  0.76817  1.0000
  H   H1670     1.0  0.64451  0.27083  0.75419  1.0000
  H   H1671     1.0  0.56227  0.09508  0.82841  1.0000
  C   C2083     1.0  0.73687  0.02124  0.77385  1.0000
  H   H1672     1.0  0.82550  0.04387  0.84754  1.0000
  C   C2084     1.0  0.81886  0.48267  0.79543  1.0000
  H   H1673     1.0  0.87700  0.48914  0.81384  1.0000
  C   C2085     1.0  0.54713  0.13566  0.76114  1.0000
  H   H1674     1.0  0.57155  0.10601  0.75381  1.0000
  H   H1675     1.0  0.83889  0.45621  0.77703  1.0000
  C   C2086     1.0  0.67931  0.42319  0.81998  1.0000
  C   C2087     1.0  0.69794  0.41811  0.83225  1.0000
  C   C2088     1.0  0.70081  0.43251  0.84733  1.0000
  C   C2089     1.0  0.68476  0.45183  0.85053  1.0000
  C   C2090     1.0  0.93581  0.21564  0.86576  1.0000
  H   H1676     1.0  0.60094  0.20226  0.77734  1.0000
  H   H1677     1.0  0.52433  0.16754  0.76217  1.0000
  C   C2091     1.0  0.59125  0.40138  0.86008  1.0000
  C   C2092     1.0  0.60662  0.39223  0.84272  1.0000
  C   C2093     1.0  0.80113  0.41099  0.78918  1.0000
  H   H1678     1.0  0.58472  0.16014  0.93727  1.0000
  C   C2094     1.0  0.66074  0.11374  0.75836  1.0000
  H   H1679     1.0  0.67734  0.41186  0.80836  1.0000
  H   H1680     1.0  0.70995  0.40275  0.83035  1.0000
  H   H1681     1.0  0.71532  0.42846  0.85671  1.0000
  H   H1682     1.0  0.68691  0.46305  0.86222  1.0000
  C   C2095     1.0  0.75659  0.25242  0.80815  1.0000
  C   C2096     1.0  0.62614  0.47687  0.80567  1.0000
  H   H1683     1.0  0.60819  0.37423  0.84120  1.0000
  H   H1684     1.0  0.70540  0.01650  0.76278  1.0000
  H   H1685     1.0  0.62119  0.10214  0.85603  1.0000
  C   C2097     1.0  0.75393  0.27885  0.83500  1.0000
  H   H1686     1.0  0.53802  0.33517  0.79341  1.0000
  H   H1687     1.0  0.75079  0.28228  0.85230  1.0000
  H   H1688     1.0  0.74692  0.24436  0.84420  1.0000
  C   C2098     1.0  0.83505  0.07575  0.82974  1.0000
  C   C2099     1.0  0.82746  0.06123  0.84899  1.0000
  C   C2100     1.0  0.82205  0.06923  0.86999  1.0000
  C   C2101     1.0  0.82441  0.09169  0.87181  1.0000
  C   C2102     1.0  0.83188  0.10644  0.85251  1.0000
  C   C2103     1.0  0.83669  0.09839  0.83136  1.0000
  P   P70       1.0  0.83515  0.13554  0.85443  1.0000
  C   C2104     1.0  0.81062  0.15484  0.84559  1.0000
  C   C2105     1.0  0.83756  0.13960  0.88299  1.0000
  C   C2106     1.0  0.81814  0.13948  0.89950  1.0000
  C   C2107     1.0  0.81925  0.14376  0.92136  1.0000
  C   C2108     1.0  0.83966  0.14880  0.92678  1.0000
  C   C2109     1.0  0.85909  0.14917  0.91040  1.0000
  C   C2110     1.0  0.85813  0.14450  0.88859  1.0000
  C   C2111     1.0  0.80429  0.17585  0.85402  1.0000
  C   C2112     1.0  0.78516  0.19069  0.84756  1.0000
  C   C2113     1.0  0.77233  0.18486  0.83242  1.0000
  C   C2114     1.0  0.77878  0.16427  0.82356  1.0000
  C   C2115     1.0  0.79772  0.14921  0.83022  1.0000
  C   C2116     1.0  0.86088  0.14279  0.83645  1.0000
  C   C2117     1.0  0.87910  0.12579  0.83061  1.0000
  C   C2118     1.0  0.89903  0.13171  0.81678  1.0000
  C   C2119     1.0  0.90126  0.15460  0.80948  1.0000
  C   C2120     1.0  0.88361  0.17150  0.81610  1.0000
  C   C2121     1.0  0.86348  0.16572  0.82942  1.0000
  H   H1689     1.0  0.83912  0.06969  0.81336  1.0000
  H   H1690     1.0  0.81592  0.05806  0.88488  1.0000
  H   H1691     1.0  0.82028  0.09739  0.88827  1.0000
  H   H1692     1.0  0.84194  0.10954  0.81606  1.0000
  H   H1693     1.0  0.80199  0.13644  0.89531  1.0000
  H   H1694     1.0  0.80406  0.14365  0.93394  1.0000
  H   H1695     1.0  0.84026  0.15274  0.94358  1.0000
  H   H1696     1.0  0.87480  0.15350  0.91446  1.0000
  H   H1697     1.0  0.87331  0.14530  0.87614  1.0000
  H   H1698     1.0  0.81399  0.18078  0.86577  1.0000
  H   H1699     1.0  0.78020  0.20664  0.85449  1.0000
  H   H1700     1.0  0.75729  0.19615  0.82774  1.0000
  H   H1701     1.0  0.76874  0.15969  0.81192  1.0000
  H   H1702     1.0  0.80196  0.13317  0.82348  1.0000
  H   H1703     1.0  0.87808  0.10799  0.83669  1.0000
  H   H1704     1.0  0.91273  0.11859  0.81169  1.0000
  H   H1705     1.0  0.91658  0.15929  0.79862  1.0000
  H   H1706     1.0  0.88543  0.18918  0.81100  1.0000
  S   S283      1.0  0.65660  0.22220  0.76788  1.0000
  C   C2122     1.0  0.76877  0.48767  0.80784  1.0000
  C   C2123     1.0  0.66307  0.44244  0.82316  1.0000
  C   C2124     1.0  0.55499  0.08599  0.81775  1.0000
  C   C2125     1.0  0.59301  0.16831  0.92146  1.0000
  C   C2126     1.0  0.00173  0.10482  0.86587  1.0000
  C   C2127     1.0  0.71821  0.45830  0.77587  1.0000
  H   H1707     1.0  0.72185  0.44095  0.78373  1.0000
  C   C2128     1.0  0.68144  0.07759  0.77330  1.0000
  H   H1708     1.0  0.96276  0.17093  0.81630  1.0000
  H   H1709     1.0  0.75571  0.23535  0.80495  1.0000
  C   C2129     1.0  0.76396  0.26897  0.79039  1.0000
  C   C2130     1.0  0.83638  0.02359  0.76642  1.0000
  C   C2131     1.0  0.76073  0.29558  0.81748  1.0000
  C   C2132     1.0  0.51560  0.34933  0.76809  1.0000
  H   H1710     1.0  0.62025  0.13377  0.87785  1.0000
  C   C2133     1.0  0.97677  0.18910  0.85006  1.0000
  C   C2134     1.0  0.75686  0.01046  0.78253  1.0000
  C   C2135     1.0  0.66159  0.06730  0.77555  1.0000
  C   C2136     1.0  0.96463  0.18263  0.87148  1.0000
  H   H1711     1.0  0.77226  0.30354  0.78210  1.0000
  H   H1712     1.0  0.82513  0.17784  0.79739  1.0000
  C   C2137     1.0  0.78200  0.44856  0.76122  1.0000
  C   C2138     1.0  0.81699  0.19359  0.78900  1.0000
  H   H1713     1.0  0.77410  0.46272  0.75031  1.0000
  H   H1714     1.0  0.80824  0.43527  0.80881  1.0000
  H   H1715     1.0  0.69682  0.10822  0.76250  1.0000
  Fe  Fe143     1.0  0.75605  0.36356  0.77493  1.0000
  C   C2139     1.0  0.79397  0.23460  0.76976  1.0000
  C   C2140     1.0  0.58980  0.42446  0.86227  1.0000
  P   P71       1.0  0.79210  0.48065  0.78582  1.0000
  H   H1716     1.0  0.91972  0.22568  0.87153  1.0000
  C   C2141     1.0  0.59165  0.19722  0.88873  1.0000
  C   C2142     1.0  0.67369  0.28465  0.93848  1.0000
  H   H1717     1.0  0.65800  0.27693  0.94170  1.0000
  C   C2143     1.0  0.53763  0.22942  0.76987  1.0000
  C   C2144     1.0  0.55485  0.06248  0.82351  1.0000
  C   C2145     1.0  0.94797  0.22231  0.84463  1.0000
  C   C2146     1.0  0.62957  0.42296  0.75204  1.0000
  C   C2147     1.0  0.72047  0.46330  0.75224  1.0000
  S   S284      1.0  0.72901  0.34165  0.77538  1.0000
  H   H1718     1.0  0.65128  0.37526  0.77164  1.0000
  H   H1719     1.0  0.71890  0.28970  0.96450  1.0000
  C   C2148     1.0  0.83910  0.46870  0.78814  1.0000
  S   S285      1.0  0.79265  0.08229  0.74700  1.0000
  C   C2149     1.0  0.64255  0.43823  0.78211  1.0000
  H   H1720     1.0  0.62509  0.11278  0.75561  1.0000
  H   H1721     1.0  0.67058  0.28225  0.77730  1.0000
  P   P72       1.0  0.54483  0.12806  0.79150  1.0000
  C   C2150     1.0  0.62042  0.40616  0.82751  1.0000
  H   H1722     1.0  0.63883  0.17885  0.77537  1.0000
  C   C2151     1.0  0.73004  0.25290  0.76038  1.0000
  C   C2152     1.0  0.60244  0.48403  0.80650  1.0000
  H   H1723     1.0  0.63276  0.39861  0.81463  1.0000
  C   C2153     1.0  0.52869  0.39128  0.77247  1.0000
  C   C2154     1.0  0.61855  0.42951  0.82911  1.0000
  C   C2155     1.0  0.53473  0.06210  0.79177  1.0000
  H   H1724     1.0  0.52651  0.09438  0.77171  1.0000
  C   C2156     1.0  0.56141  0.12135  0.74682  1.0000
  H   H1725     1.0  0.67445  0.45236  0.77261  1.0000
  H   H1726     1.0  0.73517  0.46287  0.85322  1.0000
  P   P73       1.0  0.00273  0.17193  0.83907  1.0000
  H   H1727     1.0  0.55761  0.31836  0.76105  1.0000
  H   H1728     1.0  0.79222  0.39066  0.76637  1.0000
  P   P74       1.0  0.66094  0.14344  0.74680  1.0000
  S   S286      1.0  0.70015  0.38541  0.74782  1.0000
  C   C2157     1.0  0.84773  0.04252  0.75820  1.0000
  C   C2158     1.0  0.82564  0.01401  0.75192  1.0000
  H   H1729     1.0  0.57269  0.19695  0.75328  1.0000
  H   H1730     1.0  0.52658  0.05291  0.78189  1.0000
  C   C2159     1.0  0.86816  0.16334  0.76611  1.0000
  C   C2160     1.0  0.55313  0.30793  0.74988  1.0000
  H   H1731     1.0  0.83652  0.14838  0.77776  1.0000
  H   H1732     1.0  0.85534  0.05046  0.76959  1.0000
  S   S287      1.0  0.92295  0.24286  0.75133  1.0000
  Fe  Fe144     1.0  0.76161  0.10889  0.74909  1.0000
  C   C2161     1.0  0.78236  0.42648  0.75632  1.0000
  H   H1733     1.0  0.54472  0.03229  0.81492  1.0000
  H   H1734     1.0  0.61950  0.35876  0.76106  1.0000
  H   H1735     1.0  0.77933  0.21352  0.75133  1.0000
  H   H1736     1.0  0.80824  0.35322  0.74980  1.0000
  H   H1737     1.0  0.69507  0.24973  0.75745  1.0000
  H   H1738     1.0  0.52106  0.26016  0.82916  1.0000
  C   C2162     1.0  0.00026  0.22014  0.76292  1.0000
  C   C2163     1.0  0.64131  0.08012  0.76922  1.0000
  C   C2164     1.0  0.99864  0.23553  0.77841  1.0000
  C   C2165     1.0  0.99897  0.12560  0.85168  1.0000
  C   C2166     1.0  0.85348  0.14639  0.76829  1.0000
  C   C2167     1.0  0.83694  0.32630  0.74958  1.0000
  C   C2168     1.0  0.71170  0.17593  0.76070  1.0000
  H   H1739     1.0  0.72431  0.18624  0.75132  1.0000
  C   C2169     1.0  0.58927  0.18644  0.75248  1.0000
  S   S288      1.0  0.90993  0.18051  0.75012  1.0000
  C   C2170     1.0  0.78948  0.28171  0.74438  1.0000
  C   C2171     1.0  0.68107  0.10067  0.76465  1.0000
  C   C2172     1.0  0.68002  0.15470  0.76133  1.0000
  H   H1740     1.0  0.65978  0.48804  0.79802  1.0000
  C   C2173     1.0  0.64087  0.10326  0.76061  1.0000
  C   C2174     1.0  0.63244  0.15939  0.75016  1.0000
  H   H1741     1.0  0.62604  0.07199  0.77071  1.0000
  C   C2175     1.0  0.65052  0.28726  0.74977  1.0000
  C   C2176     1.0  0.51089  0.20802  0.79583  1.0000
  C   C2177     1.0  0.69657  0.16790  0.74930  1.0000
  H   H1742     1.0  0.59045  0.47169  0.80996  1.0000
  C   C2178     1.0  0.51317  0.39042  0.75761  1.0000
  H   H1743     1.0  0.50528  0.20012  0.81275  1.0000
  H   H1744     1.0  0.81589  0.00017  0.75904  1.0000
  C   C2179     1.0  0.89772  0.14016  0.74431  1.0000
  C   C2180     1.0  0.50664  0.21600  0.75594  1.0000
  C   C2181     1.0  0.71205  0.25168  0.74846  1.0000
  C   C2182     1.0  0.66529  0.43892  0.74490  1.0000
  C   C2183     1.0  0.50665  0.36955  0.75538  1.0000
  H   H1745     1.0  0.56686  0.35803  0.74473  1.0000
  H   H1746     1.0  0.81647  0.81364  0.05473  1.0000
  S   S289      1.0  0.74914  0.89098  0.17013  1.0000
  H   H1747     1.0  0.66672  0.91533  0.22191  1.0000
  H   H1748     1.0  0.83952  0.78195  0.11741  1.0000
  H   H1749     1.0  0.75370  0.80521  0.22461  1.0000
  C   C2184     1.0  0.61327  0.64789  0.15809  1.0000
  C   C2185     1.0  0.61600  0.66628  0.11920  1.0000
  S   S290      1.0  0.91414  0.68267  0.21822  1.0000
  C   C2186     1.0  0.76540  0.79322  0.02078  1.0000
  H   H1750     1.0  0.80120  0.80081  0.14271  1.0000
  C   C2187     1.0  0.82080  0.54283  0.22127  1.0000
  Fe  Fe145     1.0  0.88903  0.71333  0.20804  1.0000
  S   S291      1.0  0.88083  0.72403  0.17222  1.0000
  H   H1751     1.0  0.83175  0.85519  0.10052  1.0000
  Fe  Fe146     1.0  0.75479  0.79310  0.10041  1.0000
  S   S292      1.0  0.73807  0.77936  0.13449  1.0000
  S   S293      1.0  0.76368  0.82882  0.09191  1.0000
  Fe  Fe147     1.0  0.75573  0.74943  0.08050  1.0000
  S   S294      1.0  0.73912  0.73185  0.11321  1.0000
  S   S295      1.0  0.76931  0.73025  0.05055  1.0000
  Fe  Fe148     1.0  0.71585  0.76484  0.11547  1.0000
  S   S296      1.0  0.67815  0.76575  0.12866  1.0000
  Fe  Fe149     1.0  0.76263  0.74757  0.12984  1.0000
  S   S297      1.0  0.77619  0.72823  0.16113  1.0000
  S   S298      1.0  0.73035  0.78140  0.08124  1.0000
  S   S299      1.0  0.78148  0.76246  0.09708  1.0000
  C   C2188     1.0  0.60086  0.65250  0.11465  1.0000
  H   H1752     1.0  0.79572  0.89437  0.14830  1.0000
  H   H1753     1.0  0.58516  0.72336  0.20152  1.0000
  H   H1754     1.0  0.68956  0.81122  0.10840  1.0000
  H   H1755     1.0  0.78323  0.77338  0.17190  1.0000
  C   C2189     1.0  0.67449  0.75373  0.15727  1.0000
  C   C2190     1.0  0.65244  0.75350  0.16956  1.0000
  C   C2191     1.0  0.64962  0.74361  0.19239  1.0000
  C   C2192     1.0  0.66892  0.73435  0.20297  1.0000
  C   C2193     1.0  0.69087  0.73482  0.19074  1.0000
  C   C2194     1.0  0.69365  0.74414  0.16787  1.0000
  H   H1756     1.0  0.63759  0.76097  0.16143  1.0000
  H   H1757     1.0  0.63259  0.74316  0.20177  1.0000
  H   H1758     1.0  0.70583  0.72777  0.19891  1.0000
  H   H1759     1.0  0.71072  0.74394  0.15852  1.0000
  H   H1760     1.0  0.82226  0.90767  0.16947  1.0000
  C   C2195     1.0  0.76609  0.72492  0.00695  1.0000
  C   C2196     1.0  0.75502  0.73421  0.02645  1.0000
  C   C2197     1.0  0.73321  0.74690  0.02615  1.0000
  C   C2198     1.0  0.72276  0.75059  0.00632  1.0000
  H   H1761     1.0  0.72449  0.75404  0.04110  1.0000
  H   H1762     1.0  0.83439  0.53037  0.21475  1.0000
  C   C2199     1.0  0.85180  0.72524  0.16879  1.0000
  C   C2200     1.0  0.83608  0.71692  0.18667  1.0000
  C   C2201     1.0  0.81300  0.71820  0.18401  1.0000
  C   C2202     1.0  0.80540  0.72738  0.16333  1.0000
  C   C2203     1.0  0.82106  0.73563  0.14522  1.0000
  C   C2204     1.0  0.84428  0.73454  0.14797  1.0000
  H   H1763     1.0  0.84165  0.70921  0.20251  1.0000
  H   H1764     1.0  0.80096  0.71218  0.19810  1.0000
  H   H1765     1.0  0.81533  0.74278  0.12917  1.0000
  H   H1766     1.0  0.85641  0.74083  0.13397  1.0000
  C   C2205     1.0  0.75439  0.87262  0.14924  1.0000
  C   C2206     1.0  0.75629  0.84885  0.15464  1.0000
  C   C2207     1.0  0.75910  0.83505  0.13723  1.0000
  C   C2208     1.0  0.76070  0.84499  0.11446  1.0000
  C   C2209     1.0  0.75964  0.86866  0.10924  1.0000
  C   C2210     1.0  0.75607  0.88240  0.12653  1.0000
  H   H1767     1.0  0.75511  0.84113  0.17215  1.0000
  H   H1768     1.0  0.76007  0.81679  0.14145  1.0000
  H   H1769     1.0  0.76091  0.87644  0.09173  1.0000
  H   H1770     1.0  0.75464  0.90073  0.12226  1.0000
  H   H1771     1.0  0.85810  0.88276  0.17801  1.0000
  H   H1772     1.0  0.86937  0.77495  0.15067  1.0000
  H   H1773     1.0  0.92674  0.82654  0.11629  1.0000
  C   C2211     1.0  0.74140  0.95092  0.20250  1.0000
  H   H1774     1.0  0.81876  0.85172  0.06465  1.0000
  C   C2212     1.0  0.68965  0.83690  0.15500  1.0000
  H   H1775     1.0  0.64328  0.85444  0.21118  1.0000
  C   C2213     1.0  0.67013  0.89903  0.21557  1.0000
  C   C2214     1.0  0.62281  0.66362  0.14080  1.0000
  P   P75       1.0  0.64112  0.68239  0.14705  1.0000
  C   C2215     1.0  0.65720  0.66807  0.16945  1.0000
  C   C2216     1.0  0.66194  0.68930  0.12260  1.0000
  C   C2217     1.0  0.66969  0.71064  0.11846  1.0000
  C   C2218     1.0  0.68507  0.71637  0.09907  1.0000
  C   C2219     1.0  0.69337  0.70058  0.08398  1.0000
  C   C2220     1.0  0.68644  0.67892  0.08844  1.0000
  C   C2221     1.0  0.67089  0.67322  0.10774  1.0000
  C   C2222     1.0  0.66006  0.67953  0.18716  1.0000
  C   C2223     1.0  0.67065  0.66775  0.20547  1.0000
  H   H1776     1.0  0.82879  0.61403  0.22047  1.0000
  H   H1777     1.0  0.63582  0.89088  0.22653  1.0000
  C   C2224     1.0  0.66657  0.64505  0.16957  1.0000
  C   C2225     1.0  0.62142  0.70672  0.15555  1.0000
  C   C2226     1.0  0.60966  0.70573  0.17773  1.0000
  C   C2227     1.0  0.59389  0.72415  0.18430  1.0000
  C   C2228     1.0  0.58920  0.74349  0.16869  1.0000
  C   C2229     1.0  0.60014  0.74431  0.14635  1.0000
  C   C2230     1.0  0.61602  0.72591  0.13972  1.0000
  H   H1778     1.0  0.61728  0.64641  0.17521  1.0000
  H   H1779     1.0  0.66381  0.72291  0.13017  1.0000
  H   H1780     1.0  0.69070  0.73307  0.09584  1.0000
  H   H1781     1.0  0.70542  0.70508  0.06903  1.0000
  H   H1782     1.0  0.69314  0.66660  0.07685  1.0000
  H   H1783     1.0  0.66577  0.65635  0.11095  1.0000
  H   H1784     1.0  0.65387  0.69748  0.18709  1.0000
  H   H1785     1.0  0.70595  0.76056  0.00612  1.0000
  C   C2231     1.0  0.84629  0.50011  0.17958  1.0000
  H   H1786     1.0  0.66504  0.63600  0.15583  1.0000
  H   H1787     1.0  0.61255  0.69072  0.19004  1.0000
  H   H1788     1.0  0.78292  0.71503  0.00710  1.0000
  H   H1789     1.0  0.57689  0.75768  0.17392  1.0000
  H   H1790     1.0  0.59637  0.75922  0.13417  1.0000
  H   H1791     1.0  0.62390  0.72674  0.12222  1.0000
  H   H1792     1.0  0.71120  0.67625  0.23066  1.0000
  S   S300      1.0  0.90584  0.73746  0.22272  1.0000
  H   H1793     1.0  0.73390  0.75676  0.18884  1.0000
  C   C2232     1.0  0.65826  0.80079  0.21436  1.0000
  C   C2233     1.0  0.74123  0.63304  0.21655  1.0000
  C   C2234     1.0  0.73742  0.61763  0.20269  1.0000
  P   P76       1.0  0.75454  0.65806  0.20423  1.0000
  C   C2235     1.0  0.74749  0.67939  0.22342  1.0000
  C   C2236     1.0  0.78537  0.65091  0.19918  1.0000
  C   C2237     1.0  0.79647  0.63251  0.21250  1.0000
  C   C2238     1.0  0.82044  0.62791  0.20963  1.0000
  C   C2239     1.0  0.83352  0.64189  0.19363  1.0000
  C   C2240     1.0  0.82258  0.66035  0.18034  1.0000
  C   C2241     1.0  0.79860  0.66487  0.18311  1.0000
  H   H1794     1.0  0.72099  0.83309  0.21422  1.0000
  S   S301      1.0  0.54806  0.72988  0.23643  1.0000
  S   S302      1.0  0.83925  0.85299  0.22361  1.0000
  C   C2242     1.0  0.72653  0.59860  0.21212  1.0000
  C   C2243     1.0  0.74053  0.51593  0.23271  1.0000
  C   C2244     1.0  0.74374  0.66793  0.17753  1.0000
  C   C2245     1.0  0.72285  0.68237  0.17657  1.0000
  C   C2246     1.0  0.71380  0.68848  0.15613  1.0000
  C   C2247     1.0  0.72551  0.68018  0.13652  1.0000
  C   C2248     1.0  0.74634  0.66589  0.13722  1.0000
  C   C2249     1.0  0.75536  0.65962  0.15765  1.0000
  C   C2250     1.0  0.74230  0.80094  0.21413  1.0000
  C   C2251     1.0  0.67919  0.64467  0.20589  1.0000
  H   H1795     1.0  0.60802  0.81230  0.17853  1.0000
  C   C2252     1.0  0.87981  0.56232  0.21130  1.0000
  H   H1796     1.0  0.74258  0.62042  0.18458  1.0000
  H   H1797     1.0  0.78442  0.84434  0.01664  1.0000
  C   C2253     1.0  0.72430  0.96392  0.21552  1.0000
  H   H1798     1.0  0.85209  0.63877  0.19187  1.0000
  H   H1799     1.0  0.83264  0.67159  0.16827  1.0000
  H   H1800     1.0  0.79041  0.67965  0.17314  1.0000
  H   H1801     1.0  0.96870  0.77117  0.23530  1.0000
  C   C2254     1.0  0.78705  0.99356  0.24172  1.0000
  S   S303      1.0  0.96715  0.70667  0.23224  1.0000
  H   H1802     1.0  0.84884  0.51893  0.14594  1.0000
  H   H1803     1.0  0.71342  0.68889  0.19151  1.0000
  H   H1804     1.0  0.69785  0.69991  0.15546  1.0000
  H   H1805     1.0  0.71875  0.68526  0.12063  1.0000
  H   H1806     1.0  0.75562  0.65989  0.12185  1.0000
  H   H1807     1.0  0.77133  0.64819  0.15788  1.0000
  H   H1808     1.0  0.59085  0.62203  0.16693  1.0000
  C   C2255     1.0  0.75243  0.98544  0.17963  1.0000
  H   H1809     1.0  0.91030  0.76003  0.14613  1.0000
  H   H1810     1.0  0.89729  0.52445  0.24044  1.0000
  H   H1811     1.0  0.70469  0.84658  0.08927  1.0000
  C   C2256     1.0  0.78569  0.57562  0.23693  1.0000
  H   H1812     1.0  0.85222  0.80315  0.18548  1.0000
  Fe  Fe150     1.0  0.76034  0.87828  0.20429  1.0000
  C   C2257     1.0  0.69193  0.89183  0.20463  1.0000
  C   C2258     1.0  0.70262  0.86078  0.12028  1.0000
  C   C2259     1.0  0.70885  0.81131  0.19436  1.0000
  S   S304      1.0  0.78534  0.89832  0.21353  1.0000
  H   H1813     1.0  0.70040  0.87026  0.15310  1.0000
  H   H1814     1.0  0.60612  0.78468  0.21377  1.0000
  C   C2260     1.0  0.72109  0.98768  0.21055  1.0000
  C   C2261     1.0  0.65718  0.86445  0.20949  1.0000
  H   H1815     1.0  0.78667  0.62233  0.22573  1.0000
  H   H1816     1.0  0.68043  0.80476  0.14983  1.0000
  H   H1817     1.0  0.71375  0.95551  0.22969  1.0000
  Fe  Fe151     1.0  0.92885  0.70645  0.23561  1.0000
  C   C2262     1.0  0.78281  0.56384  0.21961  1.0000
  C   C2263     1.0  0.65278  0.88527  0.21815  1.0000
  C   C2264     1.0  0.80039  0.54747  0.21173  1.0000
  H   H1818     1.0  0.87775  0.81834  0.21743  1.0000
  C   C2265     1.0  0.67745  0.63338  0.18779  1.0000
  C   C2266     1.0  0.69755  0.85721  0.14389  1.0000
  H   H1819     1.0  0.80038  0.75940  0.20722  1.0000
  C   C2267     1.0  0.62088  0.79372  0.20850  1.0000
  H   H1820     1.0  0.90338  0.61112  0.19155  1.0000
  C   C2268     1.0  0.76962  0.81332  0.02727  1.0000
  H   H1821     1.0  0.59579  0.65454  0.09790  1.0000
  C   C2269     1.0  0.71268  0.78948  0.18770  1.0000
  H   H1822     1.0  0.88542  0.84186  0.12078  1.0000
  H   H1823     1.0  0.80477  0.85646  0.13561  1.0000
  H   H1824     1.0  0.70136  0.78467  0.17752  1.0000
  C   C2270     1.0  0.59810  0.63417  0.15351  1.0000
  H   H1825     1.0  0.62221  0.67913  0.10592  1.0000
  H   H1826     1.0  0.86782  0.84516  0.16485  1.0000
  C   C2271     1.0  0.75393  0.49817  0.22218  1.0000
  H   H1827     1.0  0.79813  0.53831  0.19831  1.0000
  H   H1828     1.0  0.93933  0.78561  0.12891  1.0000
  C   C2272     1.0  0.82856  0.79548  0.08522  1.0000
  C   C2273     1.0  0.82247  0.81508  0.07041  1.0000
  C   C2274     1.0  0.82370  0.83654  0.07606  1.0000
  C   C2275     1.0  0.83063  0.83844  0.09669  1.0000
  C   C2276     1.0  0.83564  0.81886  0.11216  1.0000
  C   C2277     1.0  0.83518  0.79733  0.10598  1.0000
  P   P77       1.0  0.84417  0.82062  0.13917  1.0000
  C   C2278     1.0  0.83791  0.84873  0.14762  1.0000
  C   C2279     1.0  0.82870  0.80317  0.16153  1.0000
  C   C2280     1.0  0.83716  0.79676  0.18235  1.0000
  C   C2281     1.0  0.82676  0.78127  0.19898  1.0000
  C   C2282     1.0  0.80761  0.77248  0.19503  1.0000
  C   C2283     1.0  0.79815  0.78007  0.17498  1.0000
  C   C2284     1.0  0.80858  0.79547  0.15828  1.0000
  C   C2285     1.0  0.85258  0.85613  0.16017  1.0000
  C   C2286     1.0  0.84708  0.87745  0.16775  1.0000
  C   C2287     1.0  0.82677  0.89138  0.16316  1.0000
  C   C2288     1.0  0.81179  0.88386  0.15126  1.0000
  C   C2289     1.0  0.81711  0.86245  0.14387  1.0000
  C   C2290     1.0  0.87438  0.80980  0.13682  1.0000
  C   C2291     1.0  0.89077  0.82410  0.12676  1.0000
  C   C2292     1.0  0.91416  0.81545  0.12410  1.0000
  C   C2293     1.0  0.92127  0.79241  0.13116  1.0000
  C   C2294     1.0  0.90499  0.77800  0.14086  1.0000
  C   C2295     1.0  0.88165  0.78661  0.14356  1.0000
  H   H1829     1.0  0.82768  0.77883  0.08082  1.0000
  H   H1830     1.0  0.70936  0.87616  0.11192  1.0000
  H   H1831     1.0  0.91479  0.80279  0.17977  1.0000
  H   H1832     1.0  0.76325  0.99350  0.16546  1.0000
  S   S305      1.0  0.66649  0.72124  0.23117  1.0000
  H   H1833     1.0  0.78250  0.68597  0.22162  1.0000
  C   C2296     1.0  0.69995  0.84416  0.10749  1.0000
  H   H1834     1.0  0.68703  0.63558  0.22033  1.0000
  C   C2297     1.0  0.89344  0.59915  0.20274  1.0000
  H   H1835     1.0  0.83399  0.77576  0.21462  1.0000
  C   C2298     1.0  0.68657  0.82053  0.14189  1.0000
  H   H1836     1.0  0.75961  0.76663  0.21287  1.0000
  C   C2299     1.0  0.75546  0.96165  0.18456  1.0000
  C   C2300     1.0  0.73481  0.62857  0.24005  1.0000
  C   C2301     1.0  0.59201  0.63637  0.13176  1.0000
  H   H1837     1.0  0.88144  0.62208  0.22759  1.0000
  C   C2302     1.0  0.74569  0.77920  0.20759  1.0000
  C   C2303     1.0  0.72369  0.81685  0.20796  1.0000
  H   H1838     1.0  0.70538  0.90259  0.20225  1.0000
  C   C2304     1.0  0.69165  0.82416  0.11829  1.0000
  H   H1839     1.0  0.91683  0.82404  0.21098  1.0000
  C   C2305     1.0  0.65963  0.81621  0.19430  1.0000
  H   H1840     1.0  0.58015  0.62583  0.12827  1.0000
  H   H1841     1.0  0.70736  0.99731  0.22055  1.0000
  C   C2306     1.0  0.92690  0.79620  0.19164  1.0000
  C   C2307     1.0  0.63902  0.78955  0.22137  1.0000
  H   H1842     1.0  0.78900  0.93948  0.22987  1.0000
  P   P78       1.0  0.68444  0.83097  0.18567  1.0000
  C   C2308     1.0  0.62197  0.80927  0.18863  1.0000
  C   C2309     1.0  0.64122  0.82061  0.18159  1.0000
  H   H1843     1.0  0.64179  0.83265  0.16619  1.0000
  S   S306      1.0  0.77865  0.84432  0.21702  1.0000
  H   H1844     1.0  0.76864  0.95144  0.17447  1.0000
  C   C2310     1.0  0.73098  0.77351  0.19428  1.0000
  C   C2311     1.0  0.94107  0.77551  0.18937  1.0000
  C   C2312     1.0  0.95637  0.76678  0.20492  1.0000
  H   H1845     1.0  0.76692  0.56731  0.21239  1.0000
  H   H1846     1.0  0.90188  0.57314  0.18079  1.0000
  H   H1847     1.0  0.96708  0.75053  0.20339  1.0000
  H   H1848     1.0  0.71350  0.86548  0.18805  1.0000
  C   C2313     1.0  0.92789  0.80806  0.20958  1.0000
  C   C2314     1.0  0.69650  0.87079  0.19647  1.0000
  H   H1849     1.0  0.74379  0.93251  0.20639  1.0000
  C   C2315     1.0  0.67914  0.85703  0.19848  1.0000
  H   H1850     1.0  0.93987  0.76595  0.17590  1.0000
  Fe  Fe152     1.0  0.80146  0.86455  0.22930  1.0000
  H   H1851     1.0  0.97810  0.83060  0.21489  1.0000
  C   C2316     1.0  0.79458  0.97375  0.23153  1.0000
  C   C2317     1.0  0.86825  0.59000  0.23755  1.0000
  C   C2318     1.0  0.82363  0.55431  0.23900  1.0000
  C   C2319     1.0  0.94274  0.79901  0.22564  1.0000
  H   H1852     1.0  0.77210  0.58841  0.24298  1.0000
  C   C2320     1.0  0.95720  0.77845  0.22301  1.0000
  C   C2321     1.0  0.89264  0.57771  0.19677  1.0000
  H   H1853     1.0  0.95342  0.86078  0.24318  1.0000
  S   S307      1.0  0.86326  0.70695  0.23898  1.0000
  H   H1854     1.0  0.83625  0.94004  0.23759  1.0000
  H   H1855     1.0  0.88662  0.77954  0.23802  1.0000
  H   H1856     1.0  0.75652  0.78124  0.03303  1.0000
  H   H1857     1.0  0.87893  0.54602  0.20617  1.0000
  H   H1858     1.0  0.67203  0.67652  0.21946  1.0000
  C   C2322     1.0  0.86513  0.81133  0.23040  1.0000
  S   S308      1.0  0.73598  0.88092  0.23651  1.0000
  H   H1859     1.0  0.76386  0.81694  0.04449  1.0000
  C   C2323     1.0  0.78128  0.82870  0.01157  1.0000
  C   C2324     1.0  0.76488  0.68997  0.22899  1.0000
  C   C2325     1.0  0.88115  0.60531  0.22307  1.0000
  H   H1860     1.0  0.67212  0.79726  0.22453  1.0000
  C   C2326     1.0  0.83841  0.50888  0.15891  1.0000
  H   H1861     1.0  0.68417  0.61549  0.18810  1.0000
  C   C2327     1.0  0.86801  0.56813  0.23212  1.0000
  C   C2328     1.0  0.71963  0.59467  0.23547  1.0000
  H   H1862     1.0  0.72332  0.58695  0.20135  1.0000
  H   H1863     1.0  0.86281  0.50343  0.18268  1.0000
  C   C2329     1.0  0.81698  0.50484  0.15501  1.0000
  H   H1864     1.0  0.78283  0.77272  0.24209  1.0000
  H   H1865     1.0  0.81077  0.51182  0.13906  1.0000
  C   C2330     1.0  0.72491  0.68446  0.23418  1.0000
  C   C2331     1.0  0.77286  0.78837  0.99865  1.0000
  C   C2332     1.0  0.84409  0.82457  0.23608  1.0000
  C   C2333     1.0  0.98582  0.82541  0.23030  1.0000
  H   H1866     1.0  0.80978  0.97304  0.21904  1.0000
  H   H1867     1.0  0.72367  0.52268  0.22811  1.0000
  H   H1868     1.0  0.82035  0.74742  0.24281  1.0000
  H   H1869     1.0  0.63844  0.77730  0.23661  1.0000
  H   H1870     1.0  0.71099  0.58007  0.24291  1.0000
  C   C2334     1.0  0.86999  0.78928  0.24184  1.0000
  H   H1871     1.0  0.92811  0.89753  0.24215  1.0000
  H   H1872     1.0  0.83657  0.89883  0.23645  1.0000
  H   H1873     1.0  0.60299  0.83564  0.23451  1.0000
  C   C2335     1.0  0.78278  0.95471  0.23760  1.0000
  H   H1874     1.0  0.76945  0.77264  0.99400  1.0000
  C   C2336     1.0  0.81443  0.83381  0.31912  1.0000
  H   H1875     1.0  0.69473  0.81387  0.26849  1.0000
  H   H1876     1.0  0.56881  0.71656  0.37249  1.0000
  C   C2337     1.0  0.99410  0.63462  0.35981  1.0000
  H   H1877     1.0  0.92132  0.77074  0.25837  1.0000
  S   S309      1.0  0.74883  0.93116  0.26265  1.0000
  C   C2338     1.0  0.99182  0.65917  0.38862  1.0000
  S   S310      1.0  0.74090  0.81785  0.26953  1.0000
  S   S311      1.0  0.78078  0.86677  0.26358  1.0000
  S   S312      1.0  0.90632  0.69947  0.26869  1.0000
  Fe  Fe153     1.0  0.76052  0.54887  0.32064  1.0000
  S   S313      1.0  0.75207  0.56820  0.28760  1.0000
  Fe  Fe154     1.0  0.73663  0.58756  0.34674  1.0000
  S   S314      1.0  0.72549  0.60976  0.31580  1.0000
  S   S315      1.0  0.72698  0.59697  0.38209  1.0000
  Fe  Fe155     1.0  0.71724  0.57769  0.30635  1.0000
  S   S316      1.0  0.68690  0.57367  0.29027  1.0000
  Fe  Fe156     1.0  0.76142  0.59856  0.29966  1.0000
  S   S317      1.0  0.77817  0.62469  0.27408  1.0000
  S   S318      1.0  0.72496  0.55617  0.33881  1.0000
  S   S319      1.0  0.77327  0.57854  0.33134  1.0000
  Fe  Fe157     1.0  0.71910  0.76728  0.39691  1.0000
  S   S320      1.0  0.68546  0.77168  0.41980  1.0000
  S   S321      1.0  0.73436  0.79772  0.37658  1.0000
  Fe  Fe158     1.0  0.72830  0.71674  0.41266  1.0000
  S   S322      1.0  0.69563  0.71691  0.43669  1.0000
  S   S323      1.0  0.75394  0.68467  0.41197  1.0000
  Fe  Fe159     1.0  0.67977  0.73945  0.40836  1.0000
  S   S324      1.0  0.64370  0.73439  0.40554  1.0000
  Fe  Fe160     1.0  0.70370  0.74891  0.44657  1.0000
  C   C2339     1.0  0.99717  0.67641  0.31615  1.0000
  S   S325      1.0  0.71199  0.73666  0.38317  1.0000
  S   S326      1.0  0.73786  0.74715  0.42481  1.0000
  Fe  Fe161     1.0  0.60219  0.73498  0.29193  1.0000
  S   S327      1.0  0.57602  0.71219  0.29160  1.0000
  S   S328      1.0  0.59540  0.75980  0.31726  1.0000
  H   H1878     1.0  0.84169  0.55686  0.34423  1.0000
  Fe  Fe162     1.0  0.88200  0.72864  0.25439  1.0000
  H   H1879     1.0  0.54739  0.60278  0.36608  1.0000
  C   C2340     1.0  0.86246  0.56224  0.31165  1.0000
  S   S329      1.0  0.60354  0.74818  0.25495  1.0000
  S   S330      1.0  0.63181  0.70720  0.28807  1.0000
  C   C2341     1.0  0.52215  0.73387  0.25503  1.0000
  C   C2342     1.0  0.52209  0.74061  0.27617  1.0000
  H   H1880     1.0  0.69629  0.89676  0.27993  1.0000
  H   H1881     1.0  0.95209  0.62245  0.40342  1.0000
  H   H1882     1.0  0.53767  0.74461  0.28069  1.0000
  C   C2343     1.0  0.63190  0.74271  0.38011  1.0000
  C   C2344     1.0  0.64385  0.73737  0.35925  1.0000
  C   C2345     1.0  0.63281  0.74220  0.33971  1.0000
  C   C2346     1.0  0.61015  0.75327  0.34097  1.0000
  C   C2347     1.0  0.59866  0.75942  0.36163  1.0000
  C   C2348     1.0  0.60928  0.75365  0.38121  1.0000
  H   H1883     1.0  0.66139  0.72922  0.35829  1.0000
  H   H1884     1.0  0.64185  0.73747  0.32378  1.0000
  H   H1885     1.0  0.58123  0.76805  0.36266  1.0000
  H   H1886     1.0  0.59996  0.75775  0.39729  1.0000
  C   C2349     1.0  0.82977  0.70091  0.31943  1.0000
  C   C2350     1.0  0.82633  0.54714  0.31789  1.0000
  C   C2351     1.0  0.61187  0.67827  0.39263  1.0000
  C   C2352     1.0  0.66375  0.59576  0.29182  1.0000
  C   C2353     1.0  0.66706  0.61856  0.29072  1.0000
  C   C2354     1.0  0.64800  0.63569  0.29226  1.0000
  C   C2355     1.0  0.62574  0.62982  0.29619  1.0000
  C   C2356     1.0  0.62250  0.60712  0.29700  1.0000
  C   C2357     1.0  0.64146  0.59022  0.29425  1.0000
  H   H1887     1.0  0.68420  0.62303  0.28863  1.0000
  H   H1888     1.0  0.65044  0.65333  0.29119  1.0000
  H   H1889     1.0  0.73505  0.51891  0.30467  1.0000
  H   H1890     1.0  0.63884  0.57267  0.29491  1.0000
  C   C2358     1.0  0.73595  0.62179  0.38795  1.0000
  C   C2359     1.0  0.72557  0.64353  0.37974  1.0000
  C   C2360     1.0  0.73065  0.66306  0.38721  1.0000
  C   C2361     1.0  0.74660  0.66086  0.40240  1.0000
  C   C2362     1.0  0.75745  0.63918  0.41000  1.0000
  C   C2363     1.0  0.75180  0.61970  0.40319  1.0000
  H   H1891     1.0  0.71322  0.64515  0.36810  1.0000
  H   H1892     1.0  0.72245  0.67979  0.38115  1.0000
  H   H1893     1.0  0.76992  0.63743  0.42158  1.0000
  H   H1894     1.0  0.75967  0.60298  0.40979  1.0000
  C   C2364     1.0  0.85168  0.63956  0.27130  1.0000
  H   H1895     1.0  0.00169  0.62916  0.34365  1.0000
  C   C2365     1.0  0.99369  0.74391  0.28120  1.0000
  C   C2366     1.0  0.80613  0.63062  0.27446  1.0000
  C   C2367     1.0  0.82087  0.61732  0.28878  1.0000
  C   C2368     1.0  0.84361  0.62187  0.28724  1.0000
  P   P79       1.0  0.94328  0.81299  0.24988  1.0000
  H   H1896     1.0  0.66841  0.68138  0.44074  1.0000
  H   H1897     1.0  0.81489  0.60339  0.30076  1.0000
  H   H1898     1.0  0.85507  0.61150  0.29816  1.0000
  C   C2369     1.0  0.96193  0.73043  0.26869  1.0000
  H   H1899     1.0  0.94396  0.72840  0.27095  1.0000
  H   H1900     1.0  0.95881  0.74820  0.29774  1.0000
  C   C2370     1.0  0.74041  0.81136  0.29914  1.0000
  C   C2371     1.0  0.72910  0.79327  0.31102  1.0000
  C   C2372     1.0  0.72729  0.78863  0.33478  1.0000
  C   C2373     1.0  0.73688  0.80203  0.34676  1.0000
  C   C2374     1.0  0.74871  0.81962  0.33482  1.0000
  C   C2375     1.0  0.75041  0.82438  0.31114  1.0000
  H   H1901     1.0  0.72119  0.78316  0.30194  1.0000
  H   H1902     1.0  0.71820  0.77497  0.34383  1.0000
  H   H1903     1.0  0.75652  0.82961  0.34404  1.0000
  H   H1904     1.0  0.75920  0.83829  0.30225  1.0000
  H   H1905     1.0  0.86991  0.65420  0.31325  1.0000
  C   C2376     1.0  0.00020  0.72422  0.24810  1.0000
  C   C2377     1.0  0.83220  0.79325  0.26377  1.0000
  C   C2378     1.0  0.86454  0.56051  0.28855  1.0000
  H   H1906     1.0  0.81939  0.78631  0.27669  1.0000
  H   H1907     1.0  0.77346  0.71347  0.24877  1.0000
  C   C2379     1.0  0.73050  0.61700  0.48066  1.0000
  C   C2380     1.0  0.75539  0.97534  0.26376  1.0000
  H   H1908     1.0  0.74028  0.97597  0.27635  1.0000
  S   S331      1.0  0.88075  0.64370  0.26820  1.0000
  H   H1909     1.0  0.73346  0.72256  0.26730  1.0000
  C   C2381     1.0  0.69636  0.86195  0.29567  1.0000
  C   C2382     1.0  0.85107  0.84768  0.30672  1.0000
  H   H1910     1.0  0.89496  0.68058  0.32077  1.0000
  H   H1911     1.0  0.69905  0.74712  0.25016  1.0000
  C   C2383     1.0  0.74513  0.89452  0.31686  1.0000
  C   C2384     1.0  0.73592  0.88404  0.33795  1.0000
  C   C2385     1.0  0.75050  0.87294  0.35345  1.0000
  C   C2386     1.0  0.77431  0.87193  0.34768  1.0000
  C   C2387     1.0  0.78370  0.88220  0.32638  1.0000
  C   C2388     1.0  0.76892  0.89374  0.31112  1.0000
  P   P80       1.0  0.81450  0.88061  0.31920  1.0000
  C   C2389     1.0  0.82459  0.89011  0.34242  1.0000
  C   C2390     1.0  0.81167  0.90838  0.35277  1.0000
  C   C2391     1.0  0.81905  0.91585  0.37085  1.0000
  C   C2392     1.0  0.83932  0.90506  0.37890  1.0000
  C   C2393     1.0  0.85217  0.88674  0.36890  1.0000
  C   C2394     1.0  0.84484  0.87923  0.35078  1.0000
  C   C2395     1.0  0.82164  0.89953  0.29338  1.0000
  C   C2396     1.0  0.82096  0.92301  0.29375  1.0000
  C   C2397     1.0  0.82633  0.93751  0.27369  1.0000
  C   C2398     1.0  0.84332  0.55562  0.32631  1.0000
  H   H1912     1.0  0.87985  0.56509  0.27764  1.0000
  C   C2399     1.0  0.82724  0.89099  0.27250  1.0000
  H   H1913     1.0  0.73385  0.90328  0.30486  1.0000
  H   H1914     1.0  0.71749  0.88441  0.34226  1.0000
  H   H1915     1.0  0.79610  0.75960  0.31975  1.0000
  H   H1916     1.0  0.77564  0.90215  0.29476  1.0000
  H   H1917     1.0  0.79615  0.83656  0.32458  1.0000
  H   H1918     1.0  0.79581  0.91688  0.34687  1.0000
  H   H1919     1.0  0.80900  0.92999  0.37866  1.0000
  H   H1920     1.0  0.84500  0.91083  0.39295  1.0000
  H   H1921     1.0  0.85498  0.86485  0.34363  1.0000
  H   H1922     1.0  0.81598  0.93031  0.30934  1.0000
  H   H1923     1.0  0.51495  0.74619  0.39551  1.0000
  S   S332      1.0  0.69455  0.75296  0.48387  1.0000
  C   C2400     1.0  0.74260  0.50130  0.30451  1.0000
  H   H1924     1.0  0.82717  0.87313  0.27146  1.0000
  H   H1925     1.0  0.71633  0.78221  0.24958  1.0000
  H   H1926     1.0  0.58111  0.69663  0.40874  1.0000
  H   H1927     1.0  0.67856  0.58072  0.34533  1.0000
  H   H1928     1.0  0.74220  0.76102  0.47597  1.0000
  C   C2401     1.0  0.77149  0.74051  0.29308  1.0000
  H   H1929     1.0  0.82895  0.66710  0.31117  1.0000
  H   H1930     1.0  0.78541  0.86289  0.35972  1.0000
  H   H1931     1.0  0.75644  0.62946  0.33652  1.0000
  C   C2402     1.0  0.84683  0.50261  0.25707  1.0000
  H   H1932     1.0  0.87943  0.82241  0.29692  1.0000
  H   H1933     1.0  0.52555  0.67296  0.25916  1.0000
  C   C2403     1.0  0.75161  0.60958  0.46843  1.0000
  C   C2404     1.0  0.76938  0.63670  0.48326  1.0000
  S   S333      1.0  0.60170  0.65024  0.30145  1.0000
  C   C2405     1.0  0.51568  0.67901  0.32337  1.0000
  C   C2406     1.0  0.78471  0.68500  0.32586  1.0000
  C   C2407     1.0  0.76435  0.64488  0.33340  1.0000
  C   C2408     1.0  0.68491  0.62794  0.42675  1.0000
  C   C2409     1.0  0.54388  0.66349  0.38217  1.0000
  H   H1934     1.0  0.80223  0.66950  0.35453  1.0000
  H   H1935     1.0  0.77783  0.72533  0.39949  1.0000
  H   H1936     1.0  0.80057  0.73047  0.45432  1.0000
  H   H1937     1.0  0.57025  0.64872  0.40285  1.0000
  H   H1938     1.0  0.90286  0.75013  0.29300  1.0000
  H   H1939     1.0  0.78521  0.70089  0.36991  1.0000
  C   C2410     1.0  0.99277  0.67807  0.29384  1.0000
  C   C2411     1.0  0.92095  0.77704  0.27428  1.0000
  C   C2412     1.0  0.79061  0.71527  0.48854  1.0000
  H   H1940     1.0  0.76597  0.69396  0.29697  1.0000
  C   C2413     1.0  0.79125  0.72817  0.34233  1.0000
  H   H1941     1.0  0.81454  0.79800  0.31832  1.0000
  H   H1942     1.0  0.61673  0.66945  0.40857  1.0000
  C   C2414     1.0  0.82481  0.81180  0.31564  1.0000
  S   S334      1.0  0.77906  0.51282  0.32122  1.0000
  P   P81       1.0  0.79925  0.71000  0.32029  1.0000
  H   H1943     1.0  0.53662  0.76835  0.36309  1.0000
  H   H1944     1.0  0.75801  0.73931  0.30742  1.0000
  H   H1945     1.0  0.69472  0.61180  0.43239  1.0000
  C   C2415     1.0  0.78681  0.76579  0.35416  1.0000
  C   C2416     1.0  0.77580  0.70753  0.45598  1.0000
  H   H1946     1.0  0.59222  0.70909  0.33613  1.0000
  H   H1947     1.0  0.75100  0.68425  0.46233  1.0000
  H   H1948     1.0  0.89385  0.82564  0.25463  1.0000
  H   H1949     1.0  0.97470  0.80034  0.28496  1.0000
  C   C2417     1.0  0.66891  0.75775  0.27282  1.0000
  C   C2418     1.0  0.65694  0.77527  0.28458  1.0000
  C   C2419     1.0  0.66609  0.79569  0.28324  1.0000
  C   C2420     1.0  0.68746  0.79821  0.27024  1.0000
  P   P82       1.0  0.64945  0.81854  0.29726  1.0000
  C   C2421     1.0  0.62267  0.82279  0.28576  1.0000
  C   C2422     1.0  0.64677  0.81019  0.32752  1.0000
  C   C2423     1.0  0.63036  0.82261  0.34195  1.0000
  C   C2424     1.0  0.62877  0.81665  0.36546  1.0000
  C   C2425     1.0  0.64398  0.79870  0.37470  1.0000
  C   C2426     1.0  0.66088  0.78684  0.36046  1.0000
  C   C2427     1.0  0.66225  0.79243  0.33696  1.0000
  C   C2428     1.0  0.62268  0.82971  0.26241  1.0000
  C   C2429     1.0  0.96608  0.63071  0.39351  1.0000
  C   C2430     1.0  0.58282  0.82409  0.26590  1.0000
  C   C2431     1.0  0.58283  0.81669  0.28904  1.0000
  C   C2432     1.0  0.60268  0.81592  0.29894  1.0000
  C   C2433     1.0  0.66369  0.84376  0.29188  1.0000
  C   C2434     1.0  0.65407  0.86431  0.28021  1.0000
  C   C2435     1.0  0.68460  0.84298  0.30010  1.0000
  H   H1950     1.0  0.80807  0.58058  0.25980  1.0000
  C   C2436     1.0  0.88733  0.86211  0.25119  1.0000
  H   H1951     1.0  0.66155  0.74227  0.27343  1.0000
  H   H1952     1.0  0.64032  0.77309  0.29435  1.0000
  C   C2437     1.0  0.69017  0.76038  0.25989  1.0000
  H   H1953     1.0  0.61876  0.83682  0.33502  1.0000
  H   H1954     1.0  0.61579  0.82592  0.37657  1.0000
  H   H1955     1.0  0.64268  0.79385  0.39290  1.0000
  H   H1956     1.0  0.67270  0.77301  0.36769  1.0000
  H   H1957     1.0  0.67551  0.78294  0.32632  1.0000
  C   C2438     1.0  0.85367  0.78040  0.25887  1.0000
  Fe  Fe163     1.0  0.57958  0.72296  0.25428  1.0000
  H   H1958     1.0  0.56774  0.81057  0.29921  1.0000
  H   H1959     1.0  0.60260  0.80876  0.31656  1.0000
  H   H1960     1.0  0.63754  0.86581  0.27451  1.0000
  H   H1961     1.0  0.69202  0.82752  0.30968  1.0000
  H   H1962     1.0  0.86138  0.86150  0.30265  1.0000
  C   C2439     1.0  0.86268  0.67138  0.31626  1.0000
  H   H1963     1.0  0.93603  0.81987  0.29743  1.0000
  C   C2440     1.0  0.69966  0.78036  0.25908  1.0000
  C   C2441     1.0  0.80649  0.74533  0.25659  1.0000
  H   H1964     1.0  0.67280  0.71207  0.49055  1.0000
  Fe  Fe164     1.0  0.75665  0.84855  0.25046  1.0000
  H   H1965     1.0  0.98298  0.68003  0.32930  1.0000
  H   H1966     1.0  0.82879  0.50767  0.26271  1.0000
  H   H1967     1.0  0.75283  0.59650  0.45761  1.0000
  C   C2442     1.0  0.81032  0.72932  0.27553  1.0000
  C   C2443     1.0  0.84419  0.71593  0.32321  1.0000
  C   C2444     1.0  0.86761  0.70861  0.32372  1.0000
  C   C2445     1.0  0.84830  0.80765  0.30803  1.0000
  C   C2446     1.0  0.54134  0.67018  0.28935  1.0000
  H   H1968     1.0  0.82711  0.71937  0.27600  1.0000
  H   H1969     1.0  0.83750  0.73341  0.32538  1.0000
  H   H1970     1.0  0.87867  0.72043  0.32618  1.0000
  P   P83       1.0  0.51172  0.68298  0.35291  1.0000
  H   H1971     1.0  0.78342  0.63492  0.36155  1.0000
  H   H1972     1.0  0.82528  0.95570  0.27395  1.0000
  C   C2447     1.0  0.53787  0.67260  0.31236  1.0000
  C   C2448     1.0  0.88531  0.51210  0.24459  1.0000
  H   H1973     1.0  0.60530  0.60258  0.29985  1.0000
  C   C2449     1.0  0.53179  0.75214  0.36121  1.0000
  H   H1974     1.0  0.71429  0.69945  0.48364  1.0000
  C   C2450     1.0  0.82738  0.81530  0.25236  1.0000
  C   C2451     1.0  0.97618  0.62385  0.37269  1.0000
  C   C2452     1.0  0.55909  0.64555  0.39149  1.0000
  C   C2453     1.0  0.56030  0.62366  0.38578  1.0000
  C   C2454     1.0  0.54621  0.61966  0.37081  1.0000
  C   C2455     1.0  0.79006  0.71885  0.46522  1.0000
  H   H1975     1.0  0.85621  0.79060  0.30507  1.0000
  C   C2456     1.0  0.92915  0.80447  0.29632  1.0000
  H   H1976     1.0  0.74335  0.86454  0.36971  1.0000
  C   C2457     1.0  0.83239  0.92873  0.25313  1.0000
  H   H1977     1.0  0.81094  0.82523  0.25661  1.0000
  C   C2458     1.0  0.51352  0.71867  0.37689  1.0000
  H   H1978     1.0  0.87574  0.56867  0.31819  1.0000
  C   C2459     1.0  0.53097  0.63756  0.36147  1.0000
  H   H1979     1.0  0.80276  0.65896  0.24795  1.0000
  C   C2460     1.0  0.53764  0.74379  0.34042  1.0000
  C   C2461     1.0  0.53152  0.72288  0.33787  1.0000
  C   C2462     1.0  0.92552  0.84039  0.24852  1.0000
  H   H1980     1.0  0.55263  0.66989  0.32139  1.0000
  S   S335      1.0  0.60787  0.69449  0.24641  1.0000
  C   C2463     1.0  0.83261  0.90553  0.25250  1.0000
  H   H1981     1.0  0.77649  0.52259  0.26894  1.0000
  H   H1982     1.0  0.57236  0.60988  0.39274  1.0000
  H   H1983     1.0  0.54366  0.68033  0.38648  1.0000
  C   C2464     1.0  0.52971  0.65965  0.36703  1.0000
  H   H1984     1.0  0.63835  0.83367  0.25173  1.0000
  H   H1985     1.0  0.69033  0.64440  0.45436  1.0000
  H   H1986     1.0  0.90076  0.76379  0.33005  1.0000
  H   H1987     1.0  0.52056  0.63430  0.34945  1.0000
  C   C2465     1.0  0.73734  0.71051  0.25516  1.0000
  C   C2466     1.0  0.76182  0.69290  0.47000  1.0000
  C   C2467     1.0  0.90156  0.84122  0.25173  1.0000
  H   H1988     1.0  0.96596  0.65374  0.41755  1.0000
  H   H1989     1.0  0.54684  0.75356  0.32617  1.0000
  H   H1990     1.0  0.53561  0.71706  0.32151  1.0000
  C   C2468     1.0  0.78599  0.71885  0.36504  1.0000
  C   C2469     1.0  0.68703  0.88212  0.28350  1.0000
  C   C2470     1.0  0.91853  0.79259  0.31602  1.0000
  H   H1991     1.0  0.78644  0.78406  0.35004  1.0000
  C   C2471     1.0  0.58438  0.70452  0.37243  1.0000
  C   C2472     1.0  0.76959  0.68157  0.31144  1.0000
  C   C2473     1.0  0.78164  0.73282  0.38208  1.0000
  H   H1992     1.0  0.91755  0.79862  0.33219  1.0000
  H   H1993     1.0  0.88575  0.89860  0.24723  1.0000
  C   C2474     1.0  0.83935  0.67875  0.31526  1.0000
  C   C2475     1.0  0.97034  0.74159  0.28382  1.0000
  Fe  Fe165     1.0  0.60577  0.68554  0.28409  1.0000
  H   H1994     1.0  0.75142  0.76742  0.27363  1.0000
  H   H1995     1.0  0.74818  0.65870  0.30387  1.0000
  C   C2476     1.0  0.78988  0.66783  0.34376  1.0000
  C   C2477     1.0  0.84706  0.55285  0.27982  1.0000
  H   H1996     1.0  0.71867  0.60648  0.26745  1.0000
  C   C2478     1.0  0.86169  0.51914  0.24995  1.0000
  H   H1997     1.0  0.97001  0.61028  0.36644  1.0000
  H   H1998     1.0  0.81183  0.54134  0.32936  1.0000
  C   C2479     1.0  0.62603  0.67511  0.37208  1.0000
  C   C2480     1.0  0.61845  0.68581  0.35168  1.0000
  P   P84       1.0  0.65274  0.65596  0.37134  1.0000
  C   C2481     1.0  0.66374  0.65175  0.39827  1.0000
  C   C2482     1.0  0.64831  0.62929  0.36340  1.0000
  C   C2483     1.0  0.62609  0.62495  0.36202  1.0000
  C   C2484     1.0  0.62290  0.60472  0.35493  1.0000
  C   C2485     1.0  0.64180  0.58863  0.34930  1.0000
  H   H1999     1.0  0.78737  0.61372  0.46020  1.0000
  C   C2486     1.0  0.66723  0.61318  0.35730  1.0000
  C   C2487     1.0  0.66156  0.67005  0.41075  1.0000
  C   C2488     1.0  0.67053  0.66719  0.43119  1.0000
  H   H2000     1.0  0.86887  0.86247  0.25337  1.0000
  C   C2489     1.0  0.66393  0.59290  0.35041  1.0000
  C   C2490     1.0  0.67527  0.63055  0.40667  1.0000
  C   C2491     1.0  0.67329  0.66926  0.34997  1.0000
  C   C2492     1.0  0.68465  0.68633  0.35486  1.0000
  C   C2493     1.0  0.70023  0.69683  0.33820  1.0000
  C   C2494     1.0  0.70441  0.69056  0.31645  1.0000
  C   C2495     1.0  0.69311  0.67370  0.31134  1.0000
  C   C2496     1.0  0.67759  0.66314  0.32802  1.0000
  C   C2497     1.0  0.59768  0.70040  0.35189  1.0000
  H   H2001     1.0  0.62860  0.68292  0.33559  1.0000
  H   H2002     1.0  0.61120  0.63733  0.36577  1.0000
  H   H2003     1.0  0.60584  0.60188  0.35302  1.0000
  H   H2004     1.0  0.68459  0.61642  0.35756  1.0000
  H   H2005     1.0  0.65305  0.68667  0.40462  1.0000
  H   H2006     1.0  0.71285  0.86087  0.30150  1.0000
  C   C2498     1.0  0.93087  0.79653  0.27534  1.0000
  H   H2007     1.0  0.67765  0.61608  0.39755  1.0000
  H   H2008     1.0  0.68157  0.69163  0.37151  1.0000
  H   H2009     1.0  0.70905  0.70983  0.34224  1.0000
  H   H2010     1.0  0.71649  0.69869  0.30362  1.0000
  H   H2011     1.0  0.69633  0.66875  0.29449  1.0000
  H   H2012     1.0  0.66893  0.65026  0.32373  1.0000
  C   C2499     1.0  0.86138  0.82561  0.30339  1.0000
  S   S336      1.0  0.86034  0.75402  0.27520  1.0000
  C   C2500     1.0  0.91026  0.76528  0.29399  1.0000
  C   C2501     1.0  0.76218  0.68920  0.49351  1.0000
  C   C2502     1.0  0.59138  0.69335  0.39280  1.0000
  H   H2013     1.0  0.63943  0.57318  0.34329  1.0000
  C   C2503     1.0  0.76771  0.75651  0.27407  1.0000
  C   C2504     1.0  0.68258  0.64627  0.43900  1.0000
  C   C2505     1.0  0.89687  0.88241  0.24767  1.0000
  H   H2014     1.0  0.81465  0.53919  0.28865  1.0000
  H   H2015     1.0  0.56755  0.82411  0.25823  1.0000
  C   C2506     1.0  0.66576  0.88338  0.27602  1.0000
  C   C2507     1.0  0.90909  0.77299  0.31485  1.0000
  C   C2508     1.0  0.78538  0.75931  0.25609  1.0000
  C   C2509     1.0  0.82804  0.54592  0.29472  1.0000
  C   C2510     1.0  0.82758  0.85190  0.31504  1.0000
  C   C2511     1.0  0.79309  0.72727  0.29415  1.0000
  C   C2512     1.0  0.79176  0.75183  0.33704  1.0000
  H   H2016     1.0  0.77767  0.76717  0.38992  1.0000
  H   H2017     1.0  0.86778  0.87826  0.37528  1.0000
  C   C2513     1.0  0.75946  0.66156  0.31525  1.0000
  C   C2514     1.0  0.77960  0.64797  0.34757  1.0000
  C   C2515     1.0  0.87679  0.68624  0.32057  1.0000
  C   C2516     1.0  0.78183  0.75627  0.37669  1.0000
  H   H2018     1.0  0.97540  0.68296  0.28980  1.0000
  H   H2019     1.0  0.70248  0.70353  0.25832  1.0000
  H   H2020     1.0  0.77555  0.71000  0.43791  1.0000
  Fe  Fe166     1.0  0.76221  0.89904  0.24659  1.0000
  C   C2517     1.0  0.77107  0.61930  0.46988  1.0000
  C   C2518     1.0  0.98360  0.80876  0.26970  1.0000
  C   C2519     1.0  0.60276  0.83061  0.25258  1.0000
  C   C2520     1.0  0.51964  0.71005  0.35609  1.0000
  H   H2021     1.0  0.55859  0.66576  0.28087  1.0000
  C   C2521     1.0  0.51966  0.73961  0.37945  1.0000
  Fe  Fe167     1.0  0.63147  0.71870  0.25079  1.0000
  C   C2522     1.0  0.76720  0.99447  0.25764  1.0000
  Fe  Fe168     1.0  0.88946  0.67813  0.25045  1.0000
  H   H2022     1.0  0.73822  0.63965  0.25130  1.0000
  C   C2523     1.0  0.76333  0.95528  0.25396  1.0000
  C   C2524     1.0  0.52273  0.67407  0.27716  1.0000
  H   H2023     1.0  0.71543  0.60948  0.47945  1.0000
  H   H2024     1.0  0.65837  0.89916  0.26696  1.0000
  C   C2525     1.0  0.97300  0.81585  0.25014  1.0000
  C   C2526     1.0  0.97689  0.72162  0.25086  1.0000
  H   H2025     1.0  0.78452  0.64439  0.48383  1.0000
  C   C2527     1.0  0.81406  0.64863  0.25904  1.0000
  C   C2528     1.0  0.83675  0.65300  0.25733  1.0000
  C   C2529     1.0  0.97391  0.64834  0.40147  1.0000
  H   H2026     1.0  0.73807  0.53815  0.25804  1.0000
  H   H2027     1.0  0.85822  0.59547  0.25280  1.0000
  C   C2530     1.0  0.77027  0.51584  0.25576  1.0000
  C   C2531     1.0  0.72385  0.60963  0.24936  1.0000
  H   H2028     1.0  0.50399  0.70918  0.39108  1.0000
  C   C2532     1.0  0.00205  0.65238  0.36766  1.0000
  H   H2029     1.0  0.99741  0.67292  0.39503  1.0000
  C   C2533     1.0  0.74868  0.52474  0.24952  1.0000
  C   C2534     1.0  0.93505  0.86084  0.24520  1.0000
  C   C2535     1.0  0.71993  0.69985  0.25005  1.0000
  P   P85       1.0  0.85044  0.54885  0.25041  1.0000
  C   C2536     1.0  0.80607  0.57101  0.24657  1.0000
  C   C2537     1.0  0.75982  0.70552  0.24466  1.0000
  C   C2538     1.0  0.92073  0.88177  0.24474  1.0000
  H   H2030     1.0  0.84281  0.66634  0.24470  1.0000
  H   H2031     1.0  0.69524  0.82259  0.64280  1.0000
  H   H2032     1.0  0.88468  0.99746  0.66134  1.0000
  S   S337      1.0  0.89468  0.72305  0.70569  1.0000
  C   C2539     1.0  0.68925  0.77952  0.59280  1.0000
  C   C2540     1.0  0.80589  0.80265  0.71051  1.0000
  H   H2033     1.0  0.74755  0.81106  0.65156  1.0000
  H   H2034     1.0  0.69506  0.61737  0.72078  1.0000
  H   H2035     1.0  0.80745  0.84873  0.70190  1.0000
  C   C2541     1.0  0.69618  0.87336  0.66049  1.0000
  C   C2542     1.0  0.70152  0.85015  0.65858  1.0000
  C   C2543     1.0  0.78070  0.94638  0.74076  1.0000
  C   C2544     1.0  0.66397  0.86509  0.73003  1.0000
  Fe  Fe169     1.0  0.59621  0.77091  0.70822  1.0000
  S   S338      1.0  0.61119  0.76369  0.67296  1.0000
  H   H2036     1.0  0.79434  0.71332  0.70247  1.0000
  H   H2037     1.0  0.60606  0.83212  0.68395  1.0000
  Fe  Fe170     1.0  0.74187  0.75074  0.63489  1.0000
  S   S339      1.0  0.73381  0.72787  0.61208  1.0000
  S   S340      1.0  0.71652  0.77634  0.65262  1.0000
  Fe  Fe171     1.0  0.79320  0.73559  0.62751  1.0000
  S   S341      1.0  0.78935  0.71119  0.60416  1.0000
  S   S342      1.0  0.82926  0.74212  0.62929  1.0000
  Fe  Fe172     1.0  0.76435  0.73873  0.58852  1.0000
  S   S343      1.0  0.76886  0.74693  0.55018  1.0000
  Fe  Fe173     1.0  0.75925  0.70197  0.62947  1.0000
  S   S344      1.0  0.75367  0.66523  0.63312  1.0000
  S   S345      1.0  0.77038  0.76402  0.60992  1.0000
  S   S346      1.0  0.76510  0.72399  0.65438  1.0000
  C   C2545     1.0  0.74793  0.74769  0.53222  1.0000
  C   C2546     1.0  0.72614  0.74145  0.54038  1.0000
  C   C2547     1.0  0.70998  0.74287  0.52535  1.0000
  C   C2548     1.0  0.71571  0.74985  0.50202  1.0000
  C   C2549     1.0  0.75353  0.75478  0.50896  1.0000
  H   H2038     1.0  0.72169  0.73580  0.55823  1.0000
  H   H2039     1.0  0.69296  0.73857  0.53174  1.0000
  C   C2550     1.0  0.64042  0.76747  0.66690  1.0000
  C   C2551     1.0  0.64902  0.78297  0.67727  1.0000
  C   C2552     1.0  0.67232  0.78567  0.67258  1.0000
  C   C2553     1.0  0.68734  0.77260  0.65776  1.0000
  C   C2554     1.0  0.67881  0.75710  0.64730  1.0000
  C   C2555     1.0  0.65532  0.75484  0.65159  1.0000
  H   H2040     1.0  0.63761  0.79337  0.68849  1.0000
  H   H2041     1.0  0.67870  0.79789  0.68056  1.0000
  H   H2042     1.0  0.69024  0.74693  0.63585  1.0000
  H   H2043     1.0  0.64873  0.74308  0.64333  1.0000
  H   H2044     1.0  0.57867  0.66242  0.73756  1.0000
  C   C2556     1.0  0.75371  0.60911  0.69377  1.0000
  C   C2557     1.0  0.76052  0.60427  0.67162  1.0000
  C   C2558     1.0  0.76050  0.62184  0.65345  1.0000
  C   C2559     1.0  0.75442  0.64454  0.65721  1.0000
  C   C2560     1.0  0.74821  0.64971  0.67944  1.0000
  C   C2561     1.0  0.74768  0.63187  0.69780  1.0000
  H   H2045     1.0  0.76525  0.58678  0.66841  1.0000
  H   H2046     1.0  0.76518  0.61775  0.63634  1.0000
  H   H2047     1.0  0.74327  0.66726  0.68237  1.0000
  H   H2048     1.0  0.74259  0.63561  0.71497  1.0000
  C   C2562     1.0  0.68918  0.72969  0.70750  1.0000
  C   C2563     1.0  0.87495  0.72783  0.68581  1.0000
  C   C2564     1.0  0.85098  0.73172  0.69172  1.0000
  C   C2565     1.0  0.83642  0.73560  0.67467  1.0000
  C   C2566     1.0  0.84586  0.73564  0.65184  1.0000
  C   C2567     1.0  0.86972  0.73177  0.64619  1.0000
  C   C2568     1.0  0.88409  0.72757  0.66302  1.0000
  H   H2049     1.0  0.84372  0.73225  0.70926  1.0000
  H   H2050     1.0  0.81808  0.73949  0.67891  1.0000
  H   H2051     1.0  0.87718  0.73200  0.62860  1.0000
  H   H2052     1.0  0.90251  0.72454  0.65826  1.0000
  H   H2053     1.0  0.79236  0.80795  0.72369  1.0000
  H   H2054     1.0  0.80516  0.88799  0.70966  1.0000
  C   C2569     1.0  0.98684  0.76959  0.72307  1.0000
  H   H2055     1.0  0.70340  0.88052  0.67271  1.0000
  H   H2056     1.0  0.62676  0.90606  0.54216  1.0000
  C   C2570     1.0  0.63038  0.83544  0.65345  1.0000
  H   H2057     1.0  0.74844  0.53253  0.73069  1.0000
  C   C2571     1.0  0.85619  0.99151  0.64611  1.0000
  C   C2572     1.0  0.52729  0.70945  0.68005  1.0000
  H   H2058     1.0  0.66847  0.84468  0.70281  1.0000
  C   C2573     1.0  0.68048  0.81839  0.60168  1.0000
  C   C2574     1.0  0.80334  0.80899  0.68752  1.0000
  H   H2059     1.0  0.75634  0.68925  0.72610  1.0000
  H   H2060     1.0  0.57883  0.81546  0.66644  1.0000
  H   H2061     1.0  0.65734  0.79284  0.61090  1.0000
  C   C2575     1.0  0.65056  0.86216  0.59050  1.0000
  C   C2576     1.0  0.60981  0.82980  0.66621  1.0000
  H   H2062     1.0  0.82183  0.52734  0.71518  1.0000
  C   C2577     1.0  0.83242  0.99169  0.64864  1.0000
  C   C2578     1.0  0.77364  0.89979  0.69568  1.0000
  C   C2579     1.0  0.69143  0.84074  0.64352  1.0000
  H   H2063     1.0  0.78732  0.66773  0.69460  1.0000
  C   C2580     1.0  0.70481  0.69375  0.49982  1.0000
  H   H2064     1.0  0.64212  0.84227  0.66171  1.0000
  H   H2065     1.0  0.85515  0.78324  0.66435  1.0000
  C   C2581     1.0  0.72107  0.68369  0.73526  1.0000
  C   C2582     1.0  0.67930  0.68012  0.54148  1.0000
  H   H2066     1.0  0.72144  0.67334  0.72199  1.0000
  C   C2583     1.0  0.79198  0.84233  0.63481  1.0000
  H   H2067     1.0  0.82837  0.67956  0.62985  1.0000
  C   C2584     1.0  0.65313  0.87846  0.55078  1.0000
  C   C2585     1.0  0.79168  0.84492  0.61140  1.0000
  C   C2586     1.0  0.69714  0.61539  0.66460  1.0000
  C   C2587     1.0  0.70016  0.60809  0.68720  1.0000
  C   C2588     1.0  0.69294  0.62301  0.70329  1.0000
  C   C2589     1.0  0.68301  0.64529  0.69689  1.0000
  C   C2590     1.0  0.68020  0.65288  0.67418  1.0000
  C   C2591     1.0  0.68680  0.63758  0.65815  1.0000
  P   P86       1.0  0.66512  0.68093  0.66678  1.0000
  C   C2592     1.0  0.63473  0.67969  0.67450  1.0000
  C   C2593     1.0  0.67461  0.69991  0.68284  1.0000
  C   C2594     1.0  0.66102  0.70656  0.70262  1.0000
  C   C2595     1.0  0.68095  0.88724  0.64710  1.0000
  C   C2596     1.0  0.66845  0.69430  0.52453  1.0000
  C   C2597     1.0  0.70329  0.72241  0.68846  1.0000
  C   C2598     1.0  0.69610  0.70754  0.67617  1.0000
  C   C2599     1.0  0.61944  0.69986  0.67624  1.0000
  C   C2600     1.0  0.59597  0.69911  0.68256  1.0000
  C   C2601     1.0  0.58752  0.67817  0.68697  1.0000
  C   C2602     1.0  0.60260  0.65797  0.68526  1.0000
  C   C2603     1.0  0.62615  0.65868  0.67908  1.0000
  C   C2604     1.0  0.67152  0.69072  0.63673  1.0000
  C   C2605     1.0  0.69377  0.68568  0.62538  1.0000
  C   C2606     1.0  0.69895  0.69301  0.60221  1.0000
  C   C2607     1.0  0.68207  0.70604  0.59023  1.0000
  C   C2608     1.0  0.65982  0.71117  0.60132  1.0000
  C   C2609     1.0  0.65448  0.70337  0.62440  1.0000
  H   H2068     1.0  0.70286  0.60383  0.65212  1.0000
  H   H2069     1.0  0.70831  0.59095  0.69228  1.0000
  P   P87       1.0  0.74590  0.66824  0.51106  1.0000
  H   H2070     1.0  0.67716  0.65637  0.70982  1.0000
  H   H2071     1.0  0.68392  0.64263  0.64072  1.0000
  C   C2610     1.0  0.77645  0.82976  0.64967  1.0000
  H   H2072     1.0  0.51763  0.76118  0.71350  1.0000
  C   C2611     1.0  0.71532  0.81399  0.71623  1.0000
  H   H2073     1.0  0.71952  0.72881  0.68284  1.0000
  H   H2074     1.0  0.70724  0.70232  0.66137  1.0000
  H   H2075     1.0  0.62573  0.71621  0.67294  1.0000
  H   H2076     1.0  0.58455  0.71491  0.68406  1.0000
  H   H2077     1.0  0.56935  0.67752  0.69178  1.0000
  H   H2078     1.0  0.59607  0.64174  0.68885  1.0000
  H   H2079     1.0  0.63752  0.64280  0.67804  1.0000
  H   H2080     1.0  0.70713  0.67599  0.63449  1.0000
  H   H2081     1.0  0.71625  0.68897  0.59375  1.0000
  H   H2082     1.0  0.68630  0.71225  0.57241  1.0000
  H   H2083     1.0  0.64671  0.72137  0.59208  1.0000
  H   H2084     1.0  0.63714  0.70765  0.63252  1.0000
  C   C2612     1.0  0.71590  0.67962  0.51677  1.0000
  H   H2085     1.0  0.82809  0.78459  0.73437  1.0000
  H   H2086     1.0  0.70826  0.83873  0.59107  1.0000
  C   C2613     1.0  0.71792  0.80504  0.58188  1.0000
  C   C2614     1.0  0.70273  0.82228  0.59158  1.0000
  H   H2087     1.0  0.60676  0.90530  0.58158  1.0000
  S   S347      1.0  0.75303  0.58587  0.71553  1.0000
  H   H2088     1.0  0.80143  0.72423  0.49588  1.0000
  H   H2089     1.0  0.80453  0.84986  0.64135  1.0000
  C   C2615     1.0  0.88284  0.67051  0.74361  1.0000
  S   S348      1.0  0.56935  0.80000  0.71789  1.0000
  C   C2616     1.0  0.63062  0.87763  0.59517  1.0000
  C   C2617     1.0  0.72874  0.63438  0.49409  1.0000
  H   H2090     1.0  0.54373  0.73590  0.68852  1.0000
  H   H2091     1.0  0.79172  0.67117  0.65295  1.0000
  C   C2618     1.0  0.84154  0.78911  0.67719  1.0000
  C   C2619     1.0  0.75650  0.89385  0.68529  1.0000
  C   C2620     1.0  0.76635  0.96526  0.73181  1.0000
  C   C2621     1.0  0.67395  0.79674  0.60248  1.0000
  C   C2622     1.0  0.63553  0.83206  0.63054  1.0000
  H   H2092     1.0  0.78308  0.54380  0.70563  1.0000
  C   C2623     1.0  0.75783  0.87160  0.68047  1.0000
  C   C2624     1.0  0.65761  0.84942  0.71795  1.0000
  H   H2093     1.0  0.58749  0.80962  0.62612  1.0000
  C   C2625     1.0  0.80003  0.63162  0.73086  1.0000
  C   C2626     1.0  0.61968  0.82315  0.62066  1.0000
  C   C2627     1.0  0.84676  0.66214  0.73510  1.0000
  C   C2628     1.0  0.82112  0.80162  0.67090  1.0000
  H   H2094     1.0  0.77566  0.83686  0.58456  1.0000
  H   H2095     1.0  0.62157  0.87743  0.61226  1.0000
  C   C2629     1.0  0.84310  0.67773  0.68236  1.0000
  H   H2096     1.0  0.85992  0.77344  0.70490  1.0000
  C   C2630     1.0  0.70289  0.67266  0.53760  1.0000
  P   P88       1.0  0.66083  0.84140  0.61309  1.0000
  H   H2097     1.0  0.78237  0.75212  0.71246  1.0000
  C   C2631     1.0  0.67084  0.87788  0.63196  1.0000
  H   H2098     1.0  0.85750  0.68040  0.69005  1.0000
  C   C2632     1.0  0.96553  0.76183  0.72538  1.0000
  H   H2099     1.0  0.65022  0.70027  0.52748  1.0000
  H   H2100     1.0  0.74828  0.96419  0.73211  1.0000
  H   H2101     1.0  0.71294  0.83926  0.66923  1.0000
  C   C2633     1.0  0.53815  0.70984  0.71701  1.0000
  H   H2102     1.0  0.73281  0.76204  0.69875  1.0000
  C   C2634     1.0  0.66168  0.86263  0.56810  1.0000
  C   C2635     1.0  0.75704  0.65950  0.53766  1.0000
  C   C2636     1.0  0.75387  0.67493  0.55350  1.0000
  C   C2637     1.0  0.76290  0.66873  0.57389  1.0000
  C   C2638     1.0  0.77461  0.64688  0.57898  1.0000
  C   C2639     1.0  0.77750  0.63125  0.56350  1.0000
  C   C2640     1.0  0.76882  0.63753  0.54283  1.0000
  H   H2103     1.0  0.81116  0.62805  0.71542  1.0000
  C   C2641     1.0  0.96415  0.74031  0.72003  1.0000
  H   H2104     1.0  0.78714  0.59938  0.73575  1.0000
  H   H2105     1.0  0.64489  0.70022  0.70886  1.0000
  C   C2642     1.0  0.52941  0.68930  0.72507  1.0000
  H   H2106     1.0  0.77246  0.91691  0.69983  1.0000
  C   C2643     1.0  0.98412  0.72650  0.71228  1.0000
  C   C2644     1.0  0.74813  0.64460  0.49521  1.0000
  H   H2107     1.0  0.77135  0.62524  0.53103  1.0000
  C   C2645     1.0  0.53719  0.71983  0.69454  1.0000
  H   H2108     1.0  0.98299  0.70973  0.70837  1.0000
  C   C2646     1.0  0.84533  0.67972  0.65875  1.0000
  H   H2109     1.0  0.74484  0.69200  0.54985  1.0000
  H   H2110     1.0  0.76090  0.68095  0.58573  1.0000
  H   H2111     1.0  0.78140  0.64214  0.59497  1.0000
  H   H2112     1.0  0.78656  0.61430  0.56752  1.0000
  H   H2113     1.0  0.69461  0.74147  0.71677  1.0000
  H   H2114     1.0  0.63263  0.82732  0.71648  1.0000
  C   C2647     1.0  0.79692  0.71687  0.71885  1.0000
  C   C2648     1.0  0.82230  0.67307  0.69561  1.0000
  H   H2115     1.0  0.95005  0.77233  0.73178  1.0000
  C   C2649     1.0  0.75984  0.82314  0.61742  1.0000
  C   C2650     1.0  0.78491  0.53158  0.72074  1.0000
  C   C2651     1.0  0.77569  0.83520  0.60270  1.0000
  H   H2116     1.0  0.68424  0.76278  0.59363  1.0000
  H   H2117     1.0  0.67657  0.90515  0.64895  1.0000
  H   H2118     1.0  0.74197  0.90639  0.68134  1.0000
  H   H2119     1.0  0.80400  0.85425  0.60000  1.0000
  H   H2120     1.0  0.94759  0.73429  0.72208  1.0000
  H   H2121     1.0  0.77026  0.75983  0.50256  1.0000
  C   C2652     1.0  0.66813  0.72161  0.71469  1.0000
  C   C2653     1.0  0.78991  0.73891  0.72451  1.0000
  C   C2654     1.0  0.77593  0.85491  0.68665  1.0000
  C   C2655     1.0  0.71119  0.78369  0.58249  1.0000
  C   C2656     1.0  0.59439  0.82053  0.65633  1.0000
  C   C2657     1.0  0.80799  0.69999  0.73387  1.0000
  H   H2122     1.0  0.76702  0.78042  0.68242  1.0000
  H   H2123     1.0  0.51260  0.66305  0.71634  1.0000
  H   H2124     1.0  0.74748  0.81542  0.61086  1.0000
  C   C2658     1.0  0.75355  0.81253  0.69483  1.0000
  C   C2659     1.0  0.73486  0.82440  0.70743  1.0000
  Fe  Fe174     1.0  0.88769  0.73210  0.74134  1.0000
  C   C2660     1.0  0.82619  0.78974  0.71668  1.0000
  C   C2661     1.0  0.79207  0.88346  0.70126  1.0000
  H   H2125     1.0  0.86122  0.68386  0.64861  1.0000
  H   H2126     1.0  0.67676  0.85069  0.56376  1.0000
  C   C2662     1.0  0.62215  0.89346  0.57782  1.0000
  P   P89       1.0  0.81894  0.67202  0.72600  1.0000
  C   C2663     1.0  0.71451  0.79157  0.71297  1.0000
  H   H2127     1.0  0.85699  0.69579  0.73034  1.0000
  C   C2664     1.0  0.80672  0.52236  0.72620  1.0000
  H   H2128     1.0  0.77765  0.69838  0.52058  1.0000
  S   S349      1.0  0.73035  0.91392  0.74029  1.0000
  H   H2129     1.0  0.73490  0.84178  0.71020  1.0000
  H   H2130     1.0  0.81936  0.80523  0.65309  1.0000
  C   C2665     1.0  0.73354  0.77929  0.70157  1.0000
  C   C2666     1.0  0.76013  0.82047  0.64077  1.0000
  H   H2131     1.0  0.72313  0.77035  0.57514  1.0000
  C   C2667     1.0  0.79317  0.86105  0.69698  1.0000
  C   C2668     1.0  0.59934  0.81716  0.63359  1.0000
  C   C2669     1.0  0.63341  0.89388  0.55563  1.0000
  S   S350      1.0  0.57888  0.74402  0.73207  1.0000
  H   H2132     1.0  0.73502  0.80806  0.57394  1.0000
  P   P90       1.0  0.77737  0.82641  0.67983  1.0000
  C   C2670     1.0  0.75295  0.78973  0.69244  1.0000
  C   C2671     1.0  0.84416  0.78339  0.70006  1.0000
  C   C2672     1.0  0.67593  0.85450  0.63016  1.0000
  H   H2133     1.0  0.65869  0.88886  0.62221  1.0000
  C   C2673     1.0  0.80370  0.67081  0.68485  1.0000
  H   H2134     1.0  0.62309  0.82079  0.60295  1.0000
  H   H2135     1.0  0.74455  0.86724  0.67226  1.0000
  H   H2136     1.0  0.66173  0.87861  0.53352  1.0000
  C   C2674     1.0  0.82679  0.67739  0.64818  1.0000
  C   C2675     1.0  0.80606  0.67281  0.66123  1.0000
  C   C2676     1.0  0.79828  0.98740  0.72349  1.0000
  H   H2137     1.0  0.70078  0.82350  0.72541  1.0000
  C   C2677     1.0  0.79960  0.65207  0.73958  1.0000
  C   C2678     1.0  0.80388  0.94778  0.74076  1.0000
  H   H2138     1.0  0.65729  0.72695  0.72968  1.0000
  H   H2139     1.0  0.66943  0.67485  0.55762  1.0000
  H   H2140     1.0  0.71081  0.66125  0.55079  1.0000
  H   H2141     1.0  0.69915  0.78370  0.71907  1.0000
  H   H2142     1.0  0.86686  0.98624  0.63103  1.0000
  C   C2679     1.0  0.51848  0.68897  0.68798  1.0000
  H   H2143     1.0  0.98745  0.78614  0.72776  1.0000
  C   C2680     1.0  0.77506  0.98571  0.72319  1.0000
  H   H2144     1.0  0.52611  0.71749  0.66282  1.0000
  H   H2145     1.0  0.75338  0.78973  0.74228  1.0000
  S   S351      1.0  0.68982  0.87670  0.72080  1.0000
  C   C2681     1.0  0.86165  0.67784  0.73586  1.0000
  H   H2146     1.0  0.82465  0.98649  0.63556  1.0000
  C   C2682     1.0  0.63733  0.83958  0.72565  1.0000
  C   C2683     1.0  0.85392  0.63880  0.74131  1.0000
  H   H2147     1.0  0.51041  0.68113  0.67689  1.0000
  C   C2684     1.0  0.74063  0.69279  0.73752  1.0000
  H   H2148     1.0  0.62058  0.66415  0.73403  1.0000
  H   H2149     1.0  0.89168  0.84477  0.74192  1.0000
  C   C2685     1.0  0.76536  0.52521  0.73486  1.0000
  C   C2686     1.0  0.68116  0.70090  0.50367  1.0000
  H   H2150     1.0  0.83078  0.96889  0.73185  1.0000
  C   C2687     1.0  0.51968  0.67883  0.71035  1.0000
  H   H2151     1.0  0.61035  0.70357  0.74348  1.0000
  H   H2152     1.0  0.71215  0.64004  0.50315  1.0000
  C   C2688     1.0  0.57065  0.64703  0.74242  1.0000
  C   C2689     1.0  0.78649  0.61529  0.74234  1.0000
  H   H2153     1.0  0.60244  0.62503  0.73501  1.0000
  Fe  Fe175     1.0  0.59210  0.80220  0.74357  1.0000
  H   H2154     1.0  0.84319  0.62615  0.74039  1.0000
  C   C2690     1.0  0.81271  0.96814  0.73197  1.0000
  H   H2155     1.0  0.54538  0.71834  0.72806  1.0000
  C   C2691     1.0  0.58412  0.62589  0.74075  1.0000
  S   S352      1.0  0.62010  0.77542  0.73181  1.0000
  C   C2692     1.0  0.77676  0.70056  0.50265  1.0000
  C   C2693     1.0  0.73767  0.75546  0.49384  1.0000
  Fe  Fe176     1.0  0.88348  0.71232  0.79152  1.0000
  S   S353      1.0  0.87983  0.74657  0.80293  1.0000
  S   S354      1.0  0.88237  0.67979  0.81585  1.0000
  C   C2694     1.0  0.81067  0.70516  0.75511  1.0000
  S   S355      1.0  0.73355  0.90656  0.79529  1.0000
  C   C2695     1.0  0.78166  0.83538  0.77537  1.0000
  H   H2156     1.0  0.79330  0.84214  0.92904  1.0000
  S   S356      1.0  0.68368  0.90808  0.77697  1.0000
  C   C2696     1.0  0.90347  0.84812  0.87327  1.0000
  Fe  Fe177     1.0  0.71242  0.92969  0.77091  1.0000
  P   P91       1.0  0.85215  0.82571  0.83411  1.0000
  Fe  Fe178     1.0  0.70650  0.88352  0.79864  1.0000
  S   S357      1.0  0.69282  0.86258  0.83094  1.0000
  H   H2157     1.0  0.57578  0.51278  0.80340  1.0000
  S   S358      1.0  0.72379  0.86450  0.77020  1.0000
  H   H2158     1.0  0.95639  0.72502  0.77866  1.0000
  Fe  Fe179     1.0  0.73806  0.73174  0.93072  1.0000
  S   S359      1.0  0.71920  0.73827  0.90030  1.0000
  Fe  Fe180     1.0  0.77932  0.70431  0.90611  1.0000
  S   S360      1.0  0.76376  0.70851  0.87418  1.0000
  S   S361      1.0  0.81428  0.68369  0.90776  1.0000
  Fe  Fe181     1.0  0.75317  0.74484  0.88044  1.0000
  S   S362      1.0  0.76184  0.77279  0.85227  1.0000
  Fe  Fe182     1.0  0.73149  0.70132  0.89679  1.0000
  S   S363      1.0  0.70753  0.67868  0.88905  1.0000
  S   S364      1.0  0.77124  0.74117  0.91094  1.0000
  S   S365      1.0  0.74763  0.69431  0.92882  1.0000
  Fe  Fe183     1.0  0.71822  0.59827  0.79529  1.0000
  S   S366      1.0  0.68368  0.58585  0.80205  1.0000
  S   S367      1.0  0.74006  0.60814  0.81863  1.0000
  C   C2697     1.0  0.62918  0.86196  0.75674  1.0000
  H   H2159     1.0  0.74683  0.79219  0.96445  1.0000
  Fe  Fe184     1.0  0.67920  0.60456  0.76722  1.0000
  C   C2698     1.0  0.75131  0.79703  0.94646  1.0000
  Fe  Fe185     1.0  0.70105  0.55659  0.78340  1.0000
  S   S368      1.0  0.69624  0.51996  0.79723  1.0000
  C   C2699     1.0  0.66579  0.80089  0.76549  1.0000
  S   S369      1.0  0.73582  0.56756  0.77929  1.0000
  H   H2160     1.0  0.99467  0.70420  0.78495  1.0000
  H   H2161     1.0  0.88387  0.79789  0.80299  1.0000
  H   H2162     1.0  0.79813  0.83598  0.97778  1.0000
  S   S370      1.0  0.62201  0.72509  0.77918  1.0000
  H   H2163     1.0  0.82600  0.72537  0.92118  1.0000
  S   S371      1.0  0.57508  0.77769  0.77035  1.0000
  H   H2164     1.0  0.68275  0.82967  0.76716  1.0000
  C   C2700     1.0  0.87759  0.59655  0.87518  1.0000
  C   C2701     1.0  0.56305  0.71613  0.79686  1.0000
  C   C2702     1.0  0.70876  0.50365  0.75595  1.0000
  C   C2703     1.0  0.84893  0.75039  0.86317  1.0000
  Fe  Fe186     1.0  0.60117  0.75058  0.75628  1.0000
  H   H2165     1.0  0.76160  0.60677  0.77117  1.0000
  C   C2704     1.0  0.62951  0.69744  0.77171  1.0000
  C   C2705     1.0  0.64364  0.68125  0.78457  1.0000
  C   C2706     1.0  0.64964  0.65896  0.77910  1.0000
  C   C2707     1.0  0.85694  0.82276  0.93782  1.0000
  C   C2708     1.0  0.77203  0.61946  0.76227  1.0000
  H   H2166     1.0  0.64990  0.68590  0.79886  1.0000
  H   H2167     1.0  0.66052  0.64653  0.78913  1.0000
  C   C2709     1.0  0.71663  0.66121  0.86740  1.0000
  C   C2710     1.0  0.73993  0.65519  0.85991  1.0000
  C   C2711     1.0  0.74677  0.63911  0.84469  1.0000
  C   C2712     1.0  0.73041  0.62969  0.83608  1.0000
  C   C2713     1.0  0.70707  0.63661  0.84259  1.0000
  C   C2714     1.0  0.70022  0.65210  0.85847  1.0000
  H   H2168     1.0  0.75272  0.66203  0.86672  1.0000
  H   H2169     1.0  0.76483  0.63360  0.83994  1.0000
  H   H2170     1.0  0.69432  0.62941  0.83607  1.0000
  H   H2171     1.0  0.68214  0.65680  0.86410  1.0000
  H   H2172     1.0  0.74287  0.75104  0.75089  1.0000
  C   C2715     1.0  0.57264  0.69381  0.79404  1.0000
  C   C2716     1.0  0.87116  0.78118  0.84823  1.0000
  H   H2173     1.0  0.88553  0.74759  0.86215  1.0000
  C   C2717     1.0  0.78900  0.82382  0.98946  1.0000
  H   H2174     1.0  0.81987  0.58660  0.91278  1.0000
  H   H2175     1.0  0.77599  0.97816  0.79376  1.0000
  C   C2718     1.0  0.85827  0.85280  0.79206  1.0000
  H   H2176     1.0  0.88033  0.61359  0.75444  1.0000
  H   H2177     1.0  0.58922  0.89557  0.80926  1.0000
  C   C2719     1.0  0.85109  0.79565  0.84324  1.0000
  C   C2720     1.0  0.83008  0.78681  0.84718  1.0000
  C   C2721     1.0  0.71165  0.83751  0.83737  1.0000
  C   C2722     1.0  0.70387  0.81897  0.85219  1.0000
  C   C2723     1.0  0.71904  0.79880  0.85681  1.0000
  C   C2724     1.0  0.74205  0.79740  0.84697  1.0000
  C   C2725     1.0  0.74978  0.81611  0.83257  1.0000
  C   C2726     1.0  0.73458  0.83598  0.82757  1.0000
  H   H2178     1.0  0.68612  0.82011  0.85990  1.0000
  H   H2179     1.0  0.71309  0.78446  0.86811  1.0000
  H   H2180     1.0  0.76767  0.81526  0.82545  1.0000
  H   H2181     1.0  0.74060  0.85030  0.81632  1.0000
  C   C2727     1.0  0.72450  0.98422  0.77418  1.0000
  C   C2728     1.0  0.84072  0.80783  0.94575  1.0000
  C   C2729     1.0  0.81207  0.80332  0.77539  1.0000
  H   H2182     1.0  0.77644  0.86230  0.81397  1.0000
  C   C2730     1.0  0.74439  0.97351  0.78304  1.0000
  H   H2183     1.0  0.76395  0.54939  0.83969  1.0000
  H   H2184     1.0  0.53635  0.78563  0.84345  1.0000
  C   C2731     1.0  0.86320  0.68166  0.84115  1.0000
  C   C2732     1.0  0.86627  0.66482  0.85971  1.0000
  C   C2733     1.0  0.85113  0.66560  0.88000  1.0000
  C   C2734     1.0  0.83232  0.68279  0.88168  1.0000
  C   C2735     1.0  0.82865  0.69917  0.86284  1.0000
  C   C2736     1.0  0.84437  0.69892  0.84273  1.0000
  H   H2185     1.0  0.88064  0.65135  0.85852  1.0000
  H   H2186     1.0  0.85400  0.65281  0.89442  1.0000
  H   H2187     1.0  0.81418  0.71253  0.86401  1.0000
  H   H2188     1.0  0.84177  0.71192  0.82840  1.0000
  C   C2737     1.0  0.78704  0.85763  0.82745  1.0000
  H   H2189     1.0  0.82949  0.55085  0.88070  1.0000
  H   H2190     1.0  0.78861  0.76122  0.74970  1.0000
  H   H2191     1.0  0.80979  0.63585  0.89241  1.0000
  H   H2192     1.0  0.78000  0.65473  0.91876  1.0000
  H   H2193     1.0  0.88161  0.86223  0.82360  1.0000
  H   H2194     1.0  0.77711  0.80104  0.79023  1.0000
  H   H2195     1.0  0.76429  0.84209  0.78105  1.0000
  C   C2738     1.0  0.74165  0.78518  0.75734  1.0000
  C   C2739     1.0  0.64973  0.87123  0.74947  1.0000
  C   C2740     1.0  0.81393  0.75639  0.93583  1.0000
  C   C2741     1.0  0.96921  0.73402  0.78268  1.0000
  C   C2742     1.0  0.60936  0.52344  0.79740  1.0000
  S   S372      1.0  0.72034  0.74683  0.96215  1.0000
  H   H2196     1.0  0.58792  0.68624  0.80157  1.0000
  H   H2197     1.0  0.90163  0.80688  0.76368  1.0000
  C   C2743     1.0  0.73241  0.49888  0.84177  1.0000
  C   C2744     1.0  0.82517  0.73106  0.97649  1.0000
  S   S373      1.0  0.88460  0.76805  0.74875  1.0000
  C   C2745     1.0  0.85586  0.58760  0.91212  1.0000
  C   C2746     1.0  0.80319  0.72706  0.76085  1.0000
  C   C2747     1.0  0.62125  0.69122  0.75346  1.0000
  H   H2198     1.0  0.78404  0.67171  0.76682  1.0000
  H   H2199     1.0  0.85888  0.60234  0.84687  1.0000
  C   C2748     1.0  0.83594  0.58919  0.90210  1.0000
  H   H2200     1.0  0.55228  0.80595  0.80670  1.0000
  C   C2749     1.0  0.78486  0.65620  0.75958  1.0000
  H   H2201     1.0  0.72619  0.80598  0.89845  1.0000
  C   C2750     1.0  0.98108  0.76870  0.78965  1.0000
  C   C2751     1.0  0.74116  0.51604  0.82593  1.0000
  H   H2202     1.0  0.81441  0.79717  0.84268  1.0000
  H   H2203     1.0  0.71790  0.50323  0.85436  1.0000
  H   H2204     1.0  0.87462  0.81758  0.94074  1.0000
  H   H2205     1.0  0.78556  0.86059  0.88343  1.0000
  H   H2206     1.0  0.81822  0.51408  0.87653  1.0000
  S   S374      1.0  0.91381  0.71821  0.76499  1.0000
  H   H2207     1.0  0.57101  0.72588  0.80637  1.0000
  H   H2208     1.0  0.51271  0.65293  0.79804  1.0000
  C   C2752     1.0  0.81985  0.84088  0.75700  1.0000
  H   H2209     1.0  0.75229  0.50478  0.76515  1.0000
  H   H2210     1.0  0.82925  0.72115  0.99233  1.0000
  Fe  Fe187     1.0  0.55388  0.77351  0.74400  1.0000
  H   H2211     1.0  0.97729  0.78670  0.79107  1.0000
  C   C2753     1.0  0.77384  0.68443  0.81606  1.0000
  C   C2754     1.0  0.78712  0.69943  0.82159  1.0000
  C   C2755     1.0  0.77954  0.72279  0.81920  1.0000
  C   C2756     1.0  0.75870  0.73123  0.81120  1.0000
  C   C2757     1.0  0.74539  0.71630  0.80514  1.0000
  C   C2758     1.0  0.75289  0.69278  0.80811  1.0000
  P   P92       1.0  0.71955  0.72713  0.79261  1.0000
  C   C2759     1.0  0.69392  0.72564  0.81301  1.0000
  C   C2760     1.0  0.72151  0.75685  0.78257  1.0000
  C   C2761     1.0  0.71269  0.77326  0.79716  1.0000
  C   C2762     1.0  0.71841  0.79536  0.79181  1.0000
  C   C2763     1.0  0.73304  0.80123  0.77200  1.0000
  H   H2212     1.0  0.86406  0.87433  0.76018  1.0000
  C   C2764     1.0  0.73562  0.76319  0.76235  1.0000
  C   C2765     1.0  0.67247  0.73491  0.80632  1.0000
  C   C2766     1.0  0.65246  0.73439  0.82191  1.0000
  C   C2767     1.0  0.65371  0.72510  0.84442  1.0000
  C   C2768     1.0  0.67500  0.71634  0.85134  1.0000
  C   C2769     1.0  0.69511  0.71649  0.83574  1.0000
  C   C2770     1.0  0.64110  0.65270  0.76104  1.0000
  S   S375      1.0  0.85818  0.72280  0.76701  1.0000
  C   C2771     1.0  0.88934  0.81964  0.77154  1.0000
  C   C2772     1.0  0.63299  0.51635  0.79586  1.0000
  H   H2213     1.0  0.77960  0.66631  0.81829  1.0000
  H   H2214     1.0  0.80291  0.69301  0.82846  1.0000
  H   H2215     1.0  0.78962  0.73447  0.82390  1.0000
  H   H2216     1.0  0.75331  0.74942  0.80986  1.0000
  H   H2217     1.0  0.74258  0.68090  0.80425  1.0000
  H   H2218     1.0  0.70252  0.76877  0.81333  1.0000
  H   H2219     1.0  0.71205  0.80777  0.80337  1.0000
  C   C2773     1.0  0.80913  0.84594  0.82301  1.0000
  Fe  Fe188     1.0  0.90847  0.75347  0.77465  1.0000
  H   H2220     1.0  0.82528  0.84111  0.87540  1.0000
  H   H2221     1.0  0.67120  0.74217  0.78890  1.0000
  H   H2222     1.0  0.63592  0.74096  0.81648  1.0000
  H   H2223     1.0  0.63821  0.72464  0.85652  1.0000
  H   H2224     1.0  0.67582  0.70940  0.86889  1.0000
  H   H2225     1.0  0.71142  0.70954  0.84155  1.0000
  H   H2226     1.0  0.68446  0.70377  0.77882  1.0000
  H   H2227     1.0  0.76095  0.59366  0.88155  1.0000
  C   C2774     1.0  0.70020  0.70131  0.76732  1.0000
  C   C2775     1.0  0.60179  0.88494  0.81887  1.0000
  C   C2776     1.0  0.61719  0.89491  0.82810  1.0000
  C   C2777     1.0  0.63394  0.88113  0.83971  1.0000
  C   C2778     1.0  0.63537  0.85740  0.84205  1.0000
  C   C2779     1.0  0.61984  0.84718  0.83304  1.0000
  C   C2780     1.0  0.60317  0.86121  0.82120  1.0000
  P   P93       1.0  0.62369  0.81659  0.83341  1.0000
  C   C2781     1.0  0.64010  0.81051  0.80677  1.0000
  C   C2782     1.0  0.63941  0.80217  0.85607  1.0000
  C   C2783     1.0  0.65638  0.78346  0.85245  1.0000
  C   C2784     1.0  0.66825  0.77214  0.87010  1.0000
  C   C2785     1.0  0.66336  0.77941  0.89145  1.0000
  C   C2786     1.0  0.64648  0.79797  0.89521  1.0000
  C   C2787     1.0  0.63446  0.80926  0.87763  1.0000
  C   C2788     1.0  0.63633  0.79208  0.79675  1.0000
  C   C2789     1.0  0.64917  0.78731  0.77620  1.0000
  H   H2228     1.0  0.82226  0.86798  0.91428  1.0000
  C   C2790     1.0  0.66994  0.81901  0.77552  1.0000
  C   C2791     1.0  0.65729  0.82372  0.79622  1.0000
  C   C2792     1.0  0.59595  0.80675  0.83684  1.0000
  C   C2793     1.0  0.58336  0.81032  0.81849  1.0000
  C   C2794     1.0  0.56186  0.80295  0.82098  1.0000
  C   C2795     1.0  0.55289  0.79155  0.84169  1.0000
  C   C2796     1.0  0.56536  0.78768  0.86001  1.0000
  C   C2797     1.0  0.58678  0.79529  0.85764  1.0000
  H   H2229     1.0  0.64652  0.88875  0.84613  1.0000
  H   H2230     1.0  0.64928  0.84715  0.85006  1.0000
  H   H2231     1.0  0.59170  0.85400  0.81302  1.0000
  H   H2232     1.0  0.66064  0.77761  0.83605  1.0000
  H   H2233     1.0  0.68155  0.75792  0.86714  1.0000
  H   H2234     1.0  0.67280  0.77075  0.90502  1.0000
  H   H2235     1.0  0.64283  0.80365  0.91174  1.0000
  H   H2236     1.0  0.62138  0.82358  0.88081  1.0000
  H   H2237     1.0  0.62342  0.78143  0.80465  1.0000
  H   H2238     1.0  0.74744  0.95513  0.78657  1.0000
  H   H2239     1.0  0.84661  0.86605  0.79981  1.0000
  H   H2240     1.0  0.90965  0.87325  0.84412  1.0000
  H   H2241     1.0  0.66086  0.83782  0.80374  1.0000
  H   H2242     1.0  0.59022  0.81864  0.80212  1.0000
  H   H2243     1.0  0.80971  0.76576  0.91988  1.0000
  H   H2244     1.0  0.55848  0.77872  0.87604  1.0000
  H   H2245     1.0  0.59608  0.79201  0.87205  1.0000
  C   C2798     1.0  0.96411  0.75730  0.78440  1.0000
  C   C2799     1.0  0.82334  0.73345  0.93644  1.0000
  C   C2800     1.0  0.78910  0.81216  0.78096  1.0000
  H   H2246     1.0  0.76586  0.52413  0.79702  1.0000
  H   H2247     1.0  0.77489  0.58604  0.84387  1.0000
  C   C2801     1.0  0.70613  0.49855  0.77957  1.0000
  H   H2248     1.0  0.70507  0.52109  0.74814  1.0000
  C   C2802     1.0  0.82832  0.65092  0.81739  1.0000
  C   C2803     1.0  0.82706  0.64300  0.79722  1.0000
  C   C2804     1.0  0.81998  0.62185  0.79767  1.0000
  C   C2805     1.0  0.81439  0.60847  0.81838  1.0000
  C   C2806     1.0  0.81505  0.61654  0.83892  1.0000
  C   C2807     1.0  0.82191  0.63805  0.83818  1.0000
  P   P94       1.0  0.81046  0.59862  0.86593  1.0000
  C   C2808     1.0  0.78793  0.61315  0.88464  1.0000
  C   C2809     1.0  0.80302  0.57131  0.86254  1.0000
  C   C2810     1.0  0.81522  0.55079  0.87164  1.0000
  C   C2811     1.0  0.80890  0.52985  0.86928  1.0000
  C   C2812     1.0  0.79040  0.52924  0.85781  1.0000
  C   C2813     1.0  0.77835  0.54957  0.84856  1.0000
  C   C2814     1.0  0.78459  0.57044  0.85095  1.0000
  H   H2249     1.0  0.78532  0.51306  0.85618  1.0000
  H   H2250     1.0  0.61817  0.86700  0.77167  1.0000
  C   C2815     1.0  0.79693  0.84987  0.76346  1.0000
  C   C2816     1.0  0.77594  0.64144  0.91046  1.0000
  C   C2817     1.0  0.79285  0.63061  0.89538  1.0000
  C   C2818     1.0  0.83666  0.59473  0.87852  1.0000
  H   H2251     1.0  0.88769  0.78735  0.84464  1.0000
  C   C2819     1.0  0.87436  0.82453  0.87192  1.0000
  H   H2252     1.0  0.89400  0.82127  0.89956  1.0000
  H   H2253     1.0  0.86460  0.81096  0.88005  1.0000
  S   S376      1.0  0.64733  0.62465  0.75459  1.0000
  C   C2820     1.0  0.82002  0.49957  0.80873  1.0000
  H   H2254     1.0  0.83192  0.65325  0.78134  1.0000
  H   H2255     1.0  0.81913  0.61564  0.78196  1.0000
  H   H2256     1.0  0.81004  0.59178  0.81800  1.0000
  H   H2257     1.0  0.84529  0.81077  0.75864  1.0000
  P   P95       1.0  0.79639  0.79619  0.95473  1.0000
  H   H2258     1.0  0.89416  0.68283  0.74420  1.0000
  C   C2821     1.0  0.80959  0.76677  0.95567  1.0000
  C   C2822     1.0  0.81112  0.83637  0.93114  1.0000
  S   S377      1.0  0.69379  0.57423  0.74931  1.0000
  S   S378      1.0  0.82033  0.77429  0.78404  1.0000
  C   C2823     1.0  0.82744  0.85115  0.92298  1.0000
  H   H2259     1.0  0.65438  0.88333  0.75882  1.0000
  H   H2260     1.0  0.81489  0.93302  0.74768  1.0000
  C   C2824     1.0  0.81770  0.81453  0.94245  1.0000
  Fe  Fe189     1.0  0.70331  0.89054  0.74812  1.0000
  Fe  Fe190     1.0  0.85664  0.75777  0.77626  1.0000
  H   H2261     1.0  0.80493  0.51123  0.81371  1.0000
  H   H2262     1.0  0.83169  0.85195  0.74750  1.0000
  C   C2825     1.0  0.77385  0.80034  0.93699  1.0000
  H   H2263     1.0  0.76608  0.81065  0.88118  1.0000
  Fe  Fe191     1.0  0.72709  0.58800  0.74674  1.0000
  H   H2264     1.0  0.84165  0.51487  0.82573  1.0000
  H   H2265     1.0  0.75963  0.64321  0.78616  1.0000
  C   C2826     1.0  0.79235  0.85682  0.86649  1.0000
  H   H2266     1.0  0.61659  0.91326  0.82574  1.0000
  H   H2267     1.0  0.83545  0.70278  0.95725  1.0000
  H   H2268     1.0  0.73318  0.53358  0.82611  1.0000
  C   C2827     1.0  0.71968  0.71084  0.76962  1.0000
  H   H2269     1.0  0.84815  0.73307  0.87129  1.0000
  C   C2828     1.0  0.76054  0.98660  0.78710  1.0000
  H   H2270     1.0  0.79652  0.80658  0.90535  1.0000
  C   C2829     1.0  0.76758  0.50964  0.75447  1.0000
  H   H2271     1.0  0.57058  0.66407  0.77981  1.0000
  C   C2830     1.0  0.77910  0.80509  0.91329  1.0000
  C   C2831     1.0  0.89081  0.83053  0.88322  1.0000
  C   C2832     1.0  0.74006  0.70603  0.75480  1.0000
  H   H2272     1.0  0.83459  0.66700  0.81679  1.0000
  C   C2833     1.0  0.73420  0.79928  0.93256  1.0000
  H   H2273     1.0  0.81275  0.75758  0.86024  1.0000
  H   H2274     1.0  0.81898  0.69248  0.76712  1.0000
  C   C2834     1.0  0.82346  0.84057  0.83997  1.0000
  C   C2835     1.0  0.86331  0.83108  0.80435  1.0000
  C   C2836     1.0  0.85032  0.84440  0.92641  1.0000
  H   H2275     1.0  0.74049  0.64448  0.92563  1.0000
  H   H2276     1.0  0.89364  0.59982  0.86477  1.0000
  H   H2277     1.0  0.64497  0.52878  0.79155  1.0000
  C   C2837     1.0  0.87665  0.59141  0.89868  1.0000
  H   H2278     1.0  0.60296  0.54145  0.79435  1.0000
  C   C2838     1.0  0.54334  0.72589  0.78728  1.0000
  S   S379      1.0  0.70423  0.96824  0.76819  1.0000
  H   H2279     1.0  0.71696  0.79619  0.93998  1.0000
  H   H2280     1.0  0.81487  0.84097  0.80634  1.0000
  C   C2839     1.0  0.81482  0.84582  0.86187  1.0000
  H   H2281     1.0  0.76109  0.87136  0.85267  1.0000
  C   C2840     1.0  0.73393  0.74151  0.98675  1.0000
  C   C2841     1.0  0.74873  0.61806  0.90416  1.0000
  C   C2842     1.0  0.75382  0.63541  0.91463  1.0000
  S   S380      1.0  0.71222  0.61962  0.76209  1.0000
  C   C2843     1.0  0.82753  0.81762  0.76321  1.0000
  C   C2844     1.0  0.88388  0.84109  0.75933  1.0000
  S   S381      1.0  0.93683  0.77260  0.77997  1.0000
  H   H2282     1.0  0.53574  0.74309  0.78980  1.0000
  H   H2283     1.0  0.75563  0.71218  0.75685  1.0000
  C   C2845     1.0  0.87002  0.75870  0.85831  1.0000
  C   C2846     1.0  0.82871  0.72071  0.95680  1.0000
  C   C2847     1.0  0.77852  0.86286  0.84922  1.0000
  C   C2848     1.0  0.82904  0.76427  0.85721  1.0000
  C   C2849     1.0  0.76191  0.80736  0.89946  1.0000
  C   C2850     1.0  0.73945  0.80457  0.90913  1.0000
  H   H2284     1.0  0.91631  0.85265  0.88198  1.0000
  H   H2285     1.0  0.86288  0.85599  0.92033  1.0000
  H   H2286     1.0  0.84607  0.79125  0.95484  1.0000
  C   C2851     1.0  0.59408  0.50728  0.80258  1.0000
  C   C2852     1.0  0.87116  0.83545  0.85005  1.0000
  H   H2287     1.0  0.51842  0.72160  0.76676  1.0000
  C   C2853     1.0  0.88376  0.85334  0.84031  1.0000
  C   C2854     1.0  0.54366  0.69151  0.77054  1.0000
  Fe  Fe192     1.0  0.74936  0.88911  0.76508  1.0000
  C   C2855     1.0  0.75941  0.51053  0.80918  1.0000
  C   C2856     1.0  0.87913  0.81460  0.79393  1.0000
  C   C2857     1.0  0.89976  0.85968  0.85192  1.0000
  C   C2858     1.0  0.99097  0.72223  0.78626  1.0000
  C   C2859     1.0  0.62695  0.66886  0.74820  1.0000
  C   C2860     1.0  0.88944  0.64742  0.75058  1.0000
  C   C2861     1.0  0.77101  0.64000  0.77074  1.0000
  C   C2862     1.0  0.85773  0.59807  0.86509  1.0000
  C   C2863     1.0  0.78939  0.50056  0.76029  1.0000
  H   H2288     1.0  0.73138  0.61382  0.90695  1.0000
  H   H2289     1.0  0.89199  0.59061  0.90648  1.0000
  H   H2290     1.0  0.73816  0.81805  0.76820  1.0000
  H   H2291     1.0  0.64604  0.77316  0.76852  1.0000
  C   C2864     1.0  0.53364  0.71367  0.77417  1.0000
  C   C2865     1.0  0.86841  0.85770  0.76962  1.0000
  H   H2292     1.0  0.85508  0.58384  0.93036  1.0000
  S   S382      1.0  0.59703  0.83492  0.75485  1.0000
  C   C2866     1.0  0.84089  0.50180  0.81545  1.0000
  H   H2293     1.0  0.82325  0.64457  0.85358  1.0000
  C   C2867     1.0  0.76570  0.60682  0.88939  1.0000
  C   C2868     1.0  0.78506  0.80344  0.98284  1.0000
  C   C2869     1.0  0.56289  0.68142  0.78119  1.0000
  H   H2294     1.0  0.76442  0.72163  0.97208  1.0000
  H   H2295     1.0  0.77384  0.93069  0.74790  1.0000
  S   S383      1.0  0.78780  0.87931  0.75758  1.0000
  H   H2296     1.0  0.80589  0.73119  0.77700  1.0000
  C   C2870     1.0  0.81586  0.75405  0.97593  1.0000
  C   C2871     1.0  0.70095  0.68780  0.75026  1.0000
  H   H2297     1.0  0.82603  0.49986  0.74974  1.0000
  C   C2872     1.0  0.53712  0.62817  0.75677  1.0000
  C   C2873     1.0  0.75565  0.72864  0.98711  1.0000
  S   S384      1.0  0.51570  0.77532  0.75752  1.0000
  H   H2298     1.0  0.90576  0.64192  0.75690  1.0000
  C   C2874     1.0  0.87507  0.63153  0.74924  1.0000
  H   H2299     1.0  0.81338  0.76160  0.99142  1.0000
  H   H2300     1.0  0.67521  0.79753  0.74932  1.0000
  H   H2301     1.0  0.68584  0.68049  0.74867  1.0000
  P   P96       1.0  0.53054  0.67588  0.75388  1.0000
  H   H2302     1.0  0.51893  0.62870  0.76267  1.0000
  C   C2875     1.0  0.80900  0.50686  0.74588  1.0000
  C   C2876     1.0  0.79331  0.74406  0.74541  1.0000
  C   C2877     1.0  0.55057  0.60702  0.75472  1.0000
  H   H2303     1.0  0.54277  0.59150  0.75929  1.0000
  C   C2878     1.0  0.54722  0.64830  0.75112  1.0000
  C   C2879     1.0  0.62302  0.84597  0.74504  1.0000
  C   C2880     1.0  0.57410  0.60588  0.74694  1.0000
  H   H2304     1.0  0.58464  0.58952  0.74574  1.0000
