data_image0
_chemical_formula_structural       FeS2FeSFeSFeS3H2FeS3FeS2CSFeSFeSHSCSFeS2FeSFeS3H2C7H4CHC2HC6H4CHFeC7H4C6H4C4HC4H2PCH2C2HC12HCHC6H4CH4C3H5CHCHCH2C5H2CHCH3SC8HCH5CH2C6PC3HC9H5CHCH5CHCHCHC3HCHC2HCHCHC3HC2HC3H2PH5C2H2C2HCHC7PC4HC13H7CH8C2H4C2H2CHC3HC2H3C2HC2HCPH2C2H2C2H3C4H3C2H2C2H3C6SFeS3FeSFeS2FeS2FeS2FeSCS4FeS2FeS2Fe2S3C2H2CH3C6H6CHPC6H4C6H7C6H4C2H2CSHC2HC2H3C3HCHC4H2C3HCH2C6HC2H3PH4CPC3HCHC5HC3H3FeH4CH2C3HC5H3C2H4C4HCHC3H2CHC3HC2H5C2H6CH3C6HCH2C4HCH3C11FeHCH2C2HPCHC2H5PHC2HC4H3CHC2PC3HC2HC2H3C3HCHCH2C2HCHC4H4CHC4HCSFeS3FeSFeS4FeS2FeSFeS2FeS2FeS2Fe2S4HC7H4C6H4CHCHCH2C6H4C2H2CHC6H5CH2SH3C7PC19H5CH14C4HC3H3CHCH3CH5CH3C3HC3HCH2CHC2H3CHCH2CHCH2CH3CHC2H2C2HC9PCPHC2HC10HC2H3CPH3CH3CH2CHCHCHC2HCHPCHC2PH3C2PCH2CH2C14H2CSC4PC15H4C2H14CHC7PHC3HC2FeH3CHCHC2H2C4H2CHCHCH2CH2C3HCHCHC2H5C2HC2HCHC2HCHCHCHCHSFeS2FeS2FeSCS2CSFeS2FeSFeHS3HSHFeSFeS2FeSFeS3PC2HCHCHC2H4CPC6H4C8H4C6H4C6H9CH2C2HC2HC2FeCH2C2H4CH3C3H3C3H2CH2C2HC2H5CHPHC2HCHCH2CH2C2H2C3HC2HCHC2H3CHC2HCHC2HC2H3C2HC5H4C2PH2C5H2CH5CH2C2HC3HC6HC2HCHCHC9PC2HC11HCH14C2HC3HC3HC2SCH2C3HCHCHC2H4C4H2C4PC2HCHCH2CH2CFeH2CHCHC2H5C5H3CHFeCH2SFeS2FeSFeS3C2SFeS2CSFeSFeS3FeSFeS2FeSFeS3CSCSCHC6H4C3H2C6H5C6H5C8H4CH4C2PHC2H3C6H2C3H4C3HFeC2H2CHC4HC6PC3HC10H2C2H5C3H9C4H5C2HC3HCFeH3C2H6C3PHCHC2HC4PC9H2C10H4CH3C3H6C2H2CHPCHFeHC2HCHC4HCH2CHC3H2C4H6CHC2HCHC2H5C2H2CHC3H4CHC4H2CHCHCHC2H2C2PHC4H2CH4CH4C3H2FeS2FeSFeCFeS3FeSFeS2FeSFeS2HS2FeS2FeSFeS3CH3C6HC6H4C6H9C6H5C9H6CHCH3C2H2CH4CHCHCHCH2SH2C3HC2H2C2H4C2HPHC2HC2H2SHC2HC3H2C3HC9PC4HC8HCHCHCH6CH8CPCHC4PC20H7C3H2CH3CH2C3HC4PC2HC9HCH12CH4C2HCH2CHCHCHC2SCHC3H2C2HC6SC2H4C4H3PH4C2HCHC3HCHC2FeHC2HCH5CHCHCHCSFeS2FeS2Fe2S4FeS2FeSFeS4FeS2FeSFeS2HSCH4C6H4C8H4CH2C7H4CH3CH2CHC6H4CHC3HCHCHC4H4CHC4H2CH2CHC2H3C6HCH2C2HC6HPC3H2CH4CH2C2FeCH2SCPH2C5HSHC2H3CH2CH2C2FeCH4CHC5HC2HC4H3CHC2HC6HCHC5PC18H2CH15CHCH2CH2C2HC5HCH3C2HC2HPHCH5CHC3HCHCHCH2CH2C2H4C3HC2HC3H2C3HCH2C2PH2C3S2FeS2FeSFeCFeS3FeS2FeS2HFeS4FeS2FeS2HFeS3HC3H2CH2CHCHC6H4C2HC6H4C6H4C2PHC7H4CH5CHC5HCHCHFeC3H2C2H5CHCHCH3C3H3PC19HCHCH6C4H6C5H2C5H3C2H5C3HC2HCHCHCHCHC2HC2PCHC2HC2HC2H2C5HC6PC16H6CH10CHC3PC2HC2H2C9H3CHCH12C3HCH3SH2CHC2H3CFeC3HCH2CHC2H2CHC2HC2H2C2H2C3P2HCH2C4SFeS2FeS2FeSHS2FeS2FeS2FeSFeS4FeS2FeSFeS3C2H4C3HC2HC6H4C6H4C6H4C6H4C9HCH2C2H2C3HCHCH5CH3C2HCH2CHC3HC3H3CHCPC7H2CSHC2H5CHC2H2PHC3HCH5CH2CH4C2HCH2CH3FeC3H4C4H5CHC11HCHC4HPC2HC11HC5HCHCH4C3H4C6PC7HC6HCH2CH2C3HC4HCHC2HC3PH3C2H9CHCH5C3HC2H3C2H2CH4FeCH2FeS2FeS2CFeS3HSCSHSFeS2FeSFeS3FeS2FeSFeSFeS3PC7H4C6H5CSH2C6H4C6H7PCHC3HCHCHC2H3C4HCHC2H2CHC2HCH2C3HPCHCHC2HC6HCHCHC4HC4HCHCH6CHC3HCHC3H7CFeH2C5H3FeH2C2H4C4HC2HC2H2C5HCHCHCH2CHC2H2C3H2C2HC3H2C3HCH2C2H2CHC7HC2HPHCH2C8PH5C2H2CH3CH3C3H3C3HCH4CH2C2HCHC3H2CH5C2HSPSFeS2FeSFeS2FeSCFeS2FeSFeS3FeS2CSFeSFeS3HC2HC2H3CHC6H4C6H4C3H2C6H5C6H4CH2CHSC3HFeH2CHCFeH3C3HCHCH3CH5CH4CHCHCH2C2HC3HC2HCH2CHC2HC2HC3HCSC2HC3H3C2HC4HC3HCH2CHC4HC3HC6H2PFeHCHCH4PC3HC4H2C5HCH2PH3C4H3C9H2C2HC3H2CH3CH3CH2SH2CHC3HCHCH2C7H2PH3C3H2C5H2CHCH2C2FeS2FeSFeSFeS6FeS3FeSFeS4FeS2FeSFeS2C2HC6H4C2H3C6H5C2HC6H4CH2C7H4CHC2HC2H2CHC2HCHC2HC2HC2H3C2H4C4H6C2HC3HCHC2HCHC2H3C6PC8H3C5HCH7CH4C2H8C3HC3H2C2HC3HC4H5CHC2H2C2HPC3PC10H2C10H2C2H3SCH7C10HC3HC6PC3HPC2HC7H7C2H8CH2FeHCH2C5HC4HCH2CHC2HC3HC2PH8C2PH2CHCHC4H3CSCSHFeS2FeS2FeSCS2FeHFeS2FeS4FeS2FeS2Fe2S3CHC2H2C3HC6H4C6H6C6H4C4HC6H3CH2SC3H2CH2C7PC7HC2HC7H6CH5FeCHC2H2C6PCHC7H2C4H2CH6C2HCH2C2H3C2HCH5C2PC2HC2H2C3HC4H6CH2C4H2C2H3C3H3C2H2C2HC3H2C3HCH2CH2CH2C3H2CHC4H2C3HC3H2C3HC3H3CHPCHSCHCHC2H2C2HCH4CHCH5C2H2C3HCH2C4FeS2CSFeCFeS3H2SFeS2FeCSHFeS3HSFeS2FeSFeS2H2SCH4C7H4C6H4FeCH2C7H5C4H3C6H4CH2CSPC4HCH2C6HCH2SHC3HCH2CPCH2C6HC6PC10H3CH12C2SCHC2PC5HC7H4C2H5CHC2HCH3C6PC3H2C13H7C2H11C3HC4H2C3H2CH2CH2C2H2C2FeH5CHC5HCSC2HCH2C2H2C6H3CHC2HFeCHCH3C4HC5HC2HCH2CHCHCHFeSCFeS2FeSHS2FeS3FeSFeS5FeS2FeS2Fe2S3HCSHC2H3C2HC2H2C6H4C6H4C9H4C6H4CH2C4HC2HCPH2C2H4C3H2C2H3FeHCHCH2PHC2HC7HC2H2CHCH3C3HC4H2C2H3CH8CHCHCHCHC5H2CSCHC2H2CHC4HCHPC4HC15H4CHCH4CH6CH2C5PC2HC4HCH2CHCH3C17PC4H10PCH2CH4CHC3PCH3C2HC2H2C2H2CPCH2C2H4CHC4HCHC3FeH2C3H2C3HCH2C2HCH5CH3CHC3HC2H2PH3FeSFeS2FeS4HSFeS2FeSFeS3FeSCFeS2FeSFeS4CHP2HC6H4C3HC7H4C6H4C7H4C2HCHCHCH4CHCHC2HC2HC2H2CH2C6HC2H2C3H2CHC2HC2H3CHC2HCH4C4H6CHCHCHCSHCH3CHCHCH3CHC4FeH2CHCH2PCHC8HCH5C3PHC3H3C4H2C2SCHPC7PC15HC2H20C3HCHC3FeC7HCH4C3HCH2C2HC8HCHC2HC2H4C2H2CHC5H4C3HCH
_chemical_formula_sum              "Fe192 S384 H2304 C2880 P96"
_cell_length_a       56.8005
_cell_length_b       56.7746
_cell_length_c       56.8599
_cell_angle_alpha    89.61
_cell_angle_beta     89.7463
_cell_angle_gamma    89.6968

_space_group_name_H-M_alt    "P 1"
_space_group_IT_number       1

loop_
  _space_group_symop_operation_xyz
  'x, y, z'

loop_
  _atom_site_type_symbol
  _atom_site_label
  _atom_site_symmetry_multiplicity
  _atom_site_fract_x
  _atom_site_fract_y
  _atom_site_fract_z
  _atom_site_occupancy
  Fe  Fe1       1.0  0.35554  0.17408  0.04717  1.0000
  S   S1        1.0  0.32052  0.16987  0.06540  1.0000
  S   S2        1.0  0.38832  0.19358  0.06173  1.0000
  Fe  Fe2       1.0  0.33726  0.14644  0.00312  1.0000
  S   S3        1.0  0.30122  0.14196  0.01902  1.0000
  Fe  Fe3       1.0  0.30439  0.17991  0.03030  1.0000
  S   S4        1.0  0.27776  0.21068  0.03061  1.0000
  Fe  Fe4       1.0  0.32089  0.13213  0.05243  1.0000
  S   S5        1.0  0.30756  0.09942  0.07304  1.0000
  S   S6        1.0  0.33942  0.18504  0.01255  1.0000
  S   S7        1.0  0.35682  0.13564  0.03606  1.0000
  H   H1        1.0  0.16033  0.21658  0.09340  1.0000
  H   H2        1.0  0.11878  0.99593  0.23170  1.0000
  Fe  Fe5       1.0  0.34172  0.15068  0.47759  1.0000
  S   S8        1.0  0.01843  0.12183  0.34522  1.0000
  S   S9        1.0  0.30385  0.14962  0.46483  1.0000
  S   S10       1.0  0.35373  0.01126  0.12861  1.0000
  Fe  Fe6       1.0  0.31787  0.13490  0.43066  1.0000
  S   S11       1.0  0.32424  0.17063  0.41445  1.0000
  S   S12       1.0  0.30373  0.10408  0.40813  1.0000
  C   C1        1.0  0.25861  0.22372  0.00935  1.0000
  S   S13       1.0  0.34817  0.18736  0.46389  1.0000
  Fe  Fe7       1.0  0.31135  0.18548  0.44913  1.0000
  S   S14       1.0  0.28241  0.21396  0.44593  1.0000
  Fe  Fe8       1.0  0.36044  0.16911  0.43067  1.0000
  S   S15       1.0  0.39470  0.18217  0.41325  1.0000
  H   H3        1.0  0.05579  0.05155  0.20607  1.0000
  S   S16       1.0  0.35515  0.13261  0.44486  1.0000
  C   C2        1.0  0.31893  0.06776  0.01373  1.0000
  S   S17       1.0  0.14771  0.01249  0.29501  1.0000
  Fe  Fe9       1.0  0.18469  0.04605  0.34210  1.0000
  S   S18       1.0  0.17565  0.06084  0.30630  1.0000
  S   S19       1.0  0.20273  0.07193  0.36773  1.0000
  Fe  Fe10      1.0  0.13898  0.04711  0.31243  1.0000
  S   S20       1.0  0.10557  0.06603  0.29923  1.0000
  Fe  Fe11      1.0  0.18532  0.02495  0.29222  1.0000
  S   S21       1.0  0.20666  0.02414  0.25770  1.0000
  S   S22       1.0  0.14711  0.03384  0.34879  1.0000
  S   S23       1.0  0.19602  0.01065  0.32768  1.0000
  H   H4        1.0  0.39922  0.01566  0.01340  1.0000
  H   H5        1.0  0.13703  0.22198  0.12980  1.0000
  C   C3        1.0  0.08539  0.02643  0.26230  1.0000
  C   C4        1.0  0.27540  0.09554  0.39707  1.0000
  C   C5        1.0  0.25495  0.10891  0.40080  1.0000
  C   C6        1.0  0.23304  0.10132  0.39182  1.0000
  C   C7        1.0  0.23114  0.08047  0.37857  1.0000
  C   C8        1.0  0.25167  0.06725  0.37457  1.0000
  C   C9        1.0  0.27348  0.07459  0.38398  1.0000
  H   H6        1.0  0.25600  0.12503  0.41073  1.0000
  H   H7        1.0  0.21739  0.11175  0.39508  1.0000
  H   H8        1.0  0.25066  0.05117  0.36456  1.0000
  H   H9        1.0  0.28895  0.06377  0.38132  1.0000
  C   C10       1.0  0.99463  0.00424  0.27866  1.0000
  H   H10       1.0  0.10742  0.15416  0.32888  1.0000
  C   C11       1.0  0.48043  0.23452  0.25865  1.0000
  C   C12       1.0  0.14203  0.23716  0.11930  1.0000
  H   H11       1.0  0.23241  0.02528  0.21417  1.0000
  C   C13       1.0  0.04225  0.10580  0.33222  1.0000
  C   C14       1.0  0.06211  0.10019  0.34598  1.0000
  C   C15       1.0  0.08155  0.08782  0.33641  1.0000
  C   C16       1.0  0.08133  0.08077  0.31289  1.0000
  C   C17       1.0  0.06137  0.08614  0.29922  1.0000
  C   C18       1.0  0.04200  0.09862  0.30871  1.0000
  H   H12       1.0  0.06256  0.10565  0.36417  1.0000
  H   H13       1.0  0.09674  0.08390  0.34719  1.0000
  H   H14       1.0  0.06097  0.08056  0.28112  1.0000
  H   H15       1.0  0.02694  0.10279  0.29785  1.0000
  C   C19       1.0  0.06725  0.20399  0.06056  1.0000
  H   H16       1.0  0.00257  0.19770  0.09659  1.0000
  Fe  Fe12      1.0  0.15755  0.99974  0.33101  1.0000
  C   C20       1.0  0.99928  0.23714  0.03019  1.0000
  C   C21       1.0  0.45616  0.14428  0.37511  1.0000
  C   C22       1.0  0.43631  0.13147  0.38273  1.0000
  C   C23       1.0  0.41775  0.14249  0.39522  1.0000
  C   C24       1.0  0.41871  0.16660  0.40012  1.0000
  C   C25       1.0  0.43881  0.17927  0.39299  1.0000
  C   C26       1.0  0.45739  0.16823  0.38058  1.0000
  H   H17       1.0  0.43521  0.11290  0.37875  1.0000
  H   H18       1.0  0.40249  0.13246  0.40060  1.0000
  H   H19       1.0  0.43979  0.19790  0.39667  1.0000
  H   H20       1.0  0.47251  0.17833  0.37495  1.0000
  C   C27       1.0  0.32102  0.07444  0.08727  1.0000
  C   C28       1.0  0.30651  0.05674  0.09700  1.0000
  C   C29       1.0  0.31612  0.03716  0.10928  1.0000
  C   C30       1.0  0.34052  0.03497  0.11217  1.0000
  C   C31       1.0  0.35506  0.05242  0.10206  1.0000
  C   C32       1.0  0.34545  0.07193  0.08964  1.0000
  H   H21       1.0  0.28761  0.05838  0.09532  1.0000
  H   H22       1.0  0.30462  0.02403  0.11691  1.0000
  H   H23       1.0  0.37394  0.05097  0.10402  1.0000
  H   H24       1.0  0.35694  0.08525  0.08230  1.0000
  C   C33       1.0  0.26883  0.23354  0.46650  1.0000
  C   C34       1.0  0.44046  0.16499  0.29580  1.0000
  C   C35       1.0  0.21521  0.13566  0.47719  1.0000
  C   C36       1.0  0.46448  0.20446  0.14523  1.0000
  H   H25       1.0  0.25399  0.19098  0.48499  1.0000
  C   C37       1.0  0.39543  0.21673  0.08203  1.0000
  C   C38       1.0  0.23351  0.19074  0.06839  1.0000
  C   C39       1.0  0.45571  0.12543  0.30236  1.0000
  C   C40       1.0  0.38239  0.07123  0.02521  1.0000
  H   H26       1.0  0.26132  0.99812  0.19544  1.0000
  H   H27       1.0  0.05523  0.04716  0.35708  1.0000
  P   P1        1.0  0.35640  0.03986  0.99806  1.0000
  C   C41       1.0  0.39704  0.01716  0.27805  1.0000
  H   H28       1.0  0.03491  0.23759  0.25559  1.0000
  H   H29       1.0  0.99755  0.04493  0.33265  1.0000
  C   C42       1.0  0.35251  0.00429  0.23233  1.0000
  C   C43       1.0  0.38564  0.08590  0.47251  1.0000
  H   H30       1.0  0.26055  0.06984  0.00072  1.0000
  C   C44       1.0  0.36479  0.03492  0.31079  1.0000
  C   C45       1.0  0.38820  0.04233  0.31120  1.0000
  C   C46       1.0  0.40427  0.03361  0.29470  1.0000
  C   C47       1.0  0.39086  0.99813  0.04595  1.0000
  C   C48       1.0  0.36762  0.01519  0.21598  1.0000
  C   C49       1.0  0.07843  0.22965  0.09236  1.0000
  C   C50       1.0  0.33406  0.02846  0.19319  1.0000
  C   C51       1.0  0.31889  0.01891  0.21012  1.0000
  C   C52       1.0  0.42550  0.22043  0.34263  1.0000
  C   C53       1.0  0.08423  0.21205  0.07627  1.0000
  C   C54       1.0  0.40692  0.21275  0.23827  1.0000
  C   C55       1.0  0.35840  0.02685  0.19627  1.0000
  H   H31       1.0  0.33922  0.01321  0.29374  1.0000
  C   C56       1.0  0.08556  0.99888  0.33867  1.0000
  H   H32       1.0  0.33780  0.99987  0.07358  1.0000
  C   C57       1.0  0.01054  0.04372  0.27994  1.0000
  C   C58       1.0  0.08797  0.04846  0.22575  1.0000
  C   C59       1.0  0.08300  0.21843  0.23609  1.0000
  C   C60       1.0  0.09864  0.03925  0.24591  1.0000
  C   C61       1.0  0.46255  0.20559  0.32734  1.0000
  C   C62       1.0  0.37357  0.99370  0.06294  1.0000
  H   H33       1.0  0.35244  0.04166  0.32367  1.0000
  H   H34       1.0  0.39391  0.05479  0.32434  1.0000
  H   H35       1.0  0.42241  0.03945  0.29492  1.0000
  H   H36       1.0  0.28019  0.00240  0.27321  1.0000
  C   C63       1.0  0.40080  0.09358  0.45467  1.0000
  H   H37       1.0  0.02139  0.07801  0.23572  1.0000
  H   H38       1.0  0.16036  0.00484  0.24154  1.0000
  H   H39       1.0  0.30000  0.02009  0.20770  1.0000
  H   H40       1.0  0.48082  0.15003  0.25374  1.0000
  C   C64       1.0  0.48377  0.22988  0.18235  1.0000
  C   C65       1.0  0.19911  0.22597  0.06209  1.0000
  C   C66       1.0  0.32598  0.04928  0.99895  1.0000
  H   H41       1.0  0.40277  0.20503  0.22143  1.0000
  H   H42       1.0  0.45577  0.18329  0.26580  1.0000
  H   H43       1.0  0.09855  0.15185  0.20845  1.0000
  H   H44       1.0  0.33710  0.15487  0.34632  1.0000
  H   H45       1.0  0.45690  0.19467  0.13084  1.0000
  C   C67       1.0  0.41861  0.23283  0.28145  1.0000
  H   H46       1.0  0.29213  0.12561  0.22967  1.0000
  C   C68       1.0  0.01420  0.01921  0.27990  1.0000
  H   H47       1.0  0.23770  0.20474  0.10313  1.0000
  C   C69       1.0  0.28379  0.00127  0.04251  1.0000
  H   H48       1.0  0.25019  0.17302  0.44592  1.0000
  H   H49       1.0  0.37448  0.18063  0.28573  1.0000
  C   C70       1.0  0.28979  0.00036  0.30977  1.0000
  C   C71       1.0  0.48819  0.20127  0.15122  1.0000
  C   C72       1.0  0.06045  0.03255  0.34599  1.0000
  C   C73       1.0  0.24087  0.16546  0.46083  1.0000
  C   C74       1.0  0.20456  0.21030  0.04381  1.0000
  H   H50       1.0  0.37701  0.06094  0.04040  1.0000
  H   H51       1.0  0.41358  0.12079  0.01264  1.0000
  C   C75       1.0  0.05069  0.03188  0.23826  1.0000
  H   H52       1.0  0.38283  0.23402  0.01909  1.0000
  C   C76       1.0  0.04990  0.02966  0.32403  1.0000
  H   H53       1.0  0.45674  0.10970  0.31323  1.0000
  H   H54       1.0  0.32775  0.02319  0.03835  1.0000
  H   H55       1.0  0.37304  0.15898  0.37041  1.0000
  S   S24       1.0  0.47847  0.12968  0.35836  1.0000
  C   C77       1.0  0.41441  0.19355  0.47387  1.0000
  C   C78       1.0  0.39434  0.17161  0.34156  1.0000
  C   C79       1.0  0.03885  0.23199  0.07636  1.0000
  C   C80       1.0  0.00008  0.10942  0.23469  1.0000
  C   C81       1.0  0.45511  0.16706  0.27589  1.0000
  C   C82       1.0  0.43784  0.20596  0.32680  1.0000
  C   C83       1.0  0.06403  0.04458  0.22181  1.0000
  C   C84       1.0  0.42014  0.10764  0.46009  1.0000
  H   H56       1.0  0.37020  0.07568  0.46825  1.0000
  C   C85       1.0  0.36238  0.02003  0.02241  1.0000
  H   H57       1.0  0.00894  0.20609  0.27159  1.0000
  H   H58       1.0  0.09827  0.05862  0.21326  1.0000
  H   H59       1.0  0.32022  0.10173  0.20615  1.0000
  H   H60       1.0  0.43272  0.21367  0.07544  1.0000
  H   H61       1.0  0.40795  0.17951  0.25645  1.0000
  C   C86       1.0  0.07183  0.22204  0.21452  1.0000
  H   H62       1.0  0.33150  0.07666  0.02482  1.0000
  H   H63       1.0  0.47518  0.09050  0.47481  1.0000
  C   C87       1.0  0.09113  0.15618  0.31921  1.0000
  C   C88       1.0  0.07039  0.16203  0.33112  1.0000
  C   C89       1.0  0.04937  0.16453  0.31870  1.0000
  C   C90       1.0  0.04884  0.16029  0.29453  1.0000
  C   C91       1.0  0.06948  0.15378  0.28247  1.0000
  C   C92       1.0  0.09081  0.15254  0.29491  1.0000
  P   P2        1.0  0.06875  0.14931  0.25100  1.0000
  C   C93       1.0  0.04200  0.13371  0.24394  1.0000
  C   C94       1.0  0.04215  0.10908  0.24151  1.0000
  C   C95       1.0  0.02124  0.09701  0.23706  1.0000
  H   H64       1.0  0.33803  0.16558  0.30386  1.0000
  C   C96       1.0  0.13381  0.23837  0.03954  1.0000
  C   C97       1.0  0.02058  0.14602  0.24158  1.0000
  C   C98       1.0  0.09391  0.13229  0.24102  1.0000
  C   C99       1.0  0.10261  0.11347  0.25464  1.0000
  C   C100      1.0  0.12226  0.10058  0.24717  1.0000
  C   C101      1.0  0.13324  0.10610  0.22584  1.0000
  C   C102      1.0  0.12451  0.12455  0.21194  1.0000
  C   C103      1.0  0.10493  0.13760  0.21946  1.0000
  C   C104      1.0  0.04458  0.21380  0.06066  1.0000
  H   H65       1.0  0.07045  0.16425  0.35004  1.0000
  H   H66       1.0  0.03323  0.16879  0.32803  1.0000
  H   H67       1.0  0.03218  0.16188  0.28552  1.0000
  H   H68       1.0  0.10722  0.14857  0.28606  1.0000
  H   H69       1.0  0.05826  0.09906  0.24338  1.0000
  C   C105      1.0  0.35743  0.01867  0.29399  1.0000
  H   H70       1.0  0.09405  0.01976  0.27793  1.0000
  C   C106      1.0  0.38537  0.01142  0.02587  1.0000
  H   H71       1.0  0.01974  0.16495  0.24380  1.0000
  H   H72       1.0  0.09441  0.10890  0.27124  1.0000
  H   H73       1.0  0.12910  0.08643  0.25815  1.0000
  H   H74       1.0  0.14859  0.09616  0.22022  1.0000
  H   H75       1.0  0.13308  0.12885  0.19541  1.0000
  C   C107      1.0  0.37348  0.16346  0.35182  1.0000
  H   H76       1.0  0.29008  0.08920  0.02594  1.0000
  C   C108      1.0  0.05933  0.20374  0.20415  1.0000
  H   H77       1.0  0.10179  0.20449  0.07616  1.0000
  C   C109      1.0  0.41611  0.20827  0.27985  1.0000
  H   H78       1.0  0.22553  0.13746  0.44071  1.0000
  C   C110      1.0  0.99981  0.13391  0.23675  1.0000
  C   C111      1.0  0.12633  0.23270  0.99804  1.0000
  C   C112      1.0  0.46952  0.14827  0.26905  1.0000
  H   H79       1.0  0.08696  0.01988  0.37001  1.0000
  C   C113      1.0  0.44113  0.14412  0.30917  1.0000
  H   H80       1.0  0.31588  0.99942  0.24231  1.0000
  C   C114      1.0  0.32803  0.00699  0.22970  1.0000
  C   C115      1.0  0.35378  0.16729  0.31438  1.0000
  H   H81       1.0  0.43225  0.22331  0.15279  1.0000
  C   C116      1.0  0.07499  0.99586  0.31675  1.0000
  H   H82       1.0  0.38654  0.01402  0.21799  1.0000
  C   C117      1.0  0.37366  0.00923  0.27789  1.0000
  H   H83       1.0  0.47255  0.19442  0.31561  1.0000
  C   C118      1.0  0.08183  0.19645  0.24726  1.0000
  C   C119      1.0  0.41922  0.22307  0.08510  1.0000
  C   C120      1.0  0.29536  0.07494  0.01445  1.0000
  H   H84       1.0  0.99084  0.23252  0.99356  1.0000
  C   C121      1.0  0.46005  0.23286  0.17648  1.0000
  C   C122      1.0  0.34521  0.01571  0.03975  1.0000
  H   H85       1.0  0.04876  0.16762  0.20672  1.0000
  C   C123      1.0  0.39670  0.09083  0.02877  1.0000
  C   C124      1.0  0.22813  0.20611  0.08673  1.0000
  C   C125      1.0  0.35083  0.00255  0.05986  1.0000
  H   H86       1.0  0.43107  0.11406  0.44580  1.0000
  H   H87       1.0  0.40992  0.17301  0.35231  1.0000
  P   P3        1.0  0.42204  0.18936  0.30495  1.0000
  H   H88       1.0  0.07162  0.18998  0.04841  1.0000
  H   H89       1.0  0.40975  0.01059  0.26540  1.0000
  H   H90       1.0  0.40644  0.22112  0.34250  1.0000
  H   H91       1.0  0.40221  0.09536  0.04639  1.0000
  H   H92       1.0  0.09066  0.19398  0.26393  1.0000
  C   C126      1.0  0.46980  0.12743  0.28225  1.0000
  C   C127      1.0  0.07834  0.01724  0.35326  1.0000
  H   H93       1.0  0.20751  0.23578  0.09786  1.0000
  H   H94       1.0  0.28535  0.00181  0.08040  1.0000
  C   C128      1.0  0.05694  0.01118  0.30923  1.0000
  C   C129      1.0  0.45049  0.22046  0.15769  1.0000
  H   H95       1.0  0.35999  0.22432  0.09324  1.0000
  C   C130      1.0  0.01882  0.23331  0.24649  1.0000
  H   H96       1.0  0.32702  0.03679  0.17746  1.0000
  C   C131      1.0  0.35321  0.16125  0.33825  1.0000
  C   C132      1.0  0.23699  0.09560  0.32007  1.0000
  C   C133      1.0  0.23890  0.11677  0.33225  1.0000
  C   C134      1.0  0.26089  0.12728  0.33492  1.0000
  C   C135      1.0  0.28104  0.11650  0.32560  1.0000
  C   C136      1.0  0.27936  0.09471  0.31413  1.0000
  C   C137      1.0  0.25708  0.08460  0.31098  1.0000
  P   P4        1.0  0.30541  0.08000  0.30310  1.0000
  C   C138      1.0  0.33060  0.08861  0.32059  1.0000
  C   C139      1.0  0.30010  0.04862  0.30562  1.0000
  C   C140      1.0  0.30256  0.03692  0.32732  1.0000
  C   C141      1.0  0.29756  0.01287  0.32932  1.0000
  H   H97       1.0  0.39712  0.08924  0.43653  1.0000
  C   C142      1.0  0.28681  0.01193  0.28824  1.0000
  C   C143      1.0  0.29171  0.03596  0.28619  1.0000
  C   C144      1.0  0.32860  0.09008  0.34518  1.0000
  C   C145      1.0  0.34769  0.09729  0.35876  1.0000
  C   C146      1.0  0.36895  0.10332  0.34795  1.0000
  C   C147      1.0  0.37107  0.10235  0.32349  1.0000
  C   C148      1.0  0.35203  0.09503  0.30984  1.0000
  C   C149      1.0  0.31031  0.08735  0.27249  1.0000
  C   C150      1.0  0.29812  0.10611  0.26179  1.0000
  C   C151      1.0  0.30173  0.11126  0.23794  1.0000
  C   C152      1.0  0.31755  0.09780  0.22467  1.0000
  C   C153      1.0  0.32984  0.07919  0.23524  1.0000
  C   C154      1.0  0.32623  0.07394  0.25904  1.0000
  H   H98       1.0  0.21995  0.08728  0.31847  1.0000
  H   H99       1.0  0.22335  0.12462  0.34015  1.0000
  H   H100      1.0  0.26237  0.14347  0.34477  1.0000
  H   H101      1.0  0.29789  0.12493  0.32793  1.0000
  H   H102      1.0  0.25511  0.06799  0.30197  1.0000
  H   H103      1.0  0.30793  0.04630  0.34286  1.0000
  H   H104      1.0  0.29927  0.00405  0.34620  1.0000
  C   C155      1.0  0.25436  0.99412  0.21274  1.0000
  H   H105      1.0  0.09145  0.23604  0.10462  1.0000
  H   H106      1.0  0.28830  0.04463  0.26952  1.0000
  H   H107      1.0  0.31211  0.08625  0.35396  1.0000
  H   H108      1.0  0.34577  0.09857  0.37773  1.0000
  H   H109      1.0  0.38362  0.10921  0.35853  1.0000
  H   H110      1.0  0.38744  0.10753  0.31511  1.0000
  H   H111      1.0  0.35417  0.09470  0.29097  1.0000
  H   H112      1.0  0.28566  0.11664  0.27171  1.0000
  C   C156      1.0  0.15529  0.23419  0.09873  1.0000
  C   C157      1.0  0.42223  0.17016  0.47399  1.0000
  H   H113      1.0  0.34206  0.06873  0.22494  1.0000
  H   H114      1.0  0.33577  0.05933  0.26691  1.0000
  H   H115      1.0  0.40097  0.19910  0.46151  1.0000
  H   H116      1.0  0.43101  0.14243  0.32525  1.0000
  C   C158      1.0  0.22165  0.19277  0.04701  1.0000
  C   C159      1.0  0.06937  0.17792  0.23693  1.0000
  H   H117      1.0  0.03158  0.20684  0.04879  1.0000
  H   H118      1.0  0.37009  0.03402  0.18291  1.0000
  C   C160      1.0  0.05827  0.18167  0.21517  1.0000
  H   H119      1.0  0.02533  0.05565  0.28047  1.0000
  C   C161      1.0  0.99103  0.23583  0.05348  1.0000
  C   C162      1.0  0.37831  0.22909  0.09491  1.0000
  C   C163      1.0  0.23787  0.00946  0.22341  1.0000
  H   H120      1.0  0.11715  0.04238  0.24924  1.0000
  C   C164      1.0  0.40313  0.10516  0.00977  1.0000
  C   C165      1.0  0.39502  0.17816  0.31771  1.0000
  H   H121      1.0  0.41465  0.15798  0.46157  1.0000
  H   H122      1.0  0.03683  0.04236  0.31862  1.0000
  H   H123      1.0  0.03218  0.02899  0.23493  1.0000
  C   C166      1.0  0.47601  0.14554  0.45054  1.0000
  C   C167      1.0  0.22811  0.00440  0.24569  1.0000
  H   H124      1.0  0.19631  0.21176  0.02682  1.0000
  C   C168      1.0  0.06118  0.02322  0.25895  1.0000
  C   C169      1.0  0.37456  0.17581  0.30413  1.0000
  H   H125      1.0  0.05022  0.20684  0.18771  1.0000
  C   C170      1.0  0.00411  0.21540  0.25564  1.0000
  P   P5        1.0  0.04386  0.00735  0.28049  1.0000
  H   H126      1.0  0.22653  0.18136  0.03255  1.0000
  H   H127      1.0  0.48144  0.11308  0.27733  1.0000
  C   C171      1.0  0.27870  0.06391  0.00035  1.0000
  C   C172      1.0  0.47471  0.21984  0.34308  1.0000
  H   H128      1.0  0.46832  0.16289  0.45225  1.0000
  H   H129      1.0  0.28466  0.99620  0.00534  1.0000
  C   C173      1.0  0.37476  0.06546  0.00245  1.0000
  C   C174      1.0  0.22702  0.14545  0.45790  1.0000
  H   H130      1.0  0.27708  0.01914  0.04111  1.0000
  H   H131      1.0  0.24740  0.17770  0.07042  1.0000
  H   H132      1.0  0.20453  0.12009  0.47488  1.0000
  C   C175      1.0  0.21101  0.22366  0.08363  1.0000
  C   C176      1.0  0.40986  0.19839  0.25816  1.0000
  C   C177      1.0  0.47088  0.12764  0.46692  1.0000
  C   C178      1.0  0.24301  0.17562  0.48304  1.0000
  H   H133      1.0  0.99597  0.00157  0.32896  1.0000
  H   H134      1.0  0.47106  0.21395  0.44989  1.0000
  H   H135      1.0  0.09237  0.23278  0.24423  1.0000
  C   C179      1.0  0.43772  0.23428  0.35870  1.0000
  C   C180      1.0  0.14996  0.23735  0.99306  1.0000
  H   H136      1.0  0.40867  0.99181  0.04871  1.0000
  H   H137      1.0  0.09984  0.23007  0.02512  1.0000
  C   C181      1.0  0.47993  0.10488  0.46312  1.0000
  C   C182      1.0  0.42486  0.11370  0.48357  1.0000
  H   H138      1.0  0.99093  0.22419  0.33506  1.0000
  H   H139      1.0  0.46256  0.22830  0.25748  1.0000
  H   H140      1.0  0.35538  0.23759  0.05254  1.0000
  C   C183      1.0  0.11822  0.23336  0.02127  1.0000
  C   C184      1.0  0.99624  0.21021  0.10948  1.0000
  C   C185      1.0  0.46232  0.23409  0.35884  1.0000
  C   C186      1.0  0.99726  0.23451  0.10483  1.0000
  C   C187      1.0  0.28853  0.99158  0.06466  1.0000
  C   C188      1.0  0.41002  0.23708  0.23992  1.0000
  S   S25       1.0  0.34841  0.13403  0.96612  1.0000
  Fe  Fe13      1.0  0.43534  0.13896  0.67572  1.0000
  S   S26       1.0  0.42204  0.17511  0.66486  1.0000
  S   S27       1.0  0.40831  0.11585  0.69649  1.0000
  S   S28       1.0  0.47158  0.18437  0.63816  1.0000
  Fe  Fe14      1.0  0.45796  0.18846  0.67533  1.0000
  S   S29       1.0  0.45980  0.22294  0.69685  1.0000
  Fe  Fe15      1.0  0.43683  0.16776  0.62866  1.0000
  S   S30       1.0  0.42282  0.17969  0.59228  1.0000
  S   S31       1.0  0.44837  0.13107  0.63861  1.0000
  Fe  Fe16      1.0  0.29766  0.02211  0.81111  1.0000
  S   S32       1.0  0.33281  0.00597  0.80158  1.0000
  S   S33       1.0  0.26401  0.02164  0.78837  1.0000
  Fe  Fe17      1.0  0.31767  0.04435  0.85706  1.0000
  S   S34       1.0  0.35375  0.02967  0.84958  1.0000
  S   S35       1.0  0.30547  0.06019  0.89250  1.0000
  Fe  Fe18      1.0  0.34840  0.04122  0.81149  1.0000
  S   S36       1.0  0.37969  0.05954  0.79202  1.0000
  C   C189      1.0  0.23833  0.22440  0.97163  1.0000
  S   S37       1.0  0.31305  0.05785  0.81974  1.0000
  S   S38       1.0  0.29930  0.01012  0.84897  1.0000
  S   S39       1.0  0.13816  0.00983  0.64050  1.0000
  S   S40       1.0  0.35329  0.13727  0.51417  1.0000
  Fe  Fe19      1.0  0.05761  0.13182  0.66572  1.0000
  S   S41       1.0  0.04206  0.13882  0.62991  1.0000
  S   S42       1.0  0.07558  0.09718  0.67839  1.0000
  Fe  Fe20      1.0  0.03707  0.17911  0.68482  1.0000
  S   S43       1.0  0.02010  0.18779  0.65021  1.0000
  S   S44       1.0  0.03848  0.20781  0.71303  1.0000
  Fe  Fe21      1.0  0.00913  0.14955  0.64975  1.0000
  Fe  Fe22      1.0  0.05458  0.17670  0.63374  1.0000
  S   S45       1.0  0.07192  0.19737  0.60268  1.0000
  S   S46       1.0  0.02411  0.14160  0.68547  1.0000
  S   S47       1.0  0.07205  0.16889  0.66846  1.0000
  C   C190      1.0  0.08842  0.22364  0.59579  1.0000
  C   C191      1.0  0.09650  0.22730  0.57253  1.0000
  H   H141      1.0  0.09276  0.21417  0.55938  1.0000
  H   H142      1.0  0.21832  0.05944  0.72311  1.0000
  C   C192      1.0  0.01641  0.22077  0.73118  1.0000
  H   H143      1.0  0.25645  0.04236  0.71130  1.0000
  H   H144      1.0  0.30173  0.07904  0.63186  1.0000
  H   H145      1.0  0.19073  0.16062  0.55119  1.0000
  C   C193      1.0  0.12017  0.03360  0.65135  1.0000
  C   C194      1.0  0.11399  0.05225  0.63599  1.0000
  C   C195      1.0  0.10012  0.07157  0.64371  1.0000
  C   C196      1.0  0.09228  0.07270  0.66708  1.0000
  C   C197      1.0  0.09816  0.05387  0.68234  1.0000
  C   C198      1.0  0.11190  0.03449  0.67458  1.0000
  H   H146      1.0  0.12014  0.05185  0.61797  1.0000
  H   H147      1.0  0.09585  0.08576  0.63166  1.0000
  H   H148      1.0  0.09224  0.05442  0.70043  1.0000
  H   H149      1.0  0.11639  0.02041  0.68669  1.0000
  H   H150      1.0  0.21494  0.10912  0.60122  1.0000
  H   H151      1.0  0.05612  0.18696  0.80979  1.0000
  C   C199      1.0  0.02195  0.01738  0.62717  1.0000
  H   H152      1.0  0.22452  0.02708  0.75749  1.0000
  P   P6        1.0  0.44963  0.13249  0.49024  1.0000
  C   C200      1.0  0.37299  0.14933  0.53544  1.0000
  C   C201      1.0  0.38413  0.17107  0.53223  1.0000
  C   C202      1.0  0.39915  0.18002  0.54981  1.0000
  C   C203      1.0  0.40343  0.16742  0.57085  1.0000
  C   C204      1.0  0.39252  0.14554  0.57391  1.0000
  C   C205      1.0  0.37743  0.13663  0.55637  1.0000
  H   H153      1.0  0.38106  0.18108  0.51627  1.0000
  H   H154      1.0  0.40748  0.19691  0.54713  1.0000
  H   H155      1.0  0.39558  0.13553  0.58988  1.0000
  H   H156      1.0  0.36900  0.11979  0.55912  1.0000
  C   C206      1.0  0.40082  0.10010  0.72319  1.0000
  C   C207      1.0  0.37745  0.09239  0.72673  1.0000
  C   C208      1.0  0.37059  0.08006  0.74746  1.0000
  C   C209      1.0  0.38707  0.07493  0.76509  1.0000
  C   C210      1.0  0.41050  0.08235  0.76139  1.0000
  C   C211      1.0  0.41728  0.09493  0.74082  1.0000
  H   H157      1.0  0.36446  0.09609  0.71333  1.0000
  H   H158      1.0  0.35254  0.07452  0.74976  1.0000
  H   H159      1.0  0.42358  0.07822  0.77457  1.0000
  H   H160      1.0  0.43533  0.10030  0.73844  1.0000
  H   H161      1.0  0.18224  0.13044  0.58147  1.0000
  H   H162      1.0  0.43177  0.14102  0.53775  1.0000
  H   H163      1.0  0.35028  0.02397  0.70302  1.0000
  C   C212      1.0  0.33643  0.11278  0.94639  1.0000
  C   C213      1.0  0.31537  0.10085  0.95097  1.0000
  C   C214      1.0  0.30627  0.08487  0.93434  1.0000
  C   C215      1.0  0.31811  0.08036  0.91296  1.0000
  C   C216      1.0  0.33942  0.09193  0.90861  1.0000
  C   C217      1.0  0.34842  0.10803  0.92516  1.0000
  H   H164      1.0  0.30595  0.10411  0.96721  1.0000
  H   H165      1.0  0.28987  0.07598  0.93806  1.0000
  H   H166      1.0  0.34885  0.08867  0.89237  1.0000
  H   H167      1.0  0.36477  0.11702  0.92139  1.0000
  C   C218      1.0  0.12296  0.20524  0.77551  1.0000
  C   C219      1.0  0.47859  0.11506  0.56441  1.0000
  H   H168      1.0  0.37270  0.14673  0.73367  1.0000
  H   H169      1.0  0.37812  0.99447  0.98279  1.0000
  C   C220      1.0  0.44096  0.20244  0.50570  1.0000
  S   S48       1.0  0.47079  0.15273  0.68718  1.0000
  H   H170      1.0  0.04984  0.23267  0.66876  1.0000
  C   C221      1.0  0.24727  0.00553  0.87696  1.0000
  C   C222      1.0  0.02159  0.10079  0.57673  1.0000
  H   H171      1.0  0.05176  0.04092  0.63040  1.0000
  C   C223      1.0  0.46136  0.12552  0.51916  1.0000
  C   C224      1.0  0.29249  0.21745  0.55019  1.0000
  H   H172      1.0  0.37289  0.99919  0.90773  1.0000
  H   H173      1.0  0.04803  0.21351  0.90832  1.0000
  H   H174      1.0  0.41157  0.11119  0.51939  1.0000
  C   C225      1.0  0.41006  0.19217  0.72306  1.0000
  C   C226      1.0  0.00925  0.06435  0.60797  1.0000
  C   C227      1.0  0.08881  0.19575  0.75218  1.0000
  H   H175      1.0  0.02819  0.08788  0.69483  1.0000
  C   C228      1.0  0.99963  0.08696  0.61069  1.0000
  H   H176      1.0  0.26031  0.00289  0.62280  1.0000
  C   C229      1.0  0.28663  0.00502  0.71906  1.0000
  C   C230      1.0  0.02270  0.19320  0.56463  1.0000
  C   C231      1.0  0.99679  0.21964  0.81893  1.0000
  C   C232      1.0  0.06292  0.00480  0.62940  1.0000
  H   H177      1.0  0.02661  0.17616  0.55707  1.0000
  H   H178      1.0  0.31384  0.02332  0.97396  1.0000
  C   C233      1.0  0.37288  0.00446  0.96747  1.0000
  C   C234      1.0  0.26992  0.01915  0.62502  1.0000
  C   C235      1.0  0.24854  0.00077  0.77083  1.0000
  H   H179      1.0  0.99671  0.98888  0.62684  1.0000
  C   C236      1.0  0.21730  0.14580  0.49945  1.0000
  H   H180      1.0  0.48156  0.22759  0.55582  1.0000
  H   H181      1.0  0.32100  0.17452  0.51978  1.0000
  C   C237      1.0  0.42566  0.18870  0.74172  1.0000
  C   C238      1.0  0.47988  0.19644  0.79140  1.0000
  C   C239      1.0  0.42104  0.16571  0.82640  1.0000
  C   C240      1.0  0.00543  0.21657  0.59575  1.0000
  C   C241      1.0  0.20574  0.20947  0.55690  1.0000
  C   C242      1.0  0.38118  0.08012  0.98351  1.0000
  H   H182      1.0  0.35222  0.03759  0.91119  1.0000
  C   C243      1.0  0.08044  0.22337  0.85079  1.0000
  C   C244      1.0  0.30900  0.03787  0.98523  1.0000
  H   H183      1.0  0.24138  0.03948  0.86080  1.0000
  H   H184      1.0  0.22435  0.02292  0.82447  1.0000
  H   H185      1.0  0.26985  0.02698  0.58787  1.0000
  P   P7        1.0  0.00041  0.04095  0.62764  1.0000
  H   H186      1.0  0.00335  0.17872  0.59399  1.0000
  H   H187      1.0  0.18190  0.04947  0.70132  1.0000
  H   H188      1.0  0.47695  0.23825  0.64961  1.0000
  H   H189      1.0  0.33962  0.01572  0.74459  1.0000
  C   C245      1.0  0.38707  0.15890  0.73635  1.0000
  P   P8        1.0  0.26971  0.00930  0.67330  1.0000
  C   C246      1.0  0.01579  0.06776  0.66546  1.0000
  C   C247      1.0  0.35428  0.03827  0.94903  1.0000
  C   C248      1.0  0.00573  0.10507  0.59507  1.0000
  H   H190      1.0  0.04317  0.07485  0.55936  1.0000
  C   C249      1.0  0.30369  0.00684  0.73661  1.0000
  H   H191      1.0  0.44783  0.21479  0.51834  1.0000
  C   C250      1.0  0.26457  0.18932  0.53453  1.0000
  C   C251      1.0  0.31981  0.21203  0.95588  1.0000
  C   C252      1.0  0.30959  0.19135  0.94760  1.0000
  C   C253      1.0  0.29024  0.19256  0.93257  1.0000
  C   C254      1.0  0.28124  0.21448  0.92561  1.0000
  H   H192      1.0  0.29445  0.22895  0.49388  1.0000
  C   C255      1.0  0.48355  0.11478  0.52200  1.0000
  C   C256      1.0  0.27505  0.03290  0.60515  1.0000
  C   C257      1.0  0.03568  0.99874  0.68591  1.0000
  H   H193      1.0  0.31666  0.17434  0.95296  1.0000
  H   H194      1.0  0.28225  0.17645  0.92640  1.0000
  H   H195      1.0  0.26611  0.21536  0.91409  1.0000
  Fe  Fe23      1.0  0.48261  0.14814  0.64918  1.0000
  H   H196      1.0  0.20807  0.13779  0.51406  1.0000
  H   H197      1.0  0.44094  0.19998  0.74292  1.0000
  H   H198      1.0  0.14174  0.20384  0.77854  1.0000
  H   H199      1.0  0.27266  0.03692  0.97466  1.0000
  C   C258      1.0  0.46505  0.14504  0.77258  1.0000
  H   H200      1.0  0.25516  0.22013  0.55499  1.0000
  H   H201      1.0  0.42530  0.18418  0.82752  1.0000
  C   C259      1.0  0.20522  0.15163  0.55981  1.0000
  C   C260      1.0  0.22943  0.00866  0.75709  1.0000
  C   C261      1.0  0.45694  0.12652  0.56179  1.0000
  H   H202      1.0  0.99083  0.22273  0.68482  1.0000
  C   C262      1.0  0.30655  0.18435  0.52748  1.0000
  C   C263      1.0  0.44912  0.17916  0.50563  1.0000
  C   C264      1.0  0.24208  0.12752  0.58200  1.0000
  C   C265      1.0  0.20923  0.21799  0.51521  1.0000
  C   C266      1.0  0.21876  0.12244  0.58801  1.0000
  H   H203      1.0  0.29222  0.05522  0.66705  1.0000
  H   H204      1.0  0.47768  0.19278  0.58210  1.0000
  H   H205      1.0  0.99912  0.07124  0.72290  1.0000
  C   C267      1.0  0.25452  0.21375  0.98732  1.0000
  C   C268      1.0  0.22966  0.01125  0.83869  1.0000
  H   H206      1.0  0.45495  0.14504  0.73587  1.0000
  H   H207      1.0  0.20191  0.99947  0.73250  1.0000
  H   H208      1.0  0.29412  0.99755  0.91115  1.0000
  H   H209      1.0  0.29080  0.06495  0.59217  1.0000
  C   C269      1.0  0.31547  0.01682  0.68983  1.0000
  C   C270      1.0  0.00969  0.19464  0.58549  1.0000
  C   C271      1.0  0.40952  0.11786  0.82462  1.0000
  C   C272      1.0  0.40287  0.13124  0.84409  1.0000
  H   H210      1.0  0.07334  0.99778  0.69033  1.0000
  C   C273      1.0  0.99426  0.21069  0.73473  1.0000
  H   H211      1.0  0.34495  0.05492  0.95010  1.0000
  C   C274      1.0  0.42209  0.12832  0.80617  1.0000
  C   C275      1.0  0.21490  0.20368  0.53463  1.0000
  C   C276      1.0  0.42182  0.17050  0.75816  1.0000
  H   H212      1.0  0.21049  0.19929  0.57234  1.0000
  H   H213      1.0  0.46265  0.17403  0.51803  1.0000
  C   C277      1.0  0.40875  0.15511  0.84505  1.0000
  H   H214      1.0  0.40366  0.16540  0.86024  1.0000
  C   C278      1.0  0.23133  0.16586  0.50258  1.0000
  C   C279      1.0  0.10876  0.21839  0.79080  1.0000
  C   C280      1.0  0.40243  0.15553  0.75523  1.0000
  H   H215      1.0  0.37935  0.17930  0.70526  1.0000
  C   C281      1.0  0.04600  0.02279  0.62908  1.0000
  C   C282      1.0  0.02465  0.05996  0.58907  1.0000
  H   H216      1.0  0.03176  0.04251  0.58609  1.0000
  H   H217      1.0  0.99861  0.99454  0.68128  1.0000
  H   H218      1.0  0.99830  0.12252  0.59739  1.0000
  H   H219      1.0  0.40472  0.09939  0.82364  1.0000
  H   H220      1.0  0.39309  0.12309  0.85838  1.0000
  C   C283      1.0  0.07457  0.20879  0.76745  1.0000
  C   C284      1.0  0.01437  0.23721  0.58538  1.0000
  H   H221      1.0  0.42704  0.11770  0.79120  1.0000
  H   H222      1.0  0.02656  0.11497  0.56491  1.0000
  H   H223      1.0  0.23517  0.21634  0.95476  1.0000
  H   H224      1.0  0.21671  0.21455  0.49804  1.0000
  H   H225      1.0  0.39931  0.14082  0.76695  1.0000
  H   H226      1.0  0.48467  0.11567  0.72413  1.0000
  C   C285      1.0  0.24704  0.14469  0.56494  1.0000
  H   H227      1.0  0.37503  0.07690  0.96591  1.0000
  H   H228      1.0  0.05587  0.21011  0.76391  1.0000
  H   H229      1.0  0.09244  0.21212  0.88503  1.0000
  C   C286      1.0  0.28343  0.17659  0.52470  1.0000
  C   C287      1.0  0.23930  0.02059  0.85914  1.0000
  C   C288      1.0  0.22863  0.15707  0.55388  1.0000
  C   C289      1.0  0.45538  0.19374  0.78943  1.0000
  C   C290      1.0  0.03105  0.21371  0.55380  1.0000
  C   C291      1.0  0.35828  0.02844  0.92689  1.0000
  H   H230      1.0  0.26524  0.14820  0.56050  1.0000
  C   C292      1.0  0.11299  0.19390  0.75623  1.0000
  H   H231      1.0  0.29915  0.00297  0.75476  1.0000
  H   H232      1.0  0.02870  0.07529  0.65353  1.0000
  C   C293      1.0  0.29148  0.23521  0.93381  1.0000
  C   C294      1.0  0.36193  0.02662  0.96955  1.0000
  C   C295      1.0  0.24195  0.02165  0.68293  1.0000
  C   C296      1.0  0.47862  0.23512  0.71889  1.0000
  H   H233      1.0  0.08103  0.18718  0.73709  1.0000
  C   C297      1.0  0.38986  0.09225  0.49577  1.0000
  H   H234      1.0  0.37755  0.08718  0.50950  1.0000
  H   H235      1.0  0.03505  0.01773  0.68364  1.0000
  H   H236      1.0  0.02723  0.21491  0.86998  1.0000
  C   C298      1.0  0.24079  0.03752  0.70174  1.0000
  C   C299      1.0  0.21917  0.04746  0.70838  1.0000
  C   C300      1.0  0.19867  0.04185  0.69614  1.0000
  C   C301      1.0  0.19979  0.02651  0.67707  1.0000
  C   C302      1.0  0.22137  0.01660  0.67037  1.0000
  C   C303      1.0  0.08438  0.22002  0.78701  1.0000
  C   C304      1.0  0.44070  0.21353  0.79238  1.0000
  C   C305      1.0  0.31111  0.20471  0.54028  1.0000
  C   C306      1.0  0.28674  0.05435  0.60758  1.0000
  C   C307      1.0  0.29295  0.06225  0.62993  1.0000
  C   C308      1.0  0.28777  0.04857  0.64982  1.0000
  Fe  Fe24      1.0  0.33511  0.99603  0.84027  1.0000
  H   H237      1.0  0.01981  0.16437  0.81639  1.0000
  C   C309      1.0  0.99935  0.06538  0.70480  1.0000
  H   H238      1.0  0.32911  0.21054  0.54248  1.0000
  H   H239      1.0  0.07119  0.20711  0.84771  1.0000
  C   C310      1.0  0.99953  0.05101  0.65767  1.0000
  C   C311      1.0  0.32652  0.01396  0.73088  1.0000
  H   H240      1.0  0.25999  0.99492  0.93856  1.0000
  P   P9        1.0  0.44256  0.16566  0.78177  1.0000
  C   C312      1.0  0.01563  0.07490  0.68894  1.0000
  H   H241      1.0  0.33487  0.21061  0.96738  1.0000
  C   C313      1.0  0.99769  0.19508  0.81951  1.0000
  C   C314      1.0  0.33247  0.01871  0.70746  1.0000
  H   H242      1.0  0.44678  0.13156  0.57720  1.0000
  H   H243      1.0  0.22201  0.00503  0.65532  1.0000
  H   H244      1.0  0.39944  0.11151  0.97259  1.0000
  H   H245      1.0  0.11685  0.22721  0.80548  1.0000
  H   H246      1.0  0.99546  0.21734  0.61201  1.0000
  P   P10       1.0  0.06578  0.23753  0.80603  1.0000
  H   H247      1.0  0.12395  0.18375  0.74432  1.0000
  C   C315      1.0  0.03970  0.19639  0.81237  1.0000
  C   C316      1.0  0.01916  0.18345  0.81628  1.0000
  H   H248      1.0  0.04128  0.21252  0.53773  1.0000
  C   C317      1.0  0.03476  0.22689  0.90509  1.0000
  C   C318      1.0  0.43954  0.16273  0.49000  1.0000
  C   C319      1.0  0.01725  0.23266  0.81478  1.0000
  C   C320      1.0  0.48367  0.12124  0.74231  1.0000
  H   H249      1.0  0.18391  0.02236  0.66740  1.0000
  H   H250      1.0  0.28035  0.16056  0.51496  1.0000
  H   H251      1.0  0.25637  0.11812  0.59054  1.0000
  C   C321      1.0  0.42773  0.15237  0.80673  1.0000
  H   H252      1.0  0.41329  0.20608  0.71031  1.0000
  C   C322      1.0  0.20034  0.13446  0.57689  1.0000
  C   C323      1.0  0.39087  0.17719  0.72028  1.0000
  P   P11       1.0  0.23474  0.17888  0.53133  1.0000
  C   C324      1.0  0.44843  0.13180  0.53933  1.0000
  C   C325      1.0  0.27688  0.02656  0.64745  1.0000
  C   C326      1.0  0.03099  0.07821  0.57368  1.0000
  H   H253      1.0  0.42182  0.21197  0.79039  1.0000
  C   C327      1.0  0.26929  0.20984  0.54732  1.0000
  C   C328      1.0  0.03895  0.22116  0.81143  1.0000
  H   H254      1.0  0.26362  0.19769  0.98248  1.0000
  C   C329      1.0  0.29218  0.01076  0.69565  1.0000
  C   C330      1.0  0.02670  0.23569  0.56397  1.0000
  H   H255      1.0  0.32058  0.02017  0.67177  1.0000
  H   H256      1.0  0.29600  0.23335  0.55997  1.0000
  H   H257      1.0  0.32307  0.23837  0.86007  1.0000
  C   C331      1.0  0.39527  0.09986  0.98720  1.0000
  C   C332      1.0  0.09259  0.22606  0.87195  1.0000
  C   C333      1.0  0.48027  0.13499  0.78932  1.0000
  H   H258      1.0  0.18341  0.23312  0.57664  1.0000
  C   C334      1.0  0.40930  0.10613  0.50131  1.0000
  H   H259      1.0  0.35015  0.23744  0.82574  1.0000
  C   C335      1.0  0.28552  0.04537  0.98575  1.0000
  H   H260      1.0  0.25549  0.01291  0.89240  1.0000
  H   H261      1.0  0.47895  0.13999  0.80764  1.0000
  C   C336      1.0  0.46684  0.13801  0.74903  1.0000
  C   C337      1.0  0.45033  0.23555  0.79744  1.0000
  H   H262      1.0  0.41705  0.22759  0.49003  1.0000
  C   C338      1.0  0.31066  0.23413  0.94933  1.0000
  H   H263      1.0  0.04006  0.23424  0.62669  1.0000
  C   C339      1.0  0.36988  0.00680  0.92496  1.0000
  C   C340      1.0  0.21659  0.99302  0.74281  1.0000
  C   C341      1.0  0.19418  0.23739  0.51794  1.0000
  C   C342      1.0  0.01509  0.99365  0.62685  1.0000
  H   H264      1.0  0.26903  0.99943  0.72379  1.0000
  H   H265      1.0  0.08147  0.00908  0.63074  1.0000
  H   H266      1.0  0.98980  0.19455  0.72581  1.0000
  H   H267      1.0  0.48521  0.11112  0.58189  1.0000
  C   C343      1.0  0.27844  0.23791  0.48863  1.0000
  H   H268      1.0  0.11434  0.22883  0.98383  1.0000
  C   C344      1.0  0.02308  0.22764  0.88351  1.0000
  C   C345      1.0  0.47468  0.23800  0.79957  1.0000
  C   C346      1.0  0.42359  0.20963  0.48984  1.0000
  C   C347      1.0  0.19056  0.22876  0.55950  1.0000
  H   H269      1.0  0.15640  0.23702  0.97505  1.0000
  C   C348      1.0  0.37697  0.99471  0.94525  1.0000
  S   S49       1.0  0.13292  0.33886  0.01751  1.0000
  Fe  Fe25      1.0  0.44288  0.30097  0.15226  1.0000
  S   S50       1.0  0.42958  0.30957  0.18866  1.0000
  S   S51       1.0  0.41567  0.27793  0.13241  1.0000
  S   S52       1.0  0.47815  0.33715  0.19950  1.0000
  Fe  Fe26      1.0  0.46584  0.29931  0.20130  1.0000
  S   S53       1.0  0.46489  0.27106  0.23049  1.0000
  Fe  Fe27      1.0  0.44297  0.34653  0.18315  1.0000
  S   S54       1.0  0.42614  0.38185  0.19444  1.0000
  S   S55       1.0  0.45423  0.33897  0.14612  1.0000
  S   S56       1.0  0.35204  0.45559  0.14985  1.0000
  S   S57       1.0  0.19422  0.46979  0.34153  1.0000
  Fe  Fe28      1.0  0.14309  0.43484  0.31093  1.0000
  S   S58       1.0  0.17940  0.42050  0.31745  1.0000
  S   S59       1.0  0.11688  0.40754  0.29600  1.0000
  Fe  Fe29      1.0  0.17717  0.43590  0.35370  1.0000
  S   S60       1.0  0.19186  0.41851  0.38730  1.0000
  Fe  Fe30      1.0  0.19296  0.45545  0.30463  1.0000
  S   S61       1.0  0.22171  0.45068  0.27659  1.0000
  S   S62       1.0  0.14016  0.44863  0.34829  1.0000
  Fe  Fe31      1.0  0.05965  0.30955  0.13829  1.0000
  S   S63       1.0  0.04570  0.34653  0.14011  1.0000
  S   S64       1.0  0.08216  0.29387  0.10835  1.0000
  Fe  Fe32      1.0  0.03440  0.29550  0.18497  1.0000
  S   S65       1.0  0.01914  0.33206  0.18895  1.0000
  S   S66       1.0  0.03219  0.26839  0.21533  1.0000
  Fe  Fe33      1.0  0.01094  0.32974  0.15011  1.0000
  Fe  Fe34      1.0  0.05509  0.34541  0.17893  1.0000
  S   S67       1.0  0.07453  0.37707  0.19550  1.0000
  S   S68       1.0  0.02458  0.29261  0.14668  1.0000
  S   S69       1.0  0.07092  0.30907  0.17637  1.0000
  S   S70       1.0  0.14331  0.35378  0.46645  1.0000
  H   H270      1.0  0.12407  0.43675  0.44135  1.0000
  C   C349      1.0  0.01787  0.37688  0.26263  1.0000
  C   C350      1.0  0.15672  0.37290  0.44526  1.0000
  C   C351      1.0  0.14380  0.38001  0.42531  1.0000
  C   C352      1.0  0.15391  0.39464  0.40780  1.0000
  C   C353      1.0  0.17717  0.40232  0.40999  1.0000
  C   C354      1.0  0.18974  0.39599  0.43038  1.0000
  C   C355      1.0  0.17973  0.38119  0.44777  1.0000
  H   H271      1.0  0.12593  0.37391  0.42324  1.0000
  H   H272      1.0  0.14387  0.39954  0.39238  1.0000
  H   H273      1.0  0.20741  0.40251  0.43273  1.0000
  H   H274      1.0  0.18986  0.37617  0.46308  1.0000
  C   C356      1.0  0.10627  0.39887  0.26762  1.0000
  C   C357      1.0  0.09368  0.37762  0.26549  1.0000
  C   C358      1.0  0.08442  0.37033  0.24362  1.0000
  C   C359      1.0  0.08717  0.38441  0.22348  1.0000
  C   C360      1.0  0.09973  0.40567  0.22566  1.0000
  C   C361      1.0  0.10933  0.41276  0.24741  1.0000
  H   H275      1.0  0.09094  0.36674  0.28094  1.0000
  H   H276      1.0  0.07470  0.35409  0.24248  1.0000
  H   H277      1.0  0.10190  0.41694  0.21048  1.0000
  H   H278      1.0  0.11862  0.42927  0.24867  1.0000
  C   C362      1.0  0.45364  0.35475  0.08615  1.0000
  H   H279      1.0  0.30073  0.26126  0.00648  1.0000
  C   C363      1.0  0.31897  0.25638  0.00887  1.0000
  H   H280      1.0  0.01783  0.38594  0.29961  1.0000
  C   C364      1.0  0.43345  0.34052  0.08558  1.0000
  H   H281      1.0  0.25002  0.29053  0.41202  1.0000
  H   H282      1.0  0.25901  0.44648  0.24271  1.0000
  C   C365      1.0  0.40613  0.40250  0.18126  1.0000
  C   C366      1.0  0.39629  0.39904  0.15904  1.0000
  C   C367      1.0  0.38016  0.41564  0.14960  1.0000
  C   C368      1.0  0.37362  0.43599  0.16214  1.0000
  C   C369      1.0  0.38408  0.43986  0.18403  1.0000
  C   C370      1.0  0.40010  0.42318  0.19351  1.0000
  H   H283      1.0  0.40094  0.38343  0.14929  1.0000
  H   H284      1.0  0.37254  0.41264  0.13251  1.0000
  H   H285      1.0  0.37948  0.45545  0.19389  1.0000
  H   H286      1.0  0.40768  0.42623  0.21063  1.0000
  C   C371      1.0  0.36840  0.32549  0.06249  1.0000
  C   C372      1.0  0.40862  0.25409  0.11299  1.0000
  H   H287      1.0  0.16353  0.29305  0.03346  1.0000
  H   H288      1.0  0.18341  0.24734  0.00687  1.0000
  C   C373      1.0  0.12129  0.45054  0.42850  1.0000
  H   H289      1.0  0.31410  0.25518  0.43067  1.0000
  C   C374      1.0  0.11769  0.32581  0.04190  1.0000
  C   C375      1.0  0.10889  0.34057  0.05977  1.0000
  C   C376      1.0  0.09741  0.33123  0.07984  1.0000
  C   C377      1.0  0.09480  0.30687  0.08253  1.0000
  C   C378      1.0  0.10314  0.29211  0.06445  1.0000
  C   C379      1.0  0.11437  0.30147  0.04421  1.0000
  H   H290      1.0  0.11116  0.35943  0.05815  1.0000
  H   H291      1.0  0.09094  0.34289  0.09341  1.0000
  H   H292      1.0  0.10110  0.27327  0.06624  1.0000
  H   H293      1.0  0.12072  0.28985  0.03056  1.0000
  H   H294      1.0  0.09100  0.29504  0.28132  1.0000
  C   C380      1.0  0.48024  0.44754  0.11625  1.0000
  H   H295      1.0  0.22637  0.26624  0.06704  1.0000
  H   H296      1.0  0.22531  0.33575  0.03720  1.0000
  S   S71       1.0  0.15662  0.46958  0.29683  1.0000
  H   H297      1.0  0.36374  0.29445  0.01180  1.0000
  H   H298      1.0  0.22797  0.33260  0.39186  1.0000
  H   H299      1.0  0.18657  0.32229  0.38387  1.0000
  C   C381      1.0  0.44349  0.46709  0.20991  1.0000
  C   C382      1.0  0.24025  0.37746  0.24514  1.0000
  C   C383      1.0  0.24848  0.35562  0.23730  1.0000
  C   C384      1.0  0.25301  0.33752  0.25350  1.0000
  C   C385      1.0  0.24956  0.34130  0.27758  1.0000
  C   C386      1.0  0.24162  0.36330  0.28556  1.0000
  C   C387      1.0  0.23658  0.38122  0.26914  1.0000
  P   P12       1.0  0.23745  0.36882  0.31654  1.0000
  C   C388      1.0  0.25385  0.34765  0.33396  1.0000
  C   C389      1.0  0.24867  0.39808  0.32206  1.0000
  C   C390      1.0  0.23771  0.41298  0.33839  1.0000
  C   C391      1.0  0.24639  0.43562  0.34225  1.0000
  C   C392      1.0  0.26563  0.44388  0.32931  1.0000
  C   C393      1.0  0.27667  0.42922  0.31297  1.0000
  C   C394      1.0  0.26842  0.40634  0.30952  1.0000
  C   C395      1.0  0.24336  0.32629  0.34083  1.0000
  C   C396      1.0  0.25583  0.30995  0.35455  1.0000
  C   C397      1.0  0.27893  0.31469  0.36132  1.0000
  C   C398      1.0  0.28962  0.33570  0.35424  1.0000
  C   C399      1.0  0.27715  0.35216  0.34067  1.0000
  C   C400      1.0  0.20662  0.36613  0.32422  1.0000
  C   C401      1.0  0.18935  0.36392  0.30671  1.0000
  C   C402      1.0  0.16552  0.36246  0.31292  1.0000
  C   C403      1.0  0.15878  0.36290  0.33657  1.0000
  C   C404      1.0  0.17588  0.36444  0.35407  1.0000
  C   C405      1.0  0.19969  0.36598  0.34797  1.0000
  C   C406      1.0  0.08511  0.47459  0.16726  1.0000
  H   H300      1.0  0.25941  0.32060  0.24740  1.0000
  H   H301      1.0  0.25331  0.32713  0.28985  1.0000
  H   H302      1.0  0.23015  0.39828  0.27493  1.0000
  H   H303      1.0  0.22232  0.40740  0.34805  1.0000
  H   H304      1.0  0.23783  0.44694  0.35497  1.0000
  C   C407      1.0  0.20951  0.47728  0.20431  1.0000
  H   H305      1.0  0.29131  0.43581  0.30260  1.0000
  H   H306      1.0  0.27721  0.39533  0.29670  1.0000
  H   H307      1.0  0.22553  0.32220  0.33560  1.0000
  H   H308      1.0  0.98975  0.26906  0.11894  1.0000
  H   H309      1.0  0.45002  0.39383  0.14610  1.0000
  H   H310      1.0  0.99549  0.30077  0.24852  1.0000
  H   H311      1.0  0.28577  0.36834  0.33552  1.0000
  H   H312      1.0  0.19400  0.36409  0.28827  1.0000
  H   H313      1.0  0.15214  0.36195  0.29937  1.0000
  H   H314      1.0  0.14027  0.36263  0.34127  1.0000
  H   H315      1.0  0.17063  0.36513  0.37239  1.0000
  H   H316      1.0  0.21260  0.36773  0.36182  1.0000
  H   H317      1.0  0.37134  0.25711  0.11964  1.0000
  H   H318      1.0  0.04797  0.28036  0.07203  1.0000
  C   C408      1.0  0.28809  0.36145  0.40915  1.0000
  C   C409      1.0  0.24183  0.45438  0.18834  1.0000
  C   C410      1.0  0.04478  0.33151  0.29331  1.0000
  C   C411      1.0  0.03519  0.40631  0.23670  1.0000
  H   H319      1.0  0.14490  0.47590  0.16636  1.0000
  C   C412      1.0  0.18162  0.29500  0.03896  1.0000
  C   C413      1.0  0.47591  0.34454  0.08933  1.0000
  C   C414      1.0  0.06264  0.28600  0.99755  1.0000
  H   H320      1.0  0.07751  0.34534  0.00720  1.0000
  H   H321      1.0  0.44415  0.24580  0.10261  1.0000
  H   H322      1.0  0.18363  0.33056  0.02572  1.0000
  C   C415      1.0  0.19336  0.27668  0.05087  1.0000
  H   H323      1.0  0.28576  0.47545  0.22355  1.0000
  C   C416      1.0  0.26427  0.35918  0.41549  1.0000
  H   H324      1.0  0.19563  0.47882  0.21727  1.0000
  H   H325      1.0  0.27591  0.25559  0.41017  1.0000
  H   H326      1.0  0.30760  0.33927  0.35935  1.0000
  C   C417      1.0  0.26697  0.29105  0.42057  1.0000
  H   H327      1.0  0.07029  0.29318  0.24298  1.0000
  H   H328      1.0  0.02312  0.37270  0.22507  1.0000
  H   H329      1.0  0.25274  0.43867  0.18867  1.0000
  H   H330      1.0  0.43511  0.43383  0.15352  1.0000
  H   H331      1.0  0.34911  0.34915  0.16528  1.0000
  C   C418      1.0  0.14138  0.27928  0.11267  1.0000
  H   H332      1.0  0.48735  0.39700  0.21241  1.0000
  H   H333      1.0  0.03830  0.34276  0.30724  1.0000
  H   H334      1.0  0.45993  0.28699  0.09345  1.0000
  C   C419      1.0  0.05864  0.34859  0.00779  1.0000
  C   C420      1.0  0.16483  0.44906  0.12530  1.0000
  C   C421      1.0  0.42609  0.48317  0.21660  1.0000
  H   H335      1.0  0.00951  0.34514  0.07644  1.0000
  C   C422      1.0  0.00990  0.35749  0.00917  1.0000
  C   C423      1.0  0.03895  0.28457  0.00416  1.0000
  C   C424      1.0  0.06312  0.30370  0.25718  1.0000
  H   H336      1.0  0.23689  0.39163  0.23269  1.0000
  C   C425      1.0  0.45028  0.43158  0.14212  1.0000
  H   H337      1.0  0.03424  0.31614  0.23651  1.0000
  H   H338      1.0  0.38462  0.32378  0.16135  1.0000
  C   C426      1.0  0.48694  0.25509  0.24631  1.0000
  H   H339      1.0  0.24259  0.40772  0.38727  1.0000
  C   C427      1.0  0.15461  0.27641  0.09211  1.0000
  C   C428      1.0  0.07474  0.30476  0.27874  1.0000
  H   H340      1.0  0.48478  0.38771  0.12021  1.0000
  H   H341      1.0  0.22151  0.27144  0.00439  1.0000
  H   H342      1.0  0.12429  0.26209  0.14187  1.0000
  C   C429      1.0  0.28167  0.27126  0.41927  1.0000
  H   H343      1.0  0.01685  0.37203  0.04360  1.0000
  C   C430      1.0  0.04234  0.31652  0.25365  1.0000
  H   H344      1.0  0.31376  0.38180  0.38983  1.0000
  H   H345      1.0  0.22097  0.27066  0.47019  1.0000
  C   C431      1.0  0.03097  0.31389  0.07365  1.0000
  H   H346      1.0  0.16192  0.42915  0.46085  1.0000
  C   C432      1.0  0.15757  0.24326  0.03463  1.0000
  H   H347      1.0  0.04738  0.32350  0.07296  1.0000
  H   H348      1.0  0.34185  0.30251  0.04858  1.0000
  C   C433      1.0  0.01291  0.24575  0.22578  1.0000
  H   H349      1.0  0.13547  0.29670  0.11778  1.0000
  H   H350      1.0  0.21591  0.32012  0.46592  1.0000
  H   H351      1.0  0.21898  0.44251  0.21631  1.0000
  C   C434      1.0  0.14668  0.45904  0.47906  1.0000
  H   H352      1.0  0.17497  0.47187  0.40844  1.0000
  C   C435      1.0  0.10639  0.44595  0.40958  1.0000
  C   C436      1.0  0.25579  0.34821  0.46510  1.0000
  H   H353      1.0  0.28861  0.30202  0.37194  1.0000
  H   H354      1.0  0.42079  0.30458  0.08713  1.0000
  C   C437      1.0  0.45828  0.30588  0.09105  1.0000
  C   C438      1.0  0.98897  0.25030  0.12186  1.0000
  H   H355      1.0  0.41760  0.43664  0.09987  1.0000
  C   C439      1.0  0.39324  0.31624  0.02095  1.0000
  C   C440      1.0  0.37113  0.30616  0.02472  1.0000
  C   C441      1.0  0.40518  0.48033  0.12314  1.0000
  C   C442      1.0  0.35290  0.36461  0.13073  1.0000
  C   C443      1.0  0.10229  0.46325  0.39249  1.0000
  C   C444      1.0  0.37949  0.33547  0.14709  1.0000
  C   C445      1.0  0.39325  0.33655  0.12667  1.0000
  C   C446      1.0  0.38703  0.35170  0.10816  1.0000
  C   C447      1.0  0.36659  0.36560  0.11023  1.0000
  P   P13       1.0  0.40438  0.35306  0.08145  1.0000
  C   C448      1.0  0.40668  0.38389  0.07381  1.0000
  P   P14       1.0  0.00645  0.34762  0.26731  1.0000
  H   H356      1.0  0.45095  0.45504  0.22277  1.0000
  C   C449      1.0  0.24794  0.24545  0.46009  1.0000
  C   C450      1.0  0.22835  0.30111  0.05274  1.0000
  H   H357      1.0  0.15873  0.29185  0.08166  1.0000
  C   C451      1.0  0.05572  0.23922  0.09272  1.0000
  C   C452      1.0  0.40243  0.39200  0.05084  1.0000
  C   C453      1.0  0.40380  0.41609  0.04558  1.0000
  C   C454      1.0  0.40931  0.43219  0.06322  1.0000
  C   C455      1.0  0.41351  0.42422  0.08612  1.0000
  C   C456      1.0  0.41221  0.40020  0.09141  1.0000
  C   C457      1.0  0.39058  0.33578  0.05881  1.0000
  C   C458      1.0  0.38760  0.48486  0.10653  1.0000
  C   C459      1.0  0.25531  0.39460  0.39291  1.0000
  C   C460      1.0  0.38485  0.24769  0.11002  1.0000
  H   H358      1.0  0.17465  0.31039  0.45755  1.0000
  C   C461      1.0  0.43605  0.31597  0.08761  1.0000
  C   C462      1.0  0.98869  0.28916  0.07640  1.0000
  H   H359      1.0  0.15968  0.31187  0.41684  1.0000
  H   H360      1.0  0.27172  0.46177  0.33163  1.0000
  H   H361      1.0  0.40879  0.32568  0.12559  1.0000
  C   C463      1.0  0.23052  0.25536  0.99952  1.0000
  P   P15       1.0  0.00968  0.24486  0.07735  1.0000
  H   H362      1.0  0.33755  0.37588  0.13253  1.0000
  H   H363      1.0  0.36139  0.37745  0.09615  1.0000
  H   H364      1.0  0.21905  0.46154  0.10280  1.0000
  C   C464      1.0  0.00317  0.24811  0.30813  1.0000
  H   H365      1.0  0.39787  0.37990  0.03700  1.0000
  H   H366      1.0  0.40044  0.42232  0.02785  1.0000
  H   H367      1.0  0.41022  0.45084  0.05919  1.0000
  C   C465      1.0  0.31037  0.29063  0.44365  1.0000
  H   H368      1.0  0.41546  0.39432  0.10928  1.0000
  H   H369      1.0  0.42039  0.33815  0.03508  1.0000
  C   C466      1.0  0.16536  0.24312  0.01119  1.0000
  H   H370      1.0  0.22957  0.37469  0.41190  1.0000
  C   C467      1.0  0.45849  0.40879  0.13767  1.0000
  H   H371      1.0  0.23680  0.47211  0.46986  1.0000
  C   C468      1.0  0.47792  0.40535  0.12295  1.0000
  H   H372      1.0  0.00999  0.27295  0.28020  1.0000
  C   C469      1.0  0.02489  0.38423  0.24005  1.0000
  C   C470      1.0  0.40298  0.33093  0.03795  1.0000
  H   H373      1.0  0.24655  0.30336  0.05784  1.0000
  C   C471      1.0  0.21680  0.27997  0.05786  1.0000
  H   H374      1.0  0.09820  0.42883  0.40806  1.0000
  P   P16       1.0  0.45146  0.48056  0.13942  1.0000
  C   C472      1.0  0.22279  0.45650  0.20381  1.0000
  H   H375      1.0  0.25146  0.35276  0.21870  1.0000
  C   C473      1.0  0.02421  0.36351  0.02828  1.0000
  C   C474      1.0  0.18192  0.45797  0.10990  1.0000
  P   P17       1.0  0.15166  0.47919  0.45468  1.0000
  H   H376      1.0  0.04819  0.43756  0.25338  1.0000
  H   H377      1.0  0.07621  0.28754  0.01082  1.0000
  H   H378      1.0  0.17668  0.46730  0.09404  1.0000
  C   C475      1.0  0.00967  0.32611  0.07532  1.0000
  C   C476      1.0  0.10790  0.48373  0.16714  1.0000
  P   P18       1.0  0.17805  0.24970  0.05797  1.0000
  C   C477      1.0  0.24796  0.37586  0.40710  1.0000
  H   H379      1.0  0.05944  0.36348  0.04245  1.0000
  H   H380      1.0  0.28457  0.41118  0.37536  1.0000
  C   C478      1.0  0.25780  0.46487  0.24740  1.0000
  H   H381      1.0  0.30112  0.34907  0.41554  1.0000
  H   H382      1.0  0.04091  0.41167  0.21926  1.0000
  C   C479      1.0  0.03120  0.28926  0.07355  1.0000
  C   C480      1.0  0.20579  0.45465  0.11477  1.0000
  C   C481      1.0  0.06565  0.31879  0.29675  1.0000
  C   C482      1.0  0.04843  0.35884  0.02765  1.0000
  C   C483      1.0  0.27896  0.39664  0.38647  1.0000
  C   C484      1.0  0.35763  0.24660  0.99344  1.0000
  C   C485      1.0  0.21645  0.31930  0.04107  1.0000
  C   C486      1.0  0.19303  0.31631  0.03442  1.0000
  C   C487      1.0  0.01007  0.27667  0.07582  1.0000
  C   C488      1.0  0.29536  0.38007  0.39460  1.0000
  C   C489      1.0  0.24097  0.47209  0.26415  1.0000
  C   C490      1.0  0.19964  0.47519  0.46299  1.0000
  C   C491      1.0  0.35874  0.31077  0.04546  1.0000
  C   C492      1.0  0.24724  0.47283  0.17290  1.0000
  H   H383      1.0  0.24761  0.29357  0.35991  1.0000
  H   H384      1.0  0.24985  0.25257  0.03210  1.0000
  C   C493      1.0  0.08175  0.45025  0.16643  1.0000
  S   S72       1.0  0.47890  0.29019  0.16503  1.0000
  C   C494      1.0  0.03287  0.41349  0.27852  1.0000
  C   C495      1.0  0.12735  0.46854  0.16621  1.0000
  C   C496      1.0  0.12413  0.44403  0.16532  1.0000
  C   C497      1.0  0.10113  0.43501  0.16543  1.0000
  P   P19       1.0  0.14939  0.42448  0.16513  1.0000
  C   C498      1.0  0.16100  0.42140  0.19464  1.0000
  C   C499      1.0  0.14059  0.39604  0.15397  1.0000
  C   C500      1.0  0.14334  0.39045  0.13005  1.0000
  C   C501      1.0  0.13532  0.36887  0.12147  1.0000
  C   C502      1.0  0.12443  0.35277  0.13665  1.0000
  C   C503      1.0  0.12178  0.35814  0.16044  1.0000
  C   C504      1.0  0.12981  0.37963  0.16907  1.0000
  C   C505      1.0  0.17291  0.40068  0.20139  1.0000
  C   C506      1.0  0.18162  0.39811  0.22426  1.0000
  C   C507      1.0  0.17898  0.41637  0.24043  1.0000
  C   C508      1.0  0.16760  0.43719  0.23374  1.0000
  C   C509      1.0  0.15853  0.43970  0.21101  1.0000
  C   C510      1.0  0.17153  0.43674  0.14575  1.0000
  C   C511      1.0  0.19556  0.43335  0.15043  1.0000
  C   C512      1.0  0.21259  0.44222  0.13493  1.0000
  H   H385      1.0  0.46486  0.45396  0.18188  1.0000
  H   H386      1.0  0.41874  0.26591  0.26254  1.0000
  H   H387      1.0  0.07497  0.32011  0.31328  1.0000
  H   H388      1.0  0.06409  0.44306  0.16676  1.0000
  C   C513      1.0  0.44111  0.48135  0.16952  1.0000
  C   C514      1.0  0.15360  0.43533  0.47689  1.0000
  H   H389      1.0  0.14639  0.45150  0.12105  1.0000
  H   H390      1.0  0.09794  0.41623  0.16510  1.0000
  H   H391      1.0  0.15134  0.40274  0.11785  1.0000
  H   H392      1.0  0.13721  0.36475  0.10295  1.0000
  H   H393      1.0  0.11769  0.33630  0.12994  1.0000
  H   H394      1.0  0.11286  0.34595  0.17218  1.0000
  H   H395      1.0  0.12691  0.38368  0.18745  1.0000
  H   H396      1.0  0.17530  0.38640  0.18908  1.0000
  H   H397      1.0  0.19024  0.38188  0.22956  1.0000
  H   H398      1.0  0.18570  0.41448  0.25818  1.0000
  H   H399      1.0  0.16569  0.45132  0.24635  1.0000
  H   H400      1.0  0.14957  0.45590  0.20648  1.0000
  H   H401      1.0  0.20122  0.42373  0.16591  1.0000
  H   H402      1.0  0.23111  0.43937  0.13846  1.0000
  C   C515      1.0  0.03936  0.42086  0.25593  1.0000
  H   H403      1.0  0.40860  0.24820  0.22439  1.0000
  C   C516      1.0  0.03265  0.33004  0.27189  1.0000
  C   C517      1.0  0.18642  0.31511  0.44324  1.0000
  C   C518      1.0  0.17798  0.31590  0.42022  1.0000
  C   C519      1.0  0.19309  0.32197  0.40173  1.0000
  C   C520      1.0  0.21649  0.32787  0.40634  1.0000
  C   C521      1.0  0.22482  0.32805  0.42958  1.0000
  C   C522      1.0  0.20978  0.32096  0.44793  1.0000
  P   P20       1.0  0.25484  0.33631  0.43568  1.0000
  H   H404      1.0  0.03418  0.28499  0.02261  1.0000
  C   C523      1.0  0.27394  0.31086  0.43341  1.0000
  C   C524      1.0  0.46188  0.45122  0.13247  1.0000
  C   C525      1.0  0.30326  0.27098  0.43092  1.0000
  H   H405      1.0  0.30149  0.32552  0.45502  1.0000
  C   C526      1.0  0.29584  0.31055  0.44482  1.0000
  C   C527      1.0  0.45114  0.46633  0.18654  1.0000
  Fe  Fe35      1.0  0.15724  0.48208  0.33485  1.0000
  H   H406      1.0  0.42807  0.24521  0.37102  1.0000
  H   H407      1.0  0.40055  0.47170  0.13955  1.0000
  H   H408      1.0  0.05139  0.25255  0.10566  1.0000
  C   C528      1.0  0.32659  0.25050  0.03151  1.0000
  H   H409      1.0  0.00328  0.28172  0.99246  1.0000
  C   C529      1.0  0.18193  0.47506  0.44584  1.0000
  H   H410      1.0  0.47181  0.24501  0.37110  1.0000
  C   C530      1.0  0.13237  0.47254  0.43038  1.0000
  C   C531      1.0  0.35941  0.34961  0.14920  1.0000
  H   H411      1.0  0.42372  0.24106  0.29772  1.0000
  H   H412      1.0  0.45238  0.37367  0.08436  1.0000
  C   C532      1.0  0.22324  0.47220  0.45653  1.0000
  C   C533      1.0  0.23692  0.26164  0.47546  1.0000
  C   C534      1.0  0.18817  0.47218  0.42210  1.0000
  C   C535      1.0  0.24663  0.24466  0.01521  1.0000
  H   H413      1.0  0.24701  0.38398  0.45455  1.0000
  H   H414      1.0  0.26223  0.47135  0.16113  1.0000
  C   C536      1.0  0.02215  0.39159  0.28190  1.0000
  H   H415      1.0  0.42000  0.48371  0.23468  1.0000
  C   C537      1.0  0.99210  0.23983  0.21419  1.0000
  H   H416      1.0  0.09097  0.45960  0.37767  1.0000
  C   C538      1.0  0.25112  0.37221  0.46899  1.0000
  H   H417      1.0  0.01722  0.24240  0.02650  1.0000
  H   H418      1.0  0.35872  0.32824  0.07867  1.0000
  C   C539      1.0  0.99678  0.26553  0.29187  1.0000
  H   H419      1.0  0.24026  0.24218  0.44307  1.0000
  H   H420      1.0  0.40306  0.31228  0.00507  1.0000
  C   C540      1.0  0.16180  0.25383  0.08504  1.0000
  C   C541      1.0  0.11336  0.48508  0.39410  1.0000
  C   C542      1.0  0.13500  0.25971  0.12622  1.0000
  H   H421      1.0  0.03668  0.42455  0.29348  1.0000
  C   C543      1.0  0.41565  0.24711  0.26152  1.0000
  H   H422      1.0  0.19513  0.47748  0.48137  1.0000
  C   C544      1.0  0.36522  0.24093  0.01617  1.0000
  H   H423      1.0  0.00084  0.31404  0.30671  1.0000
  C   C545      1.0  0.42850  0.48692  0.11851  1.0000
  C   C546      1.0  0.34971  0.24289  0.03515  1.0000
  H   H424      1.0  0.32692  0.29015  0.45305  1.0000
  H   H425      1.0  0.31425  0.25080  0.04610  1.0000
  H   H426      1.0  0.07249  0.23918  0.20603  1.0000
  H   H427      1.0  0.12714  0.23876  0.05736  1.0000
  H   H428      1.0  0.36956  0.47993  0.11025  1.0000
  C   C547      1.0  0.47820  0.32016  0.09201  1.0000
  C   C548      1.0  0.26006  0.33334  0.48448  1.0000
  H   H429      1.0  0.07002  0.48634  0.16810  1.0000
  C   C549      1.0  0.02027  0.34687  0.98937  1.0000
  C   C550      1.0  0.98885  0.33799  0.24277  1.0000
  H   H430      1.0  0.44918  0.24515  0.18631  1.0000
  C   C551      1.0  0.27300  0.48126  0.23649  1.0000
  H   H431      1.0  0.02129  0.24213  0.30914  1.0000
  C   C552      1.0  0.04458  0.34279  0.98859  1.0000
  C   C553      1.0  0.98854  0.31374  0.07596  1.0000
  H   H432      1.0  0.99149  0.31384  0.01609  1.0000
  C   C554      1.0  0.21180  0.46927  0.41571  1.0000
  H   H433      1.0  0.21637  0.46671  0.39737  1.0000
  C   C555      1.0  0.22932  0.46922  0.43288  1.0000
  H   H434      1.0  0.24757  0.46681  0.42781  1.0000
  C   C556      1.0  0.42579  0.24143  0.10050  1.0000
  H   H435      1.0  0.26270  0.31458  0.48216  1.0000
  C   C557      1.0  0.33448  0.25471  0.98963  1.0000
  H   H436      1.0  0.48831  0.46221  0.10711  1.0000
  S   S73       1.0  0.14711  0.46984  0.62329  1.0000
  Fe  Fe36      1.0  0.30525  0.45246  0.80241  1.0000
  S   S74       1.0  0.29987  0.46559  0.83945  1.0000
  S   S75       1.0  0.27314  0.45429  0.77768  1.0000
  Fe  Fe37      1.0  0.35377  0.42971  0.81580  1.0000
  S   S76       1.0  0.35050  0.44174  0.85318  1.0000
  S   S77       1.0  0.38496  0.40820  0.80083  1.0000
  Fe  Fe38      1.0  0.31244  0.42971  0.85154  1.0000
  S   S78       1.0  0.29753  0.40258  0.87839  1.0000
  C   C558      1.0  0.25151  0.39225  0.80147  1.0000
  S   S79       1.0  0.31651  0.41618  0.81469  1.0000
  S   S80       1.0  0.34293  0.46491  0.79985  1.0000
  C   C559      1.0  0.04992  0.28603  0.58286  1.0000
  S   S81       1.0  0.14321  0.28969  0.96820  1.0000
  Fe  Fe39      1.0  0.17841  0.34097  0.93855  1.0000
  S   S82       1.0  0.17271  0.30577  0.92144  1.0000
  S   S83       1.0  0.19562  0.37207  0.91848  1.0000
  Fe  Fe40      1.0  0.13498  0.30834  0.93395  1.0000
  S   S84       1.0  0.10212  0.29465  0.91472  1.0000
  Fe  Fe41      1.0  0.18147  0.29026  0.95715  1.0000
  H   H437      1.0  0.40403  0.28211  0.90277  1.0000
  S   S85       1.0  0.13991  0.34434  0.94916  1.0000
  S   S86       1.0  0.18875  0.32543  0.97375  1.0000
  S   S87       1.0  0.47205  0.35199  0.84763  1.0000
  H   H438      1.0  0.13220  0.48486  0.50318  1.0000
  S   S88       1.0  0.02401  0.34030  0.84639  1.0000
  H   H439      1.0  0.13583  0.41430  0.53021  1.0000
  Fe  Fe42      1.0  0.16030  0.33884  0.49996  1.0000
  S   S89       1.0  0.19767  0.34744  0.50868  1.0000
  Fe  Fe43      1.0  0.15253  0.31039  0.54637  1.0000
  S   S90       1.0  0.18980  0.31835  0.55721  1.0000
  S   S91       1.0  0.13027  0.29166  0.57547  1.0000
  Fe  Fe44      1.0  0.18357  0.35566  0.54488  1.0000
  S   S92       1.0  0.19812  0.38845  0.56343  1.0000
  Fe  Fe45      1.0  0.20052  0.30938  0.52013  1.0000
  S   S93       1.0  0.23410  0.28670  0.51768  1.0000
  S   S94       1.0  0.14589  0.34856  0.53577  1.0000
  S   S95       1.0  0.16354  0.29992  0.50950  1.0000
  P   P21       1.0  0.11485  0.37026  0.63268  1.0000
  C   C560      1.0  0.11462  0.26494  0.58268  1.0000
  C   C561      1.0  0.10631  0.26144  0.60590  1.0000
  H   H440      1.0  0.45362  0.31331  0.81974  1.0000
  C   C562      1.0  0.06036  0.26601  0.79252  1.0000
  H   H441      1.0  0.10998  0.27462  0.61899  1.0000
  C   C563      1.0  0.30977  0.30786  0.95417  1.0000
  H   H442      1.0  0.01455  0.34373  0.72872  1.0000
  C   C564      1.0  0.19709  0.44656  0.53086  1.0000
  C   C565      1.0  0.41610  0.31809  0.82343  1.0000
  H   H443      1.0  0.24726  0.39963  0.49471  1.0000
  H   H444      1.0  0.06612  0.28510  0.65275  1.0000
  H   H445      1.0  0.99765  0.31507  0.58955  1.0000
  H   H446      1.0  0.00336  0.30769  0.75096  1.0000
  C   C566      1.0  0.25097  0.27992  0.78583  1.0000
  P   P22       1.0  0.00864  0.26518  0.59927  1.0000
  C   C567      1.0  0.08064  0.30784  0.89574  1.0000
  C   C568      1.0  0.06171  0.29408  0.88777  1.0000
  C   C569      1.0  0.04426  0.30364  0.87278  1.0000
  C   C570      1.0  0.04557  0.32714  0.86528  1.0000
  C   C571      1.0  0.06464  0.34082  0.87303  1.0000
  C   C572      1.0  0.08194  0.33134  0.88828  1.0000
  H   H447      1.0  0.06054  0.27582  0.89316  1.0000
  H   H448      1.0  0.02981  0.29284  0.86700  1.0000
  H   H449      1.0  0.06589  0.35901  0.86738  1.0000
  H   H450      1.0  0.09628  0.34223  0.89421  1.0000
  C   C573      1.0  0.00180  0.31086  0.92622  1.0000
  C   C574      1.0  0.07479  0.30177  0.64986  1.0000
  C   C575      1.0  0.40950  0.39341  0.81428  1.0000
  C   C576      1.0  0.42643  0.38227  0.79988  1.0000
  C   C577      1.0  0.44592  0.37006  0.80964  1.0000
  C   C578      1.0  0.44859  0.36838  0.83408  1.0000
  C   C579      1.0  0.43164  0.37951  0.84847  1.0000
  C   C580      1.0  0.41245  0.39214  0.83869  1.0000
  H   H451      1.0  0.42448  0.38308  0.78098  1.0000
  H   H452      1.0  0.45863  0.36159  0.79823  1.0000
  H   H453      1.0  0.43343  0.37845  0.86738  1.0000
  H   H454      1.0  0.39989  0.40086  0.85005  1.0000
  C   C581      1.0  0.26894  0.39443  0.88919  1.0000
  C   C582      1.0  0.24872  0.40803  0.88499  1.0000
  C   C583      1.0  0.22660  0.40082  0.89402  1.0000
  C   C584      1.0  0.22417  0.37986  0.90725  1.0000
  C   C585      1.0  0.24431  0.36604  0.91112  1.0000
  C   C586      1.0  0.26650  0.37340  0.90235  1.0000
  H   H455      1.0  0.25017  0.42428  0.87508  1.0000
  H   H456      1.0  0.21125  0.41173  0.89093  1.0000
  H   H457      1.0  0.24284  0.34981  0.92103  1.0000
  H   H458      1.0  0.28192  0.36268  0.90573  1.0000
  C   C587      1.0  0.16181  0.44830  0.60558  1.0000
  C   C588      1.0  0.14825  0.43178  0.59319  1.0000
  C   C589      1.0  0.15900  0.41341  0.58029  1.0000
  C   C590      1.0  0.18354  0.41143  0.57928  1.0000
  C   C591      1.0  0.19711  0.42839  0.59102  1.0000
  C   C592      1.0  0.18637  0.44664  0.60413  1.0000
  H   H459      1.0  0.12926  0.43300  0.59382  1.0000
  H   H460      1.0  0.14835  0.40066  0.57127  1.0000
  H   H461      1.0  0.21611  0.42723  0.59022  1.0000
  H   H462      1.0  0.19710  0.45920  0.61341  1.0000
  H   H463      1.0  0.01569  0.25159  0.81373  1.0000
  H   H464      1.0  0.30415  0.37619  0.77063  1.0000
  H   H465      1.0  0.16038  0.39544  0.63472  1.0000
  H   H466      1.0  0.22742  0.45870  0.75668  1.0000
  H   H467      1.0  0.23207  0.28771  0.91537  1.0000
  C   C593      1.0  0.24013  0.31612  0.86281  1.0000
  H   H468      1.0  0.03530  0.31941  0.80426  1.0000
  H   H469      1.0  0.45138  0.29927  0.77872  1.0000
  C   C594      1.0  0.18680  0.34084  0.86296  1.0000
  C   C595      1.0  0.19345  0.32846  0.84271  1.0000
  H   H470      1.0  0.05652  0.28478  0.93820  1.0000
  C   C596      1.0  0.23836  0.37626  0.78844  1.0000
  C   C597      1.0  0.06354  0.30487  0.57474  1.0000
  H   H471      1.0  0.24525  0.29586  0.97329  1.0000
  C   C598      1.0  0.05342  0.32714  0.57171  1.0000
  C   C599      1.0  0.08243  0.40235  0.56533  1.0000
  Fe  Fe46      1.0  0.33833  0.47649  0.83741  1.0000
  C   C600      1.0  0.23115  0.48177  0.52816  1.0000
  H   H472      1.0  0.37622  0.30725  0.78025  1.0000
  H   H473      1.0  0.15441  0.40088  0.49309  1.0000
  C   C601      1.0  0.33155  0.25442  0.85411  1.0000
  C   C602      1.0  0.22978  0.35572  0.79913  1.0000
  H   H474      1.0  0.45779  0.26682  0.72192  1.0000
  H   H475      1.0  0.36433  0.29218  0.96632  1.0000
  H   H476      1.0  0.03785  0.32217  0.93155  1.0000
  H   H477      1.0  0.10514  0.29221  0.67038  1.0000
  C   C603      1.0  0.05215  0.31032  0.77167  1.0000
  H   H478      1.0  0.17248  0.47411  0.53849  1.0000
  H   H479      1.0  0.20004  0.34796  0.87452  1.0000
  H   H480      1.0  0.02186  0.34803  0.57498  1.0000
  C   C604      1.0  0.22863  0.30407  0.88119  1.0000
  C   C605      1.0  0.10795  0.38410  0.67952  1.0000
  C   C606      1.0  0.37164  0.26262  0.90542  1.0000
  H   H481      1.0  0.29526  0.31747  0.88618  1.0000
  H   H482      1.0  0.26289  0.33066  0.52215  1.0000
  H   H483      1.0  0.06449  0.42647  0.58845  1.0000
  C   C607      1.0  0.25568  0.36633  0.51098  1.0000
  C   C608      1.0  0.26238  0.47320  0.75477  1.0000
  C   C609      1.0  0.09786  0.38317  0.56385  1.0000
  H   H484      1.0  0.99507  0.29447  0.63931  1.0000
  H   H485      1.0  0.12591  0.32957  0.66256  1.0000
  C   C610      1.0  0.01603  0.26392  0.63005  1.0000
  H   H486      1.0  0.20369  0.27692  0.83520  1.0000
  H   H487      1.0  0.17654  0.31440  0.60675  1.0000
  C   C611      1.0  0.30309  0.28484  0.96052  1.0000
  C   C612      1.0  0.24668  0.26614  0.49753  1.0000
  H   H488      1.0  0.13304  0.48168  0.89717  1.0000
  C   C613      1.0  0.06421  0.29290  0.75919  1.0000
  C   C614      1.0  0.24664  0.29967  0.79980  1.0000
  H   H489      1.0  0.46794  0.42421  0.82714  1.0000
  H   H490      1.0  0.12510  0.45642  0.53521  1.0000
  H   H491      1.0  0.41267  0.29652  0.75893  1.0000
  H   H492      1.0  0.11556  0.24986  0.54810  1.0000
  H   H493      1.0  0.12580  0.42066  0.63519  1.0000
  C   C615      1.0  0.24677  0.36767  0.83613  1.0000
  H   H494      1.0  0.08717  0.28724  0.96846  1.0000
  P   P23       1.0  0.32418  0.26072  0.96012  1.0000
  H   H495      1.0  0.18417  0.43273  0.53279  1.0000
  C   C616      1.0  0.14564  0.33482  0.85394  1.0000
  C   C617      1.0  0.10805  0.40035  0.69794  1.0000
  H   H496      1.0  0.43900  0.25082  0.79938  1.0000
  C   C618      1.0  0.26013  0.34242  0.50728  1.0000
  H   H497      1.0  0.03306  0.35975  0.91068  1.0000
  C   C619      1.0  0.39297  0.30855  0.78916  1.0000
  H   H498      1.0  0.23486  0.37987  0.77003  1.0000
  H   H499      1.0  0.11482  0.28087  0.86296  1.0000
  C   C620      1.0  0.99985  0.33319  0.72294  1.0000
  H   H500      1.0  0.17053  0.45972  0.85224  1.0000
  H   H501      1.0  0.25504  0.37313  0.52876  1.0000
  C   C621      1.0  0.13880  0.42678  0.51600  1.0000
  C   C622      1.0  0.47329  0.25755  0.72809  1.0000
  H   H502      1.0  0.10234  0.37588  0.54683  1.0000
  H   H503      1.0  0.20089  0.42834  0.84814  1.0000
  C   C623      1.0  0.41356  0.30235  0.77702  1.0000
  C   C624      1.0  0.17593  0.32013  0.82756  1.0000
  C   C625      1.0  0.11419  0.39119  0.65660  1.0000
  H   H504      1.0  0.27474  0.29590  0.91820  1.0000
  C   C626      1.0  0.17300  0.33203  0.61312  1.0000
  C   C627      1.0  0.48793  0.26830  0.74498  1.0000
  H   H505      1.0  0.06414  0.34164  0.56545  1.0000
  C   C628      1.0  0.14941  0.41924  0.49514  1.0000
  H   H506      1.0  0.15811  0.35313  0.88458  1.0000
  C   C629      1.0  0.10857  0.32692  0.65519  1.0000
  C   C630      1.0  0.16300  0.34385  0.86864  1.0000
  H   H507      1.0  0.07017  0.29636  0.74138  1.0000
  H   H508      1.0  0.11470  0.43631  0.70792  1.0000
  H   H509      1.0  0.01025  0.26814  0.76784  1.0000
  C   C631      1.0  0.09685  0.30578  0.65973  1.0000
  H   H510      1.0  0.25732  0.31519  0.79717  1.0000
  C   C632      1.0  0.23452  0.35095  0.82293  1.0000
  C   C633      1.0  0.24110  0.29684  0.90114  1.0000
  H   H511      1.0  0.27386  0.32893  0.85028  1.0000
  C   C634      1.0  0.00562  0.25227  0.75859  1.0000
  H   H512      1.0  0.18058  0.31130  0.81137  1.0000
  C   C635      1.0  0.26515  0.30148  0.90279  1.0000
  C   C636      1.0  0.07650  0.41162  0.58728  1.0000
  H   H513      1.0  0.48230  0.25512  0.80305  1.0000
  C   C637      1.0  0.43537  0.30385  0.78813  1.0000
  C   C638      1.0  0.04452  0.30581  0.79461  1.0000
  H   H514      1.0  0.17322  0.25781  0.54219  1.0000
  H   H515      1.0  0.25732  0.33627  0.96197  1.0000
  H   H516      1.0  0.20922  0.34294  0.61122  1.0000
  C   C639      1.0  0.99354  0.31295  0.73550  1.0000
  C   C640      1.0  0.27676  0.31335  0.88458  1.0000
  H   H517      1.0  0.07779  0.25773  0.75948  1.0000
  C   C641      1.0  0.12071  0.41471  0.65258  1.0000
  C   C642      1.0  0.08615  0.40187  0.60776  1.0000
  C   C643      1.0  0.14490  0.36164  0.62629  1.0000
  C   C644      1.0  0.02578  0.28917  0.58731  1.0000
  C   C645      1.0  0.19058  0.47010  0.53404  1.0000
  H   H518      1.0  0.32753  0.31175  0.94860  1.0000
  H   H519      1.0  0.10299  0.36613  0.68331  1.0000
  H   H520      1.0  0.00597  0.29316  0.68140  1.0000
  H   H521      1.0  0.10320  0.39482  0.71557  1.0000
  C   C646      1.0  0.07592  0.34019  0.63109  1.0000
  C   C647      1.0  0.06418  0.31907  0.63583  1.0000
  P   P24       1.0  0.22431  0.32390  0.83636  1.0000
  H   H522      1.0  0.03874  0.24969  0.74005  1.0000
  H   H523      1.0  0.13859  0.31648  0.82176  1.0000
  C   C648      1.0  0.16351  0.37757  0.62907  1.0000
  C   C649      1.0  0.18662  0.37076  0.62378  1.0000
  C   C650      1.0  0.19138  0.34800  0.61584  1.0000
  C   C651      1.0  0.04879  0.28388  0.80513  1.0000
  C   C652      1.0  0.14984  0.33892  0.61783  1.0000
  H   H524      1.0  0.06761  0.35311  0.61974  1.0000
  H   H525      1.0  0.04710  0.31584  0.62818  1.0000
  C   C653      1.0  0.25562  0.38798  0.82532  1.0000
  H   H526      1.0  0.24955  0.36510  0.85476  1.0000
  H   H527      1.0  0.20079  0.38339  0.62516  1.0000
  H   H528      1.0  0.12608  0.44896  0.66760  1.0000
  H   H529      1.0  0.23954  0.43767  0.82987  1.0000
  H   H530      1.0  0.08111  0.40918  0.62459  1.0000
  C   C654      1.0  0.02963  0.33066  0.57702  1.0000
  H   H531      1.0  0.21006  0.30005  0.88015  1.0000
  H   H532      1.0  0.26569  0.40048  0.83549  1.0000
  C   C655      1.0  0.22098  0.25836  0.80718  1.0000
  C   C656      1.0  0.26443  0.32024  0.86444  1.0000
  H   H533      1.0  0.24152  0.24397  0.77866  1.0000
  C   C657      1.0  0.23863  0.47141  0.74796  1.0000
  C   C658      1.0  0.10767  0.37346  0.58429  1.0000
  C   C659      1.0  0.05135  0.28465  0.95656  1.0000
  H   H534      1.0  0.11962  0.35859  0.58279  1.0000
  C   C660      1.0  0.18748  0.46383  0.84447  1.0000
  C   C661      1.0  0.03202  0.24695  0.63845  1.0000
  C   C662      1.0  0.02078  0.32656  0.92451  1.0000
  C   C663      1.0  0.21657  0.27811  0.82113  1.0000
  C   C664      1.0  0.13266  0.45048  0.51872  1.0000
  C   C665      1.0  0.09329  0.26212  0.83820  1.0000
  H   H535      1.0  0.13588  0.32647  0.61453  1.0000
  C   C666      1.0  0.20452  0.44612  0.84211  1.0000
  C   C667      1.0  0.02746  0.28347  0.96298  1.0000
  H   H536      1.0  0.12720  0.33702  0.85851  1.0000
  C   C668      1.0  0.43661  0.31165  0.81130  1.0000
  H   H537      1.0  0.21956  0.34353  0.78881  1.0000
  C   C669      1.0  0.15210  0.32315  0.83330  1.0000
  H   H538      1.0  0.04310  0.28098  0.82314  1.0000
  C   C670      1.0  0.10955  0.24760  0.56605  1.0000
  C   C671      1.0  0.09839  0.34413  0.64047  1.0000
  C   C672      1.0  0.38858  0.27839  0.91342  1.0000
  C   C673      1.0  0.02927  0.24334  0.92252  1.0000
  C   C674      1.0  0.23120  0.47422  0.82422  1.0000
  C   C675      1.0  0.10219  0.38300  0.60638  1.0000
  C   C676      1.0  0.35777  0.27457  0.82699  1.0000
  C   C677      1.0  0.35368  0.29595  0.83865  1.0000
  C   C678      1.0  0.33823  0.29632  0.85803  1.0000
  P   P25       1.0  0.36693  0.32304  0.82827  1.0000
  C   C679      1.0  0.37192  0.34114  0.85382  1.0000
  C   C680      1.0  0.39401  0.31631  0.81258  1.0000
  H   H539      1.0  0.26450  0.28051  0.77233  1.0000
  C   C681      1.0  0.36183  0.36375  0.85548  1.0000
  C   C682      1.0  0.36414  0.37678  0.87610  1.0000
  C   C683      1.0  0.37699  0.36768  0.89500  1.0000
  C   C684      1.0  0.38711  0.34525  0.89351  1.0000
  C   C685      1.0  0.38426  0.33187  0.87316  1.0000
  C   C686      1.0  0.34688  0.33830  0.80878  1.0000
  C   C687      1.0  0.32239  0.33563  0.81117  1.0000
  C   C688      1.0  0.30704  0.34912  0.79730  1.0000
  C   C689      1.0  0.31600  0.36527  0.78095  1.0000
  C   C690      1.0  0.34032  0.36805  0.77856  1.0000
  C   C691      1.0  0.35570  0.35469  0.79244  1.0000
  H   H540      1.0  0.39904  0.30117  0.94157  1.0000
  C   C692      1.0  0.22892  0.29914  0.81711  1.0000
  H   H541      1.0  0.04877  0.32738  0.76367  1.0000
  H   H542      1.0  0.36939  0.27369  0.81191  1.0000
  H   H543      1.0  0.33463  0.31265  0.86714  1.0000
  H   H544      1.0  0.41791  0.32488  0.84101  1.0000
  H   H545      1.0  0.35218  0.37156  0.84099  1.0000
  H   H546      1.0  0.35613  0.39412  0.87728  1.0000
  H   H547      1.0  0.37919  0.37813  0.91070  1.0000
  H   H548      1.0  0.39727  0.33830  0.90807  1.0000
  H   H549      1.0  0.39182  0.31436  0.87241  1.0000
  H   H550      1.0  0.31510  0.32366  0.82410  1.0000
  H   H551      1.0  0.28819  0.34759  0.79963  1.0000
  H   H552      1.0  0.34737  0.38123  0.76658  1.0000
  H   H553      1.0  0.37447  0.35783  0.79099  1.0000
  H   H554      1.0  0.29848  0.34401  0.94962  1.0000
  C   C693      1.0  0.06847  0.27091  0.76961  1.0000
  C   C694      1.0  0.00693  0.28085  0.64558  1.0000
  H   H555      1.0  0.28427  0.25196  0.92814  1.0000
  C   C695      1.0  0.12086  0.43087  0.67099  1.0000
  C   C696      1.0  0.10542  0.26471  0.85935  1.0000
  C   C697      1.0  0.32722  0.27564  0.86570  1.0000
  H   H556      1.0  0.25835  0.40808  0.79317  1.0000
  C   C698      1.0  0.10503  0.24673  0.87623  1.0000
  C   C699      1.0  0.34683  0.25389  0.83479  1.0000
  C   C700      1.0  0.36611  0.28394  0.94928  1.0000
  H   H557      1.0  0.22544  0.42215  0.52503  1.0000
  C   C701      1.0  0.22631  0.45133  0.83189  1.0000
  C   C702      1.0  0.22053  0.44056  0.52645  1.0000
  S   S96       1.0  0.20587  0.25774  0.95700  1.0000
  C   C703      1.0  0.01815  0.34807  0.91265  1.0000
  H   H558      1.0  0.05828  0.26903  0.58567  1.0000
  H   H559      1.0  0.07506  0.40998  0.54944  1.0000
  C   C704      1.0  0.11451  0.42372  0.69367  1.0000
  C   C705      1.0  0.26334  0.29924  0.96815  1.0000
  C   C706      1.0  0.00575  0.24469  0.87949  1.0000
  H   H560      1.0  0.08205  0.30222  0.57088  1.0000
  C   C707      1.0  0.01247  0.26113  0.91823  1.0000
  H   H561      1.0  0.03313  0.25128  0.55509  1.0000
  C   C708      1.0  0.01589  0.31182  0.58502  1.0000
  H   H562      1.0  0.05262  0.33516  0.97308  1.0000
  C   C709      1.0  0.03786  0.24617  0.66229  1.0000
  C   C710      1.0  0.01313  0.28024  0.66938  1.0000
  H   H563      1.0  0.03275  0.26178  0.69629  1.0000
  H   H564      1.0  0.11424  0.24900  0.89273  1.0000
  H   H565      1.0  0.36965  0.24384  0.97889  1.0000
  H   H566      1.0  0.09395  0.27628  0.82538  1.0000
  C   C711      1.0  0.23757  0.45817  0.52494  1.0000
  C   C712      1.0  0.02831  0.26268  0.67779  1.0000
  C   C713      1.0  0.48676  0.42656  0.82484  1.0000
  C   C714      1.0  0.38577  0.28910  0.93531  1.0000
  H   H567      1.0  0.25585  0.45345  0.52207  1.0000
  H   H568      1.0  0.31537  0.27601  0.88067  1.0000
  C   C715      1.0  0.23806  0.25931  0.78943  1.0000
  C   C716      1.0  0.34904  0.26800  0.94145  1.0000
  C   C717      1.0  0.27976  0.28078  0.96773  1.0000
  C   C718      1.0  0.27011  0.32201  0.96172  1.0000
  P   P26       1.0  0.00488  0.28244  0.94057  1.0000
  C   C719      1.0  0.29332  0.32632  0.95474  1.0000
  C   C720      1.0  0.13667  0.46660  0.50039  1.0000
  H   H569      1.0  0.33926  0.24487  0.91292  1.0000
  C   C721      1.0  0.26751  0.25420  0.50392  1.0000
  H   H570      1.0  0.27530  0.25763  0.52086  1.0000
  C   C722      1.0  0.02181  0.24171  0.74300  1.0000
  H   H571      1.0  0.27419  0.26326  0.97285  1.0000
  H   H572      1.0  0.21132  0.24221  0.81029  1.0000
  C   C723      1.0  0.25117  0.38121  0.49183  1.0000
  H   H573      1.0  0.00965  0.34204  0.97439  1.0000
  H   H574      1.0  0.24820  0.47770  0.81627  1.0000
  C   C724      1.0  0.22613  0.24520  0.97762  1.0000
  Fe  Fe47      1.0  0.14969  0.32556  0.98295  1.0000
  H   H575      1.0  0.48517  0.46393  0.82907  1.0000
  H   H576      1.0  0.99502  0.37014  0.89208  1.0000
  C   C725      1.0  0.06883  0.28590  0.97374  1.0000
  H   H577      1.0  0.48369  0.28564  0.75153  1.0000
  C   C726      1.0  0.18475  0.24270  0.54003  1.0000
  H   H578      1.0  0.21100  0.48406  0.72481  1.0000
  C   C727      1.0  0.22921  0.48586  0.72991  1.0000
  C   C728      1.0  0.35194  0.25741  0.91935  1.0000
  H   H579      1.0  0.00055  0.39432  0.97417  1.0000
  H   H580      1.0  0.03823  0.24209  0.93922  1.0000
  H   H581      1.0  0.37397  0.25418  0.88852  1.0000
  H   H582      1.0  0.19026  0.24865  0.50299  1.0000
  H   H583      1.0  0.99132  0.35618  0.69389  1.0000
  C   C729      1.0  0.00041  0.26133  0.89674  1.0000
  C   C730      1.0  0.08055  0.24146  0.83381  1.0000
  C   C731      1.0  0.09348  0.24100  0.61245  1.0000
  C   C732      1.0  0.02144  0.28307  0.98697  1.0000
  C   C733      1.0  0.99671  0.35395  0.90215  1.0000
  H   H584      1.0  0.99633  0.24501  0.86298  1.0000
  H   H585      1.0  0.48658  0.24516  0.60756  1.0000
  H   H586      1.0  0.35112  0.48593  0.73021  1.0000
  C   C734      1.0  0.19232  0.48679  0.83678  1.0000
  H   H587      1.0  0.98894  0.40640  0.93407  1.0000
  Fe  Fe48      1.0  0.98879  0.32549  0.83316  1.0000
  C   C735      1.0  0.20756  0.48794  0.53264  1.0000
  H   H588      1.0  0.08755  0.23867  0.63040  1.0000
  H   H589      1.0  0.15297  0.70998  0.34330  1.0000
  S   S97       1.0  0.19626  0.63771  0.46791  1.0000
  Fe  Fe49      1.0  0.14590  0.67040  0.43310  1.0000
  S   S98       1.0  0.18288  0.66527  0.41954  1.0000
  S   S99       1.0  0.11966  0.68698  0.40639  1.0000
  Fe  Fe50      1.0  0.18062  0.62774  0.43278  1.0000
  S   S100      1.0  0.19368  0.59318  0.41584  1.0000
  Fe  Fe51      1.0  0.19448  0.67585  0.45599  1.0000
  S   S101      1.0  0.22040  0.70716  0.45623  1.0000
  S   S102      1.0  0.14322  0.63207  0.44441  1.0000
  S   S103      1.0  0.15731  0.68153  0.46941  1.0000
  C   C736      1.0  0.17812  0.51280  0.14795  1.0000
  C   C737      1.0  0.21960  0.54723  0.18437  1.0000
  S   S104      1.0  0.02321  0.62669  0.13815  1.0000
  Fe  Fe52      1.0  0.31635  0.53986  0.14616  1.0000
  S   S105      1.0  0.32620  0.55678  0.18047  1.0000
  S   S106      1.0  0.29893  0.56475  0.11870  1.0000
  C   C738      1.0  0.08162  0.62751  0.37894  1.0000
  S   S107      1.0  0.35158  0.50767  0.19642  1.0000
  Fe  Fe53      1.0  0.31478  0.52262  0.19751  1.0000
  S   S108      1.0  0.29136  0.52637  0.23022  1.0000
  Fe  Fe54      1.0  0.36207  0.54035  0.17602  1.0000
  S   S109      1.0  0.39695  0.55755  0.18675  1.0000
  S   S110      1.0  0.30352  0.50626  0.16340  1.0000
  S   S111      1.0  0.35334  0.52519  0.14077  1.0000
  Fe  Fe55      1.0  0.15295  0.63821  0.00787  1.0000
  S   S112      1.0  0.14872  0.67511  0.02161  1.0000
  Fe  Fe56      1.0  0.18121  0.62150  0.05222  1.0000
  S   S113      1.0  0.17748  0.65745  0.06794  1.0000
  S   S114      1.0  0.19719  0.59118  0.07496  1.0000
  Fe  Fe57      1.0  0.13954  0.65734  0.05625  1.0000
  S   S115      1.0  0.10828  0.67189  0.07812  1.0000
  Fe  Fe58      1.0  0.18704  0.67188  0.03198  1.0000
  S   S116      1.0  0.21739  0.69887  0.03215  1.0000
  S   S117      1.0  0.14251  0.62064  0.04222  1.0000
  S   S118      1.0  0.19196  0.63561  0.01644  1.0000
  C   C739      1.0  0.99930  0.67679  0.05619  1.0000
  S   S119      1.0  0.14439  0.51851  0.34716  1.0000
  C   C740      1.0  0.22914  0.72065  0.01247  1.0000
  S   S120      1.0  0.47352  0.62423  0.13715  1.0000
  C   C741      1.0  0.05224  0.71840  0.29384  1.0000
  H   H590      1.0  0.45532  0.67102  0.11646  1.0000
  C   C742      1.0  0.41843  0.57529  0.17216  1.0000
  C   C743      1.0  0.41640  0.58210  0.14856  1.0000
  C   C744      1.0  0.43338  0.59706  0.13819  1.0000
  C   C745      1.0  0.45288  0.60502  0.15107  1.0000
  C   C746      1.0  0.45525  0.59767  0.17448  1.0000
  C   C747      1.0  0.43807  0.58304  0.18496  1.0000
  H   H591      1.0  0.40165  0.57603  0.13835  1.0000
  H   H592      1.0  0.43138  0.60249  0.12003  1.0000
  H   H593      1.0  0.47011  0.60360  0.18466  1.0000
  H   H594      1.0  0.43993  0.57783  0.20319  1.0000
  C   C748      1.0  0.27198  0.50505  0.24268  1.0000
  C   C749      1.0  0.02343  0.67989  0.30430  1.0000
  C   C750      1.0  0.25537  0.51221  0.25969  1.0000
  H   H595      1.0  0.13259  0.57641  0.47154  1.0000
  H   H596      1.0  0.25452  0.53053  0.26474  1.0000
  C   C751      1.0  0.27032  0.57158  0.10690  1.0000
  C   C752      1.0  0.26808  0.59034  0.09065  1.0000
  C   C753      1.0  0.24602  0.59660  0.08079  1.0000
  C   C754      1.0  0.22565  0.58421  0.08700  1.0000
  C   C755      1.0  0.22787  0.56534  0.10317  1.0000
  C   C756      1.0  0.24996  0.55906  0.11304  1.0000
  H   H597      1.0  0.28360  0.60009  0.08551  1.0000
  H   H598      1.0  0.24481  0.61092  0.06819  1.0000
  H   H599      1.0  0.21236  0.55548  0.10813  1.0000
  H   H600      1.0  0.25121  0.54458  0.12542  1.0000
  H   H601      1.0  0.37382  0.57175  0.23727  1.0000
  C   C757      1.0  0.04571  0.63965  0.12011  1.0000
  C   C758      1.0  0.06265  0.62492  0.10937  1.0000
  C   C759      1.0  0.08146  0.63435  0.09595  1.0000
  C   C760      1.0  0.08394  0.65876  0.09339  1.0000
  C   C761      1.0  0.06674  0.67347  0.10372  1.0000
  C   C762      1.0  0.04770  0.66403  0.11681  1.0000
  H   H602      1.0  0.06126  0.60604  0.11157  1.0000
  H   H603      1.0  0.09430  0.62275  0.08792  1.0000
  H   H604      1.0  0.06827  0.69236  0.10175  1.0000
  H   H605      1.0  0.03484  0.67567  0.12476  1.0000
  H   H606      1.0  0.27379  0.72609  0.34432  1.0000
  C   C763      1.0  0.04922  0.69848  0.39462  1.0000
  C   C764      1.0  0.27321  0.72721  0.36333  1.0000
  C   C765      1.0  0.17893  0.57207  0.39786  1.0000
  C   C766      1.0  0.19056  0.55083  0.39216  1.0000
  C   C767      1.0  0.18013  0.53408  0.37716  1.0000
  C   C768      1.0  0.15789  0.53838  0.36739  1.0000
  C   C769      1.0  0.14606  0.55939  0.37349  1.0000
  C   C770      1.0  0.15641  0.57605  0.38867  1.0000
  H   H607      1.0  0.20794  0.54746  0.39914  1.0000
  H   H608      1.0  0.18951  0.51807  0.37279  1.0000
  H   H609      1.0  0.12884  0.56294  0.36620  1.0000
  H   H610      1.0  0.14714  0.59216  0.39292  1.0000
  C   C771      1.0  0.11036  0.71613  0.39793  1.0000
  H   H611      1.0  0.02285  0.63104  0.33605  1.0000
  H   H612      1.0  0.10018  0.70523  0.36325  1.0000
  H   H613      1.0  0.47542  0.56385  0.13360  1.0000
  H   H614      1.0  0.00074  0.67813  0.99224  1.0000
  C   C772      1.0  0.12397  0.51704  0.46960  1.0000
  C   C773      1.0  0.36444  0.69612  0.37914  1.0000
  P   P27       1.0  0.31982  0.73838  0.41695  1.0000
  H   H615      1.0  0.40323  0.51127  0.20528  1.0000
  C   C774      1.0  0.19875  0.72153  0.08683  1.0000
  C   C775      1.0  0.14237  0.53135  0.13359  1.0000
  H   H616      1.0  0.01250  0.68249  0.26801  1.0000
  H   H617      1.0  0.04425  0.64788  0.05854  1.0000
  H   H618      1.0  0.12972  0.53421  0.11960  1.0000
  C   C776      1.0  0.10241  0.63108  0.36624  1.0000
  C   C777      1.0  0.15684  0.71431  0.08623  1.0000
  C   C778      1.0  0.16327  0.52707  0.45634  1.0000
  C   C779      1.0  0.21889  0.72609  0.99073  1.0000
  C   C780      1.0  0.21389  0.56536  0.16835  1.0000
  C   C781      1.0  0.00182  0.71482  0.08735  1.0000
  H   H619      1.0  0.23843  0.50771  0.16112  1.0000
  H   H620      1.0  0.04594  0.63864  0.38459  1.0000
  C   C782      1.0  0.16518  0.51585  0.22570  1.0000
  C   C783      1.0  0.01069  0.66080  0.35652  1.0000
  C   C784      1.0  0.47304  0.50382  0.13747  1.0000
  H   H621      1.0  0.01204  0.66510  0.30772  1.0000
  H   H622      1.0  0.47205  0.52358  0.19383  1.0000
  H   H623      1.0  0.33215  0.57880  0.24860  1.0000
  H   H624      1.0  0.29649  0.69612  0.43662  1.0000
  C   C785      1.0  0.16953  0.52674  0.26658  1.0000
  C   C786      1.0  0.17665  0.72547  0.07683  1.0000
  C   C787      1.0  0.21245  0.57058  0.47875  1.0000
  H   H625      1.0  0.11015  0.50425  0.47238  1.0000
  Fe  Fe59      1.0  0.34142  0.49307  0.16137  1.0000
  C   C788      1.0  0.15670  0.54034  0.17255  1.0000
  C   C789      1.0  0.16139  0.51602  0.13020  1.0000
  H   H626      1.0  0.16292  0.52680  0.28454  1.0000
  H   H627      1.0  0.44664  0.53163  0.13667  1.0000
  C   C790      1.0  0.47001  0.68097  0.10940  1.0000
  H   H628      1.0  0.37936  0.49980  0.07266  1.0000
  C   C791      1.0  0.18707  0.52604  0.22027  1.0000
  C   C792      1.0  0.47196  0.70510  0.11381  1.0000
  C   C793      1.0  0.23372  0.49349  0.17303  1.0000
  C   C794      1.0  0.47113  0.72605  0.24180  1.0000
  H   H629      1.0  0.41635  0.51008  0.16395  1.0000
  C   C795      1.0  0.24797  0.64341  0.15881  1.0000
  C   C796      1.0  0.25932  0.63888  0.13744  1.0000
  C   C797      1.0  0.24826  0.64476  0.11632  1.0000
  C   C798      1.0  0.22577  0.65483  0.11646  1.0000
  C   C799      1.0  0.21431  0.65974  0.13784  1.0000
  C   C800      1.0  0.22552  0.65371  0.15904  1.0000
  P   P28       1.0  0.18479  0.67200  0.13787  1.0000
  C   C801      1.0  0.16364  0.64867  0.13372  1.0000
  C   C802      1.0  0.17894  0.68615  0.16566  1.0000
  C   C803      1.0  0.02860  0.72384  0.36703  1.0000
  H   H630      1.0  0.17694  0.73100  0.41111  1.0000
  C   C804      1.0  0.02944  0.63787  0.00139  1.0000
  C   C805      1.0  0.16658  0.68367  0.20660  1.0000
  C   C806      1.0  0.17148  0.67274  0.18515  1.0000
  C   C807      1.0  0.14015  0.65177  0.14102  1.0000
  C   C808      1.0  0.12360  0.63402  0.13746  1.0000
  C   C809      1.0  0.13030  0.61308  0.12648  1.0000
  C   C810      1.0  0.15359  0.60982  0.11918  1.0000
  C   C811      1.0  0.17023  0.62749  0.12279  1.0000
  C   C812      1.0  0.18149  0.69387  0.11477  1.0000
  C   C813      1.0  0.15920  0.69871  0.10522  1.0000
  H   H631      1.0  0.45874  0.71371  0.12452  1.0000
  H   H632      1.0  0.47768  0.65686  0.21278  1.0000
  C   C814      1.0  0.37048  0.71506  0.20447  1.0000
  C   C815      1.0  0.15841  0.72385  0.35505  1.0000
  H   H633      1.0  0.25646  0.63865  0.17521  1.0000
  H   H634      1.0  0.27654  0.63051  0.13713  1.0000
  H   H635      1.0  0.25697  0.64121  0.09971  1.0000
  H   H636      1.0  0.21733  0.65862  0.09982  1.0000
  H   H637      1.0  0.21699  0.65678  0.17578  1.0000
  C   C816      1.0  0.41642  0.50227  0.08036  1.0000
  C   C817      1.0  0.48150  0.54573  0.13452  1.0000
  C   C818      1.0  0.22169  0.54778  0.47737  1.0000
  H   H638      1.0  0.16060  0.67326  0.22150  1.0000
  H   H639      1.0  0.16936  0.65385  0.18372  1.0000
  H   H640      1.0  0.13442  0.66813  0.14894  1.0000
  H   H641      1.0  0.10536  0.63684  0.14248  1.0000
  H   H642      1.0  0.11726  0.59970  0.12304  1.0000
  H   H643      1.0  0.15870  0.59387  0.11005  1.0000
  H   H644      1.0  0.18798  0.62467  0.11639  1.0000
  H   H645      1.0  0.14365  0.68982  0.11164  1.0000
  H   H646      1.0  0.22710  0.50169  0.28320  1.0000
  C   C819      1.0  0.99338  0.62401  0.07743  1.0000
  C   C820      1.0  0.30678  0.70427  0.45028  1.0000
  C   C821      1.0  0.12841  0.48970  0.41286  1.0000
  C   C822      1.0  0.34539  0.72712  0.40168  1.0000
  H   H647      1.0  0.23454  0.72335  0.40909  1.0000
  H   H648      1.0  0.17090  0.56424  0.45482  1.0000
  H   H649      1.0  0.25757  0.72911  0.03588  1.0000
  H   H650      1.0  0.32200  0.70644  0.17074  1.0000
  H   H651      1.0  0.35856  0.69015  0.01212  1.0000
  C   C823      1.0  0.08331  0.66200  0.34362  1.0000
  C   C824      1.0  0.34611  0.70139  0.00297  1.0000
  H   H652      1.0  0.98995  0.60260  0.10863  1.0000
  C   C825      1.0  0.33961  0.72310  0.01251  1.0000
  C   C826      1.0  0.25185  0.72409  0.37526  1.0000
  C   C827      1.0  0.43408  0.49757  0.09683  1.0000
  H   H653      1.0  0.18749  0.72133  0.15335  1.0000
  C   C828      1.0  0.15815  0.55094  0.45974  1.0000
  Fe  Fe60      1.0  0.15863  0.64257  0.47943  1.0000
  H   H654      1.0  0.99330  0.68683  0.37842  1.0000
  H   H655      1.0  0.42074  0.51090  0.06386  1.0000
  H   H656      1.0  0.20163  0.54458  0.27528  1.0000
  C   C829      1.0  0.19132  0.53684  0.26135  1.0000
  C   C830      1.0  0.24018  0.71950  0.47712  1.0000
  H   H657      1.0  0.16515  0.71651  0.22536  1.0000
  H   H658      1.0  0.12555  0.55580  0.15718  1.0000
  H   H659      1.0  0.36368  0.67918  0.37052  1.0000
  H   H660      1.0  0.16591  0.69996  0.38358  1.0000
  H   H661      1.0  0.99832  0.64497  0.24358  1.0000
  H   H662      1.0  0.19676  0.56638  0.16019  1.0000
  C   C831      1.0  0.34455  0.70505  0.39073  1.0000
  C   C832      1.0  0.46527  0.52737  0.13622  1.0000
  C   C833      1.0  0.43849  0.73251  0.18458  1.0000
  P   P29       1.0  0.03719  0.67776  0.35179  1.0000
  H   H663      1.0  0.03273  0.68972  0.04282  1.0000
  C   C834      1.0  0.06166  0.64120  0.37406  1.0000
  H   H664      1.0  0.23146  0.54257  0.46182  1.0000
  C   C835      1.0  0.33046  0.61295  0.23174  1.0000
  C   C836      1.0  0.32327  0.73740  0.00086  1.0000
  H   H665      1.0  0.01155  0.72554  0.20080  1.0000
  C   C837      1.0  0.36522  0.58819  0.23250  1.0000
  C   C838      1.0  0.37738  0.60492  0.21908  1.0000
  C   C839      1.0  0.36616  0.62576  0.21171  1.0000
  C   C840      1.0  0.34255  0.62967  0.21815  1.0000
  P   P30       1.0  0.38065  0.64481  0.19059  1.0000
  C   C841      1.0  0.36835  0.67426  0.19183  1.0000
  C   C842      1.0  0.41171  0.64703  0.19725  1.0000
  C   C843      1.0  0.41931  0.64575  0.22074  1.0000
  C   C844      1.0  0.44301  0.64923  0.22627  1.0000
  C   C845      1.0  0.45926  0.65438  0.20850  1.0000
  C   C846      1.0  0.45180  0.65615  0.18520  1.0000
  C   C847      1.0  0.42820  0.65223  0.17950  1.0000
  C   C848      1.0  0.34742  0.67959  0.17978  1.0000
  C   C849      1.0  0.33815  0.70247  0.18008  1.0000
  H   H666      1.0  0.42573  0.70922  0.15787  1.0000
  H   H667      1.0  0.48135  0.70013  0.21575  1.0000
  C   C850      1.0  0.37976  0.69219  0.20428  1.0000
  C   C851      1.0  0.37528  0.63334  0.16145  1.0000
  C   C852      1.0  0.36524  0.61095  0.15850  1.0000
  C   C853      1.0  0.35908  0.60311  0.13610  1.0000
  C   C854      1.0  0.36325  0.61730  0.11640  1.0000
  C   C855      1.0  0.37343  0.63948  0.11909  1.0000
  C   C856      1.0  0.37925  0.64756  0.14151  1.0000
  C   C857      1.0  0.04616  0.64396  0.03999  1.0000
  C   C858      1.0  0.33406  0.73397  0.46363  1.0000
  C   C859      1.0  0.05208  0.70875  0.31653  1.0000
  H   H668      1.0  0.39526  0.60104  0.21356  1.0000
  H   H669      1.0  0.33323  0.64524  0.21225  1.0000
  H   H670      1.0  0.40693  0.64233  0.23486  1.0000
  H   H671      1.0  0.44883  0.64804  0.24438  1.0000
  C   C860      1.0  0.03845  0.70172  0.37262  1.0000
  H   H672      1.0  0.46450  0.65996  0.17144  1.0000
  H   H673      1.0  0.42312  0.65299  0.16124  1.0000
  H   H674      1.0  0.33826  0.66605  0.17012  1.0000
  C   C861      1.0  0.07154  0.63377  0.00721  1.0000
  C   C862      1.0  0.38653  0.73060  0.39027  1.0000
  C   C863      1.0  0.05033  0.71707  0.41058  1.0000
  H   H675      1.0  0.39584  0.68870  0.21385  1.0000
  H   H676      1.0  0.36205  0.59935  0.17332  1.0000
  H   H677      1.0  0.35112  0.58590  0.13402  1.0000
  H   H678      1.0  0.35851  0.61105  0.09909  1.0000
  H   H679      1.0  0.37662  0.65045  0.10376  1.0000
  H   H680      1.0  0.38654  0.66502  0.14333  1.0000
  C   C864      1.0  0.01859  0.69218  0.05539  1.0000
  C   C865      1.0  0.11916  0.54091  0.47354  1.0000
  H   H681      1.0  0.15512  0.55060  0.18848  1.0000
  H   H682      1.0  0.45257  0.72488  0.23790  1.0000
  C   C866      1.0  0.20117  0.70600  0.10588  1.0000
  H   H683      1.0  0.08461  0.67553  0.33024  1.0000
  P   P31       1.0  0.19911  0.52373  0.19082  1.0000
  C   C867      1.0  0.03819  0.70867  0.27638  1.0000
  H   H684      1.0  0.21502  0.58295  0.46433  1.0000
  Fe  Fe61      1.0  0.98905  0.64227  0.15401  1.0000
  H   H685      1.0  0.13971  0.71699  0.07825  1.0000
  C   C868      1.0  0.13632  0.55785  0.46877  1.0000
  C   C869      1.0  0.30626  0.69445  0.47290  1.0000
  H   H686      1.0  0.32854  0.69476  0.39114  1.0000
  C   C870      1.0  0.03761  0.68947  0.32204  1.0000
  H   H687      1.0  0.02041  0.72704  0.35018  1.0000
  C   C871      1.0  0.14001  0.54349  0.15477  1.0000
  C   C872      1.0  0.34970  0.72021  0.19238  1.0000
  C   C873      1.0  0.16577  0.71819  0.37778  1.0000
  C   C874      1.0  0.32005  0.72461  0.44568  1.0000
  H   H688      1.0  0.08902  0.63022  0.00023  1.0000
  C   C875      1.0  0.02648  0.64425  0.02507  1.0000
  H   H689      1.0  0.18018  0.52237  0.44883  1.0000
  H   H690      1.0  0.11953  0.65127  0.33907  1.0000
  C   C876      1.0  0.34173  0.59213  0.23875  1.0000
  H   H691      1.0  0.40075  0.70220  0.36963  1.0000
  C   C877      1.0  0.17580  0.52482  0.16934  1.0000
  C   C878      1.0  0.25107  0.72571  0.39975  1.0000
  C   C879      1.0  0.05195  0.63295  0.99247  1.0000
  H   H692      1.0  0.11803  0.62080  0.37039  1.0000
  H   H693      1.0  0.24552  0.66903  0.99882  1.0000
  C   C880      1.0  0.23078  0.58205  0.16185  1.0000
  C   C881      1.0  0.25347  0.58075  0.17120  1.0000
  C   C882      1.0  0.25906  0.56318  0.18755  1.0000
  C   C883      1.0  0.24227  0.54643  0.19402  1.0000
  H   H694      1.0  0.08120  0.61448  0.39295  1.0000
  H   H695      1.0  0.00298  0.72918  0.09974  1.0000
  H   H696      1.0  0.22660  0.59537  0.14873  1.0000
  H   H697      1.0  0.26692  0.59292  0.16533  1.0000
  H   H698      1.0  0.27660  0.56210  0.19486  1.0000
  H   H699      1.0  0.24723  0.53245  0.20609  1.0000
  C   C884      1.0  0.16915  0.70802  0.20879  1.0000
  H   H700      1.0  0.45020  0.71943  0.19220  1.0000
  C   C885      1.0  0.48761  0.66926  0.09674  1.0000
  C   C886      1.0  0.14631  0.50984  0.46160  1.0000
  H   H701      1.0  0.16354  0.50721  0.11349  1.0000
  C   C887      1.0  0.18171  0.71058  0.16806  1.0000
  H   H702      1.0  0.37944  0.72881  0.21404  1.0000
  C   C888      1.0  0.06232  0.65857  0.35632  1.0000
  C   C889      1.0  0.15645  0.51626  0.24875  1.0000
  H   H703      1.0  0.21726  0.54394  0.23493  1.0000
  H   H704      1.0  0.23588  0.72043  0.36561  1.0000
  H   H705      1.0  0.13970  0.50818  0.25297  1.0000
  H   H706      1.0  0.05745  0.68191  0.39939  1.0000
  H   H707      1.0  0.08382  0.63957  0.04246  1.0000
  C   C890      1.0  0.02366  0.68959  0.28162  1.0000
  C   C891      1.0  0.10070  0.71977  0.37536  1.0000
  H   H708      1.0  0.29517  0.67940  0.47663  1.0000
  H   H709      1.0  0.21851  0.70306  0.11314  1.0000
  C   C892      1.0  0.20011  0.53647  0.23833  1.0000
  H   H710      1.0  0.31214  0.61578  0.23635  1.0000
  C   C893      1.0  0.10323  0.64826  0.34856  1.0000
  C   C894      1.0  0.23984  0.49589  0.27025  1.0000
  C   C895      1.0  0.17676  0.72146  0.18954  1.0000
  H   H711      1.0  0.17500  0.73675  0.06146  1.0000
  H   H712      1.0  0.13715  0.50663  0.41343  1.0000
  H   H713      1.0  0.05946  0.71466  0.42713  1.0000
  H   H714      1.0  0.21412  0.72984  0.07912  1.0000
  C   C896      1.0  0.06861  0.63905  0.03101  1.0000
  H   H715      1.0  0.03523  0.72228  0.07090  1.0000
  C   C897      1.0  0.01996  0.71093  0.07115  1.0000
  C   C898      1.0  0.00858  0.63838  0.34646  1.0000
  C   C899      1.0  0.00736  0.73308  0.21774  1.0000
  C   C900      1.0  0.38537  0.70899  0.37874  1.0000
  H   H716      1.0  0.06320  0.71640  0.32981  1.0000
  H   H717      1.0  0.10197  0.54642  0.47982  1.0000
  C   C901      1.0  0.33347  0.72412  0.48622  1.0000
  H   H718      1.0  0.00274  0.63772  0.08665  1.0000
  C   C902      1.0  0.24945  0.73308  0.01914  1.0000
  H   H719      1.0  0.03847  0.71601  0.25875  1.0000
  C   C903      1.0  0.21494  0.49604  0.18901  1.0000
  H   H720      1.0  0.15506  0.50713  0.21226  1.0000
  C   C904      1.0  0.17182  0.73600  0.39346  1.0000
  C   C905      1.0  0.42397  0.49780  0.17649  1.0000
  H   H721      1.0  0.19313  0.50145  0.14465  1.0000
  H   H722      1.0  0.11813  0.73291  0.43077  1.0000
  C   C906      1.0  0.29385  0.73160  0.37592  1.0000
  C   C907      1.0  0.29329  0.73257  0.40059  1.0000
  P   P32       1.0  0.99775  0.65174  0.03686  1.0000
  H   H723      1.0  0.31020  0.73416  0.36640  1.0000
  C   C908      1.0  0.27165  0.73017  0.41233  1.0000
  C   C909      1.0  0.42478  0.72680  0.16515  1.0000
  C   C910      1.0  0.39315  0.49600  0.08526  1.0000
  C   C911      1.0  0.48737  0.71179  0.22934  1.0000
  H   H724      1.0  0.06309  0.73357  0.28976  1.0000
  H   H725      1.0  0.01450  0.63663  0.98976  1.0000
  C   C912      1.0  0.41650  0.49862  0.19996  1.0000
  H   H726      1.0  0.34706  0.72881  0.02900  1.0000
  H   H727      1.0  0.48642  0.65043  0.09392  1.0000
  H   H728      1.0  0.00586  0.60508  0.26012  1.0000
  H   H729      1.0  0.45206  0.50238  0.09266  1.0000
  C   C913      1.0  0.99206  0.66974  0.37018  1.0000
  H   H730      1.0  0.11047  0.50260  0.16791  1.0000
  H   H731      1.0  0.11065  0.49833  0.38053  1.0000
  H   H732      1.0  0.27067  0.73145  0.43124  1.0000
  H   H733      1.0  0.34249  0.73793  0.19262  1.0000
  C   C914      1.0  0.11091  0.73529  0.41333  1.0000
  C   C915      1.0  0.99136  0.61561  0.26680  1.0000
  C   C916      1.0  0.98838  0.62615  0.05333  1.0000
  H   H734      1.0  0.28490  0.68358  0.98847  1.0000
  H   H735      1.0  0.18510  0.73853  0.48152  1.0000
  Fe  Fe62      1.0  0.06028  0.64223  0.80945  1.0000
  S   S121      1.0  0.07293  0.67834  0.81943  1.0000
  S   S122      1.0  0.08764  0.62566  0.78386  1.0000
  Fe  Fe63      1.0  0.01672  0.64866  0.84225  1.0000
  S   S123      1.0  0.02739  0.68496  0.85332  1.0000
  Fe  Fe64      1.0  0.03557  0.69081  0.81476  1.0000
  C   C917      1.0  0.11476  0.53771  0.86172  1.0000
  Fe  Fe65      1.0  0.06382  0.66922  0.85699  1.0000
  S   S124      1.0  0.08920  0.67979  0.88649  1.0000
  S   S125      1.0  0.02295  0.65521  0.80317  1.0000
  S   S126      1.0  0.05309  0.63257  0.84757  1.0000
  Fe  Fe66      1.0  0.16067  0.50212  0.64363  1.0000
  S   S127      1.0  0.19523  0.52014  0.63715  1.0000
  Fe  Fe67      1.0  0.14497  0.54002  0.68006  1.0000
  S   S128      1.0  0.17864  0.56019  0.67515  1.0000
  S   S129      1.0  0.11366  0.54917  0.70458  1.0000
  Fe  Fe68      1.0  0.17423  0.55399  0.63607  1.0000
  S   S130      1.0  0.18383  0.58344  0.60964  1.0000
  Fe  Fe69      1.0  0.19688  0.52467  0.67662  1.0000
  S   S131      1.0  0.23233  0.52195  0.69614  1.0000
  S   S132      1.0  0.13941  0.53592  0.64088  1.0000
  H   H736      1.0  0.36510  0.63168  0.89621  1.0000
  S   S133      1.0  0.35132  0.51231  0.85158  1.0000
  S   S134      1.0  0.14326  0.62161  0.51088  1.0000
  Fe  Fe70      1.0  0.43075  0.62996  0.81578  1.0000
  S   S135      1.0  0.45095  0.63375  0.84962  1.0000
  S   S136      1.0  0.41127  0.59633  0.80405  1.0000
  Fe  Fe71      1.0  0.44831  0.67883  0.79731  1.0000
  S   S137      1.0  0.44477  0.70978  0.77119  1.0000
  Fe  Fe72      1.0  0.43732  0.67160  0.84976  1.0000
  S   S138      1.0  0.42297  0.68934  0.88358  1.0000
  S   S139      1.0  0.46128  0.64157  0.79253  1.0000
  S   S140      1.0  0.41566  0.66698  0.81707  1.0000
  C   C918      1.0  0.19196  0.53564  0.74291  1.0000
  H   H737      1.0  0.10791  0.61159  0.82715  1.0000
  H   H738      1.0  0.29685  0.65189  0.92195  1.0000
  H   H739      1.0  0.03232  0.70921  0.71302  1.0000
  C   C919      1.0  0.40582  0.71527  0.88990  1.0000
  C   C920      1.0  0.39944  0.72013  0.91340  1.0000
  C   C921      1.0  0.38407  0.73466  0.60093  1.0000
  C   C922      1.0  0.01045  0.73431  0.65406  1.0000
  C   C923      1.0  0.26380  0.71748  0.51279  1.0000
  C   C924      1.0  0.19919  0.57721  0.49838  1.0000
  H   H740      1.0  0.26913  0.70785  0.52838  1.0000
  C   C925      1.0  0.36934  0.53486  0.83861  1.0000
  C   C926      1.0  0.37437  0.55533  0.85154  1.0000
  C   C927      1.0  0.38766  0.57402  0.84161  1.0000
  C   C928      1.0  0.39599  0.57263  0.81842  1.0000
  C   C929      1.0  0.39117  0.55203  0.80561  1.0000
  C   C930      1.0  0.37825  0.53322  0.81570  1.0000
  H   H741      1.0  0.36781  0.55682  0.86936  1.0000
  H   H742      1.0  0.39113  0.58964  0.85178  1.0000
  H   H743      1.0  0.39753  0.55059  0.78772  1.0000
  H   H744      1.0  0.37507  0.51745  0.80572  1.0000
  C   C931      1.0  0.17284  0.59245  0.58147  1.0000
  C   C932      1.0  0.18563  0.60916  0.56822  1.0000
  C   C933      1.0  0.17725  0.61777  0.54637  1.0000
  C   C934      1.0  0.15566  0.61007  0.53754  1.0000
  C   C935      1.0  0.14304  0.59306  0.55061  1.0000
  C   C936      1.0  0.15162  0.58416  0.57228  1.0000
  H   H745      1.0  0.20206  0.61574  0.57503  1.0000
  H   H746      1.0  0.18722  0.63082  0.53667  1.0000
  H   H747      1.0  0.12637  0.58686  0.54401  1.0000
  H   H748      1.0  0.14155  0.57128  0.58211  1.0000
  H   H749      1.0  0.11407  0.69633  0.70749  1.0000
  H   H750      1.0  0.99708  0.72566  0.83761  1.0000
  H   H751      1.0  0.00845  0.58325  0.84478  1.0000
  H   H752      1.0  0.27838  0.51683  0.71636  1.0000
  H   H753      1.0  0.36889  0.64984  0.77218  1.0000
  C   C937      1.0  0.09989  0.66450  0.91196  1.0000
  C   C938      1.0  0.11488  0.67641  0.92753  1.0000
  C   C939      1.0  0.12500  0.66480  0.94714  1.0000
  C   C940      1.0  0.12055  0.64092  0.95134  1.0000
  C   C941      1.0  0.10527  0.62906  0.93597  1.0000
  C   C942      1.0  0.09487  0.64077  0.91654  1.0000
  H   H754      1.0  0.11891  0.69475  0.92426  1.0000
  H   H755      1.0  0.13670  0.67422  0.95868  1.0000
  H   H756      1.0  0.10170  0.61059  0.93895  1.0000
  H   H757      1.0  0.08350  0.63129  0.90474  1.0000
  H   H758      1.0  0.40500  0.69520  0.65290  1.0000
  C   C943      1.0  0.28154  0.61716  0.70746  1.0000
  C   C944      1.0  0.06350  0.68018  0.61825  1.0000
  C   C945      1.0  0.34797  0.61986  0.76244  1.0000
  C   C946      1.0  0.09416  0.60451  0.76146  1.0000
  C   C947      1.0  0.07818  0.58715  0.75472  1.0000
  C   C948      1.0  0.08438  0.57067  0.73716  1.0000
  C   C949      1.0  0.10650  0.57135  0.72581  1.0000
  C   C950      1.0  0.12233  0.58897  0.73226  1.0000
  C   C951      1.0  0.11621  0.60533  0.74999  1.0000
  H   H759      1.0  0.06110  0.58628  0.76314  1.0000
  H   H760      1.0  0.07196  0.55714  0.73244  1.0000
  H   H761      1.0  0.13943  0.58973  0.72387  1.0000
  H   H762      1.0  0.12874  0.61866  0.75496  1.0000
  H   H763      1.0  0.06675  0.55078  0.67964  1.0000
  H   H764      1.0  0.07222  0.56795  0.88219  1.0000
  C   C952      1.0  0.36848  0.63340  0.76262  1.0000
  H   H765      1.0  0.23797  0.57428  0.59411  1.0000
  C   C953      1.0  0.46696  0.72275  0.75296  1.0000
  H   H766      1.0  0.21548  0.66350  0.96806  1.0000
  H   H767      1.0  0.18673  0.49655  0.78798  1.0000
  H   H768      1.0  0.07290  0.57363  0.80643  1.0000
  C   C954      1.0  0.15224  0.52606  0.53166  1.0000
  C   C955      1.0  0.24335  0.50257  0.71854  1.0000
  H   H769      1.0  0.36512  0.73637  0.59939  1.0000
  H   H770      1.0  0.33006  0.51061  0.70078  1.0000
  C   C956      1.0  0.10744  0.53902  0.80226  1.0000
  H   H771      1.0  0.03530  0.69345  0.75356  1.0000
  H   H772      1.0  0.28228  0.63405  0.69850  1.0000
  H   H773      1.0  0.00277  0.58582  0.70033  1.0000
  H   H774      1.0  0.03033  0.58172  0.80692  1.0000
  C   C957      1.0  0.24501  0.53833  0.60431  1.0000
  H   H775      1.0  0.13044  0.57436  0.88960  1.0000
  C   C958      1.0  0.22701  0.50854  0.58009  1.0000
  H   H776      1.0  0.07367  0.69422  0.61022  1.0000
  C   C959      1.0  0.06311  0.57008  0.86560  1.0000
  H   H777      1.0  0.07919  0.52439  0.86550  1.0000
  C   C960      1.0  0.39487  0.68833  0.68869  1.0000
  H   H778      1.0  0.23994  0.69022  0.50129  1.0000
  H   H779      1.0  0.17890  0.50030  0.83849  1.0000
  S   S141      1.0  0.13481  0.62472  0.97437  1.0000
  H   H780      1.0  0.31832  0.69747  0.50864  1.0000
  H   H781      1.0  0.16358  0.50927  0.88253  1.0000
  C   C961      1.0  0.41935  0.73445  0.62508  1.0000
  C   C962      1.0  0.20523  0.53841  0.51590  1.0000
  C   C963      1.0  0.11925  0.58992  0.85645  1.0000
  H   H782      1.0  0.99089  0.70460  0.77146  1.0000
  C   C964      1.0  0.11673  0.61119  0.84398  1.0000
  C   C965      1.0  0.11577  0.53371  0.77973  1.0000
  H   H783      1.0  0.40920  0.72218  0.73561  1.0000
  H   H784      1.0  0.01341  0.64883  0.60979  1.0000
  C   C966      1.0  0.09762  0.52163  0.86943  1.0000
  C   C967      1.0  0.31942  0.70451  0.49090  1.0000
  H   H785      1.0  0.05432  0.62861  0.97406  1.0000
  H   H786      1.0  0.25496  0.54308  0.61978  1.0000
  H   H787      1.0  0.46914  0.52990  0.85444  1.0000
  H   H788      1.0  0.09270  0.52923  0.80940  1.0000
  C   C968      1.0  0.31859  0.72973  0.90673  1.0000
  C   C969      1.0  0.33630  0.69402  0.98175  1.0000
  H   H789      1.0  0.34328  0.73214  0.50034  1.0000
  P   P33       1.0  0.10692  0.56336  0.84444  1.0000
  H   H790      1.0  0.02536  0.54891  0.69361  1.0000
  C   C970      1.0  0.13781  0.61124  0.88829  1.0000
  C   C971      1.0  0.36821  0.58999  0.73962  1.0000
  H   H791      1.0  0.02949  0.57656  0.88225  1.0000
  C   C972      1.0  0.12482  0.63227  0.85351  1.0000
  C   C973      1.0  0.13551  0.63227  0.87558  1.0000
  H   H792      1.0  0.12198  0.64877  0.84420  1.0000
  H   H793      1.0  0.14094  0.64878  0.88333  1.0000
  S   S142      1.0  0.46929  0.68454  0.83007  1.0000
  H   H794      1.0  0.40303  0.72769  0.85426  1.0000
  C   C974      1.0  0.48795  0.71100  0.74736  1.0000
  C   C975      1.0  0.30145  0.72310  0.92340  1.0000
  H   H795      1.0  0.24469  0.49515  0.52801  1.0000
  C   C976      1.0  0.41705  0.72273  0.67608  1.0000
  C   C977      1.0  0.23297  0.66942  0.96317  1.0000
  C   C978      1.0  0.14545  0.56387  0.78326  1.0000
  H   H796      1.0  0.11543  0.53274  0.52534  1.0000
  H   H797      1.0  0.15715  0.53017  0.51368  1.0000
  C   C979      1.0  0.34555  0.50366  0.73462  1.0000
  C   C980      1.0  0.38886  0.62521  0.75146  1.0000
  C   C981      1.0  0.32025  0.70858  0.96966  1.0000
  H   H798      1.0  0.24751  0.50107  0.61110  1.0000
  C   C982      1.0  0.35387  0.64413  0.90540  1.0000
  C   C983      1.0  0.28074  0.73659  0.92526  1.0000
  C   C984      1.0  0.07551  0.56859  0.84423  1.0000
  C   C985      1.0  0.28906  0.52171  0.79406  1.0000
  C   C986      1.0  0.30193  0.52512  0.81455  1.0000
  C   C987      1.0  0.29024  0.52822  0.83596  1.0000
  C   C988      1.0  0.26562  0.52819  0.83684  1.0000
  C   C989      1.0  0.25249  0.52505  0.81621  1.0000
  C   C990      1.0  0.26449  0.52140  0.79487  1.0000
  P   P34       1.0  0.22083  0.52196  0.81756  1.0000
  C   C991      1.0  0.20867  0.54230  0.83889  1.0000
  C   C992      1.0  0.20869  0.52772  0.78870  1.0000
  C   C993      1.0  0.21625  0.54740  0.77562  1.0000
  C   C994      1.0  0.20790  0.55131  0.75282  1.0000
  H   H799      1.0  0.15208  0.54449  0.85936  1.0000
  C   C995      1.0  0.24080  0.51466  0.59940  1.0000
  C   C996      1.0  0.13848  0.51495  0.57762  1.0000
  C   C997      1.0  0.19786  0.56352  0.83182  1.0000
  C   C998      1.0  0.18911  0.57926  0.84862  1.0000
  C   C999      1.0  0.19102  0.57395  0.87257  1.0000
  C   C1000     1.0  0.20136  0.55273  0.87975  1.0000
  C   C1001     1.0  0.21007  0.53693  0.86302  1.0000
  C   C1002     1.0  0.23556  0.55588  0.58981  1.0000
  H   H800      1.0  0.20332  0.71676  0.98524  1.0000
  C   C1003     1.0  0.03936  0.57785  0.82324  1.0000
  H   H801      1.0  0.40502  0.63524  0.75246  1.0000
  C   C1004     1.0  0.23841  0.67445  0.93968  1.0000
  H   H802      1.0  0.19142  0.59468  0.49924  1.0000
  C   C1005     1.0  0.21782  0.52610  0.56506  1.0000
  H   H803      1.0  0.32099  0.52497  0.81392  1.0000
  H   H804      1.0  0.30044  0.53021  0.85191  1.0000
  H   H805      1.0  0.25707  0.53003  0.85372  1.0000
  H   H806      1.0  0.25500  0.51756  0.77890  1.0000
  H   H807      1.0  0.22901  0.55942  0.78287  1.0000
  H   H808      1.0  0.21415  0.56615  0.74254  1.0000
  C   C1006     1.0  0.22207  0.54984  0.57026  1.0000
  H   H809      1.0  0.38839  0.68525  0.72601  1.0000
  H   H810      1.0  0.36625  0.72771  0.78672  1.0000
  H   H811      1.0  0.19611  0.56808  0.81343  1.0000
  H   H812      1.0  0.18086  0.59566  0.84313  1.0000
  H   H813      1.0  0.18442  0.58625  0.88558  1.0000
  H   H814      1.0  0.20277  0.54859  0.89835  1.0000
  H   H815      1.0  0.21809  0.52058  0.86895  1.0000
  H   H816      1.0  0.29818  0.51867  0.77764  1.0000
  C   C1007     1.0  0.12949  0.59014  0.87891  1.0000
  P   P35       1.0  0.20005  0.51800  0.54002  1.0000
  C   C1008     1.0  0.06355  0.57306  0.82306  1.0000
  H   H817      1.0  0.13311  0.51039  0.59536  1.0000
  C   C1009     1.0  0.40773  0.71667  0.71745  1.0000
  C   C1010     1.0  0.32987  0.63956  0.90833  1.0000
  C   C1011     1.0  0.05838  0.65097  0.64932  1.0000
  C   C1012     1.0  0.07129  0.66942  0.63902  1.0000
  P   P36       1.0  0.06818  0.63811  0.67676  1.0000
  C   C1013     1.0  0.05468  0.60967  0.68157  1.0000
  C   C1014     1.0  0.09978  0.63420  0.67513  1.0000
  C   C1015     1.0  0.11014  0.62606  0.65416  1.0000
  C   C1016     1.0  0.13436  0.62164  0.65296  1.0000
  C   C1017     1.0  0.14846  0.62544  0.67261  1.0000
  C   C1018     1.0  0.13837  0.63379  0.69344  1.0000
  C   C1019     1.0  0.11411  0.63811  0.69477  1.0000
  C   C1020     1.0  0.06732  0.58865  0.67791  1.0000
  C   C1021     1.0  0.05667  0.56687  0.68212  1.0000
  C   C1022     1.0  0.03343  0.56584  0.69014  1.0000
  C   C1023     1.0  0.02075  0.58663  0.69395  1.0000
  C   C1024     1.0  0.03132  0.60846  0.68975  1.0000
  C   C1025     1.0  0.05911  0.65661  0.70097  1.0000
  C   C1026     1.0  0.04897  0.67896  0.69704  1.0000
  C   C1027     1.0  0.04032  0.69211  0.71598  1.0000
  C   C1028     1.0  0.04185  0.68319  0.73887  1.0000
  C   C1029     1.0  0.05206  0.66114  0.74288  1.0000
  C   C1030     1.0  0.06046  0.64780  0.72404  1.0000
  C   C1031     1.0  0.03736  0.64372  0.63872  1.0000
  C   C1032     1.0  0.39609  0.69580  0.71203  1.0000
  H   H818      1.0  0.08741  0.67547  0.64706  1.0000
  H   H819      1.0  0.09942  0.62251  0.63888  1.0000
  H   H820      1.0  0.14220  0.61485  0.63688  1.0000
  H   H821      1.0  0.16716  0.62158  0.67169  1.0000
  H   H822      1.0  0.14926  0.63635  0.70879  1.0000
  H   H823      1.0  0.10668  0.64395  0.71127  1.0000
  H   H824      1.0  0.08554  0.58875  0.67229  1.0000
  C   C1033     1.0  0.24713  0.70744  0.49748  1.0000
  C   C1034     1.0  0.21434  0.49219  0.82683  1.0000
  C   C1035     1.0  0.46313  0.72837  0.65376  1.0000
  H   H825      1.0  0.02130  0.62441  0.69295  1.0000
  H   H826      1.0  0.04728  0.68620  0.67949  1.0000
  C   C1036     1.0  0.13473  0.54614  0.77025  1.0000
  H   H827      1.0  0.15991  0.57369  0.77562  1.0000
  H   H828      1.0  0.05337  0.65428  0.76062  1.0000
  H   H829      1.0  0.06780  0.63048  0.72748  1.0000
  C   C1037     1.0  0.02703  0.57869  0.84456  1.0000
  H   H830      1.0  0.14503  0.61157  0.90593  1.0000
  H   H831      1.0  0.14535  0.58339  0.81536  1.0000
  C   C1038     1.0  0.48133  0.52704  0.84001  1.0000
  C   C1039     1.0  0.11774  0.55719  0.81524  1.0000
  C   C1040     1.0  0.35042  0.51271  0.75683  1.0000
  H   H832      1.0  0.45690  0.69857  0.67718  1.0000
  C   C1041     1.0  0.33368  0.51756  0.71809  1.0000
  C   C1042     1.0  0.32656  0.54044  0.72384  1.0000
  C   C1043     1.0  0.33051  0.54930  0.74653  1.0000
  C   C1044     1.0  0.34290  0.53539  0.76279  1.0000
  P   P37       1.0  0.32220  0.57918  0.75383  1.0000
  C   C1045     1.0  0.31237  0.58073  0.78414  1.0000
  C   C1046     1.0  0.34776  0.59790  0.75117  1.0000
  H   H833      1.0  0.14068  0.54242  0.75251  1.0000
  C   C1047     1.0  0.28830  0.58215  0.78989  1.0000
  C   C1048     1.0  0.28114  0.58451  0.81334  1.0000
  C   C1049     1.0  0.29789  0.58547  0.83122  1.0000
  C   C1050     1.0  0.32182  0.58397  0.82569  1.0000
  C   C1051     1.0  0.32906  0.58166  0.80230  1.0000
  C   C1052     1.0  0.29868  0.58857  0.73450  1.0000
  C   C1053     1.0  0.27969  0.57341  0.73021  1.0000
  C   C1054     1.0  0.26197  0.58000  0.71448  1.0000
  C   C1055     1.0  0.26288  0.60185  0.70309  1.0000
  H   H834      1.0  0.17505  0.50869  0.58450  1.0000
  C   C1056     1.0  0.10424  0.50155  0.88225  1.0000
  H   H835      1.0  0.29510  0.49067  0.74747  1.0000
  H   H836      1.0  0.31803  0.55107  0.71047  1.0000
  H   H837      1.0  0.34687  0.54204  0.78005  1.0000
  H   H838      1.0  0.33255  0.62613  0.77181  1.0000
  H   H839      1.0  0.36873  0.57302  0.73107  1.0000
  H   H840      1.0  0.27496  0.58147  0.77647  1.0000
  H   H841      1.0  0.26258  0.58538  0.81770  1.0000
  H   H842      1.0  0.29237  0.58705  0.84941  1.0000
  H   H843      1.0  0.33486  0.58449  0.83954  1.0000
  H   H844      1.0  0.34776  0.58080  0.79845  1.0000
  H   H845      1.0  0.27876  0.55628  0.73872  1.0000
  H   H846      1.0  0.24772  0.56795  0.71078  1.0000
  C   C1057     1.0  0.29943  0.61056  0.72307  1.0000
  H   H847      1.0  0.31388  0.62252  0.72592  1.0000
  H   H848      1.0  0.24923  0.60677  0.69069  1.0000
  H   H849      1.0  0.40467  0.59704  0.73170  1.0000
  H   H850      1.0  0.18595  0.53833  0.72502  1.0000
  C   C1058     1.0  0.13861  0.53276  0.86598  1.0000
  C   C1059     1.0  0.13699  0.56944  0.80570  1.0000
  H   H851      1.0  0.03580  0.73369  0.62583  1.0000
  C   C1060     1.0  0.03893  0.57492  0.86572  1.0000
  H   H852      1.0  0.36016  0.50213  0.76939  1.0000
  H   H853      1.0  0.18487  0.56667  0.53166  1.0000
  C   C1061     1.0  0.38866  0.60361  0.73982  1.0000
  H   H854      1.0  0.98897  0.73750  0.68521  1.0000
  C   C1062     1.0  0.40543  0.70165  0.67077  1.0000
  H   H855      1.0  0.99673  0.72595  0.64393  1.0000
  C   C1063     1.0  0.12161  0.52177  0.56110  1.0000
  H   H856      1.0  0.33515  0.72046  0.90527  1.0000
  C   C1064     1.0  0.09704  0.70648  0.73979  1.0000
  C   C1065     1.0  0.31367  0.73026  0.97947  1.0000
  S   S143      1.0  0.16334  0.50459  0.68333  1.0000
  C   C1066     1.0  0.24995  0.67249  0.98054  1.0000
  H   H857      1.0  0.22517  0.51416  0.49409  1.0000
  C   C1067     1.0  0.19553  0.56122  0.51680  1.0000
  C   C1068     1.0  0.12848  0.52728  0.53811  1.0000
  C   C1069     1.0  0.18426  0.51610  0.75580  1.0000
  H   H858      1.0  0.21458  0.56389  0.55979  1.0000
  H   H859      1.0  0.10324  0.52282  0.56619  1.0000
  C   C1070     1.0  0.16230  0.51406  0.57137  1.0000
  C   C1071     1.0  0.04266  0.67275  0.60772  1.0000
  H   H860      1.0  0.02693  0.62969  0.64629  1.0000
  C   C1072     1.0  0.16940  0.52000  0.54842  1.0000
  C   C1073     1.0  0.27233  0.68082  0.97454  1.0000
  C   C1074     1.0  0.10315  0.70941  0.71611  1.0000
  C   C1075     1.0  0.14517  0.51273  0.87888  1.0000
  C   C1076     1.0  0.19256  0.51211  0.77861  1.0000
  C   C1077     1.0  0.26713  0.50429  0.72527  1.0000
  S   S144      1.0  0.03107  0.72634  0.79550  1.0000
  C   C1078     1.0  0.31536  0.65581  0.91994  1.0000
  C   C1079     1.0  0.02959  0.65457  0.61797  1.0000
  H   H861      1.0  0.17221  0.50377  0.74785  1.0000
  H   H862      1.0  0.07688  0.72020  0.76890  1.0000
  H   H863      1.0  0.32251  0.62343  0.90153  1.0000
  H   H864      1.0  0.26767  0.73267  0.93865  1.0000
  C   C1080     1.0  0.39791  0.73275  0.58067  1.0000
  C   C1081     1.0  0.42238  0.73130  0.58251  1.0000
  C   C1082     1.0  0.39858  0.73117  0.87240  1.0000
  C   C1083     1.0  0.43310  0.73220  0.60461  1.0000
  H   H865      1.0  0.10312  0.69113  0.74955  1.0000
  H   H866      1.0  0.03665  0.68103  0.59156  1.0000
  H   H867      1.0  0.38611  0.67197  0.68455  1.0000
  P   P38       1.0  0.30628  0.69842  0.94318  1.0000
  H   H868      1.0  0.38207  0.66842  0.91190  1.0000
  H   H869      1.0  0.26465  0.68693  0.91535  1.0000
  H   H870      1.0  0.35683  0.69691  0.93292  1.0000
  H   H871      1.0  0.38964  0.73300  0.56353  1.0000
  C   C1084     1.0  0.26081  0.68270  0.93357  1.0000
  C   C1085     1.0  0.36346  0.66481  0.91432  1.0000
  H   H872      1.0  0.22320  0.49011  0.57731  1.0000
  C   C1086     1.0  0.46974  0.70857  0.66726  1.0000
  H   H873      1.0  0.40490  0.70809  0.92718  1.0000
  C   C1087     1.0  0.41820  0.73008  0.69958  1.0000
  C   C1088     1.0  0.27666  0.48957  0.74305  1.0000
  C   C1089     1.0  0.27794  0.68606  0.95097  1.0000
  H   H874      1.0  0.46791  0.55624  0.81952  1.0000
  C   C1090     1.0  0.12798  0.49718  0.88710  1.0000
  H   H875      1.0  0.34100  0.67683  0.97503  1.0000
  C   C1091     1.0  0.34906  0.68096  0.92612  1.0000
  C   C1092     1.0  0.32482  0.67676  0.92878  1.0000
  Fe  Fe73      1.0  0.48082  0.64646  0.82644  1.0000
  H   H876      1.0  0.22508  0.67235  0.92631  1.0000
  C   C1093     1.0  0.08231  0.72291  0.75074  1.0000
  C   C1094     1.0  0.48059  0.54187  0.82031  1.0000
  H   H877      1.0  0.10727  0.52028  0.76936  1.0000
  C   C1095     1.0  0.21807  0.53171  0.49581  1.0000
  H   H878      1.0  0.45206  0.73176  0.60548  1.0000
  H   H879      1.0  0.43304  0.73020  0.56672  1.0000
  H   H880      1.0  0.38371  0.73760  0.63849  1.0000
  H   H881      1.0  0.48798  0.71134  0.58465  1.0000
  H   H882      1.0  0.47979  0.73637  0.87223  1.0000
  C   C1096     1.0  0.09473  0.72892  0.70344  1.0000
  H   H883      1.0  0.09916  0.73069  0.68496  1.0000
  C   C1097     1.0  0.99281  0.72245  0.76501  1.0000
  H   H884      1.0  0.09092  0.48933  0.88840  1.0000
  C   C1098     1.0  0.01072  0.73664  0.77390  1.0000
  H   H885      1.0  0.40502  0.73093  0.80612  1.0000
  C   C1099     1.0  0.39471  0.73541  0.62304  1.0000
  S   S145      1.0  0.35915  0.83821  0.46862  1.0000
  Fe  Fe74      1.0  0.06018  0.85046  0.31362  1.0000
  S   S146      1.0  0.04570  0.84380  0.34988  1.0000
  S   S147      1.0  0.07816  0.88448  0.30030  1.0000
  Fe  Fe75      1.0  0.03872  0.80359  0.29517  1.0000
  S   S148      1.0  0.02313  0.79442  0.33057  1.0000
  S   S149      1.0  0.03734  0.78127  0.26152  1.0000
  Fe  Fe76      1.0  0.01224  0.83295  0.33168  1.0000
  Fe  Fe77      1.0  0.05808  0.80590  0.34557  1.0000
  S   S150      1.0  0.07834  0.78896  0.37685  1.0000
  S   S151      1.0  0.02601  0.84132  0.29564  1.0000
  S   S152      1.0  0.07437  0.81334  0.31000  1.0000
  S   S153      1.0  0.34970  0.84358  0.01838  1.0000
  Fe  Fe78      1.0  0.43772  0.80445  0.35120  1.0000
  S   S154      1.0  0.45088  0.84127  0.34544  1.0000
  S   S155      1.0  0.41919  0.79075  0.38499  1.0000
  Fe  Fe79      1.0  0.45916  0.78804  0.30294  1.0000
  S   S156      1.0  0.45715  0.75931  0.27434  1.0000
  Fe  Fe80      1.0  0.43865  0.83825  0.30753  1.0000
  S   S157      1.0  0.41414  0.86639  0.29022  1.0000
  S   S158      1.0  0.47208  0.78686  0.34057  1.0000
  S   S159      1.0  0.42356  0.80217  0.31426  1.0000
  S   S160      1.0  0.30243  0.96370  0.14112  1.0000
  Fe  Fe81      1.0  0.35525  0.93042  0.17174  1.0000
  S   S161      1.0  0.31884  0.91543  0.16851  1.0000
  S   S162      1.0  0.38573  0.90831  0.18800  1.0000
  Fe  Fe82      1.0  0.31922  0.92880  0.13095  1.0000
  S   S163      1.0  0.30442  0.90957  0.09864  1.0000
  Fe  Fe83      1.0  0.30585  0.95169  0.17901  1.0000
  S   S164      1.0  0.28105  0.95259  0.21123  1.0000
  S   S165      1.0  0.35631  0.94194  0.13334  1.0000
  H   H886      1.0  0.40277  0.74061  0.39009  1.0000
  S   S166      1.0  0.14470  0.96374  0.34513  1.0000
  C   C1100     1.0  0.31440  0.80584  0.44152  1.0000
  H   H887      1.0  0.00606  0.89335  0.34058  1.0000
  H   H888      1.0  0.36818  0.75599  0.41120  1.0000
  H   H889      1.0  0.11139  0.83097  0.37751  1.0000
  H   H890      1.0  0.25708  0.95248  0.25568  1.0000
  C   C1101     1.0  0.40630  0.87725  0.26142  1.0000
  C   C1102     1.0  0.38592  0.89138  0.25885  1.0000
  C   C1103     1.0  0.37908  0.90064  0.23666  1.0000
  C   C1104     1.0  0.39271  0.89620  0.21653  1.0000
  C   C1105     1.0  0.41318  0.88222  0.21914  1.0000
  C   C1106     1.0  0.41986  0.87272  0.24128  1.0000
  H   H891      1.0  0.37533  0.89530  0.27420  1.0000
  H   H892      1.0  0.36349  0.91155  0.23521  1.0000
  H   H893      1.0  0.42413  0.87890  0.20393  1.0000
  H   H894      1.0  0.43567  0.86215  0.24280  1.0000
  C   C1107     1.0  0.36073  0.90400  0.99819  1.0000
  C   C1108     1.0  0.25708  0.85247  0.46561  1.0000
  C   C1109     1.0  0.33697  0.86280  0.03994  1.0000
  C   C1110     1.0  0.35116  0.87131  0.05830  1.0000
  C   C1111     1.0  0.34172  0.88588  0.07617  1.0000
  C   C1112     1.0  0.31779  0.89198  0.07612  1.0000
  C   C1113     1.0  0.30367  0.88364  0.05767  1.0000
  C   C1114     1.0  0.31316  0.86935  0.03963  1.0000
  H   H895      1.0  0.36960  0.86649  0.05876  1.0000
  H   H896      1.0  0.35289  0.89213  0.09013  1.0000
  H   H897      1.0  0.28514  0.88800  0.05752  1.0000
  H   H898      1.0  0.30192  0.86302  0.02575  1.0000
  C   C1115     1.0  0.13929  0.77474  0.46739  1.0000
  H   H899      1.0  0.46330  0.89602  0.36604  1.0000
  H   H900      1.0  0.25573  0.92820  0.30412  1.0000
  C   C1116     1.0  0.24701  0.78493  0.38523  1.0000
  C   C1117     1.0  0.09596  0.90671  0.31348  1.0000
  C   C1118     1.0  0.10366  0.90522  0.33681  1.0000
  C   C1119     1.0  0.11845  0.92281  0.34611  1.0000
  C   C1120     1.0  0.12563  0.94230  0.33240  1.0000
  C   C1121     1.0  0.11775  0.94391  0.30913  1.0000
  C   C1122     1.0  0.10309  0.92624  0.29978  1.0000
  H   H901      1.0  0.09838  0.89040  0.34762  1.0000
  H   H902      1.0  0.12436  0.92134  0.36412  1.0000
  H   H903      1.0  0.12312  0.95866  0.29825  1.0000
  H   H904      1.0  0.09735  0.92763  0.28173  1.0000
  C   C1123     1.0  0.01722  0.76036  0.24969  1.0000
  H   H905      1.0  0.44211  0.92757  0.23461  1.0000
  H   H906      1.0  0.34643  0.96902  0.01331  1.0000
  H   H907      1.0  0.48278  0.79607  0.12701  1.0000
  C   C1124     1.0  0.09120  0.76083  0.38406  1.0000
  H   H908      1.0  0.01367  0.86568  0.23840  1.0000
  H   H909      1.0  0.36473  0.88575  0.99422  1.0000
  C   C1125     1.0  0.03764  0.95987  0.29150  1.0000
  H   H910      1.0  0.03221  0.96578  0.30877  1.0000
  C   C1126     1.0  0.37731  0.82497  0.44641  1.0000
  C   C1127     1.0  0.38426  0.83860  0.42677  1.0000
  C   C1128     1.0  0.39752  0.82868  0.40813  1.0000
  C   C1129     1.0  0.40409  0.80489  0.40883  1.0000
  C   C1130     1.0  0.39773  0.79143  0.42879  1.0000
  C   C1131     1.0  0.38433  0.80130  0.44736  1.0000
  H   H911      1.0  0.37905  0.85693  0.42580  1.0000
  H   H912      1.0  0.40229  0.83935  0.39302  1.0000
  H   H913      1.0  0.40299  0.77313  0.42979  1.0000
  H   H914      1.0  0.37921  0.79054  0.46227  1.0000
  C   C1132     1.0  0.46812  0.76562  0.10985  1.0000
  H   H915      1.0  0.41306  0.76410  0.08607  1.0000
  C   C1133     1.0  0.32413  0.81915  0.42318  1.0000
  C   C1134     1.0  0.33176  0.80808  0.40264  1.0000
  C   C1135     1.0  0.27924  0.85733  0.45591  1.0000
  H   H916      1.0  0.33987  0.81837  0.38869  1.0000
  C   C1136     1.0  0.16434  0.81017  0.39715  1.0000
  H   H917      1.0  0.33615  0.77536  0.38453  1.0000
  C   C1137     1.0  0.40617  0.82227  0.17807  1.0000
  H   H918      1.0  0.39952  0.73946  0.13985  1.0000
  C   C1138     1.0  0.28200  0.92342  0.99600  1.0000
  C   C1139     1.0  0.31369  0.93714  0.26325  1.0000
  C   C1140     1.0  0.25179  0.88457  0.99268  1.0000
  C   C1141     1.0  0.04075  0.73904  0.40474  1.0000
  H   H919      1.0  0.41517  0.87450  0.14934  1.0000
  H   H920      1.0  0.19871  0.75179  0.44260  1.0000
  H   H921      1.0  0.39732  0.77928  0.15628  1.0000
  H   H922      1.0  0.30963  0.93809  0.04810  1.0000
  C   C1142     1.0  0.48236  0.82145  0.22863  1.0000
  H   H923      1.0  0.04247  0.75369  0.41673  1.0000
  C   C1143     1.0  0.31255  0.78141  0.43948  1.0000
  C   C1144     1.0  0.42782  0.93960  0.23873  1.0000
  C   C1145     1.0  0.47851  0.77769  0.40744  1.0000
  C   C1146     1.0  0.15386  0.98695  0.24288  1.0000
  H   H924      1.0  0.09969  0.98724  0.34420  1.0000
  H   H925      1.0  0.30166  0.96125  0.08365  1.0000
  C   C1147     1.0  0.42157  0.94370  0.26213  1.0000
  H   H926      1.0  0.39780  0.96129  0.28562  1.0000
  H   H927      1.0  0.30266  0.92719  0.25142  1.0000
  C   C1148     1.0  0.14046  0.81043  0.39080  1.0000
  H   H928      1.0  0.30497  0.77147  0.45392  1.0000
  C   C1149     1.0  0.05117  0.96803  0.25179  1.0000
  C   C1150     1.0  0.46699  0.80945  0.18373  1.0000
  H   H929      1.0  0.21215  0.79792  0.44255  1.0000
  H   H930      1.0  0.27074  0.92423  0.03255  1.0000
  H   H931      1.0  0.32986  0.95658  0.23516  1.0000
  C   C1151     1.0  0.36674  0.73945  0.40202  1.0000
  C   C1152     1.0  0.42212  0.77225  0.18446  1.0000
  C   C1153     1.0  0.38212  0.85636  0.15115  1.0000
  C   C1154     1.0  0.18227  0.75871  0.44945  1.0000
  C   C1155     1.0  0.25407  0.89636  0.01402  1.0000
  C   C1156     1.0  0.12982  0.83111  0.38251  1.0000
  H   H932      1.0  0.41750  0.76629  0.23615  1.0000
  C   C1157     1.0  0.26906  0.91575  0.01570  1.0000
  H   H933      1.0  0.18105  0.87807  0.43066  1.0000
  H   H934      1.0  0.32658  0.83794  0.42528  1.0000
  C   C1158     1.0  0.04645  0.92767  0.26513  1.0000
  C   C1159     1.0  0.38192  0.82008  0.17378  1.0000
  H   H935      1.0  0.02317  0.75971  0.37826  1.0000
  C   C1160     1.0  0.40474  0.80071  0.22499  1.0000
  C   C1161     1.0  0.40670  0.78137  0.24042  1.0000
  C   C1162     1.0  0.39560  0.78181  0.26241  1.0000
  C   C1163     1.0  0.38254  0.80155  0.26924  1.0000
  C   C1164     1.0  0.38061  0.82090  0.25409  1.0000
  C   C1165     1.0  0.39166  0.82054  0.23210  1.0000
  H   H936      1.0  0.15160  0.75177  0.33018  1.0000
  P   P39       1.0  0.17812  0.78292  0.40677  1.0000
  C   C1166     1.0  0.32097  0.77005  0.41922  1.0000
  C   C1167     1.0  0.02718  0.94646  0.35796  1.0000
  C   C1168     1.0  0.40259  0.95857  0.26739  1.0000
  H   H937      1.0  0.37209  0.80562  0.18143  1.0000
  H   H938      1.0  0.30914  0.81439  0.45772  1.0000
  C   C1169     1.0  0.43091  0.82486  0.48563  1.0000
  H   H939      1.0  0.21379  0.77625  0.36988  1.0000
  H   H940      1.0  0.37465  0.80223  0.28661  1.0000
  H   H941      1.0  0.37130  0.83662  0.25976  1.0000
  H   H942      1.0  0.39051  0.83612  0.22107  1.0000
  C   C1170     1.0  0.16061  0.83805  0.47043  1.0000
  H   H943      1.0  0.24467  0.89013  0.02946  1.0000
  H   H944      1.0  0.24450  0.84265  0.45543  1.0000
  C   C1171     1.0  0.17968  0.83769  0.48591  1.0000
  C   C1172     1.0  0.28813  0.98812  0.02218  1.0000
  Fe  Fe84      1.0  0.48488  0.82378  0.33395  1.0000
  C   C1173     1.0  0.17738  0.83106  0.39512  1.0000
  H   H945      1.0  0.05825  0.93748  0.23045  1.0000
  H   H946      1.0  0.99302  0.76019  0.27890  1.0000
  S   S167      1.0  0.47391  0.82418  0.29547  1.0000
  C   C1174     1.0  0.09147  0.74196  0.36838  1.0000
  P   P40       1.0  0.42072  0.80132  0.19740  1.0000
  H   H947      1.0  0.44655  0.82022  0.12323  1.0000
  H   H948      1.0  0.45224  0.75585  0.46847  1.0000
  C   C1175     1.0  0.26133  0.97339  0.22423  1.0000
  C   C1176     1.0  0.15757  0.74736  0.34774  1.0000
  C   C1177     1.0  0.42811  0.77077  0.09556  1.0000
  C   C1178     1.0  0.42731  0.79341  0.10503  1.0000
  C   C1179     1.0  0.44701  0.80242  0.11644  1.0000
  H   H949      1.0  0.14509  0.82771  0.47433  1.0000
  S   S168      1.0  0.34242  0.96623  0.18314  1.0000
  H   H950      1.0  0.27374  0.76917  0.48417  1.0000
  C   C1180     1.0  0.14295  0.85175  0.38033  1.0000
  C   C1181     1.0  0.40616  0.85882  0.15550  1.0000
  H   H951      1.0  0.01597  0.82207  0.23780  1.0000
  H   H952      1.0  0.25546  0.80174  0.44185  1.0000
  H   H953      1.0  0.41160  0.80421  0.10304  1.0000
  C   C1182     1.0  0.16128  0.85225  0.45028  1.0000
  H   H954      1.0  0.13011  0.79450  0.39183  1.0000
  H   H955      1.0  0.46121  0.80473  0.16632  1.0000
  C   C1183     1.0  0.99800  0.85536  0.24174  1.0000
  H   H956      1.0  0.17690  0.86772  0.38473  1.0000
  H   H957      1.0  0.12238  0.78056  0.47416  1.0000
  C   C1184     1.0  0.45051  0.82196  0.47090  1.0000
  C   C1185     1.0  0.30229  0.95570  0.04624  1.0000
  Fe  Fe85      1.0  0.33969  0.97644  0.14457  1.0000
  C   C1186     1.0  0.48102  0.85710  0.41985  1.0000
  H   H958      1.0  0.47051  0.87844  0.47114  1.0000
  H   H959      1.0  0.25687  0.78137  0.36928  1.0000
  H   H960      1.0  0.24421  0.75172  0.45723  1.0000
  H   H961      1.0  0.03757  0.75607  0.21788  1.0000
  C   C1187     1.0  0.32992  0.78365  0.40051  1.0000
  H   H962      1.0  0.05621  0.98022  0.23798  1.0000
  C   C1188     1.0  0.40867  0.76645  0.16464  1.0000
  C   C1189     1.0  0.02708  0.92253  0.35227  1.0000
  C   C1190     1.0  0.04398  0.97623  0.27395  1.0000
  C   C1191     1.0  0.16854  0.77441  0.43602  1.0000
  C   C1192     1.0  0.14698  0.78243  0.44523  1.0000
  H   H963      1.0  0.31795  0.75407  0.00845  1.0000
  C   C1193     1.0  0.16389  0.76524  0.36325  1.0000
  C   C1194     1.0  0.45224  0.76139  0.48669  1.0000
  H   H964      1.0  0.43107  0.93482  0.27614  1.0000
  C   C1195     1.0  0.20975  0.78633  0.40638  1.0000
  C   C1196     1.0  0.22259  0.78196  0.38569  1.0000
  C   C1197     1.0  0.34329  0.96730  0.26907  1.0000
  C   C1198     1.0  0.38956  0.96930  0.24925  1.0000
  H   H965      1.0  0.04809  0.90888  0.26208  1.0000
  H   H966      1.0  0.19580  0.83148  0.39986  1.0000
  H   H967      1.0  0.13582  0.79426  0.43529  1.0000
  C   C1199     1.0  0.46825  0.88552  0.38124  1.0000
  H   H968      1.0  0.43647  0.84497  0.17290  1.0000
  C   C1200     1.0  0.41817  0.84192  0.16893  1.0000
  C   C1201     1.0  0.15307  0.75908  0.48056  1.0000
  H   H969      1.0  0.35488  0.97108  0.30513  1.0000
  C   C1202     1.0  0.25880  0.79213  0.40543  1.0000
  C   C1203     1.0  0.25920  0.75084  0.00455  1.0000
  C   C1204     1.0  0.39556  0.96451  0.22579  1.0000
  C   C1205     1.0  0.46547  0.84103  0.46606  1.0000
  C   C1206     1.0  0.17459  0.75113  0.47161  1.0000
  C   C1207     1.0  0.00670  0.96007  0.35534  1.0000
  H   H970      1.0  0.39805  0.76722  0.27459  1.0000
  C   C1208     1.0  0.16672  0.85171  0.38660  1.0000
  H   H971      1.0  0.17867  0.74035  0.19119  1.0000
  C   C1209     1.0  0.22686  0.94473  0.32244  1.0000
  C   C1210     1.0  0.17067  0.75975  0.38642  1.0000
  C   C1211     1.0  0.16893  0.96896  0.25052  1.0000
  C   C1212     1.0  0.16101  0.94563  0.25192  1.0000
  C   C1213     1.0  0.13743  0.94075  0.24639  1.0000
  P   P41       1.0  0.18131  0.92216  0.25954  1.0000
  C   C1214     1.0  0.16430  0.89655  0.26793  1.0000
  C   C1215     1.0  0.20054  0.91565  0.23491  1.0000
  C   C1216     1.0  0.20786  0.93365  0.21949  1.0000
  C   C1217     1.0  0.22429  0.92894  0.20173  1.0000
  C   C1218     1.0  0.23368  0.90632  0.19926  1.0000
  C   C1219     1.0  0.22654  0.88829  0.21449  1.0000
  C   C1220     1.0  0.21015  0.89293  0.23234  1.0000
  C   C1221     1.0  0.15563  0.88145  0.25053  1.0000
  C   C1222     1.0  0.14085  0.86273  0.25664  1.0000
  C   C1223     1.0  0.13454  0.85897  0.28013  1.0000
  C   C1224     1.0  0.14318  0.87378  0.29755  1.0000
  C   C1225     1.0  0.15787  0.89258  0.29153  1.0000
  C   C1226     1.0  0.19929  0.93128  0.28395  1.0000
  C   C1227     1.0  0.22338  0.92550  0.28473  1.0000
  C   C1228     1.0  0.23713  0.93240  0.30381  1.0000
  C   C1229     1.0  0.32903  0.95407  0.25406  1.0000
  C   C1230     1.0  0.20290  0.95028  0.32188  1.0000
  C   C1231     1.0  0.18924  0.94399  0.30255  1.0000
  H   H972      1.0  0.30135  0.91935  0.29441  1.0000
  H   H973      1.0  0.37786  0.98402  0.07890  1.0000
  C   C1232     1.0  0.40999  0.74380  0.15510  1.0000
  H   H974      1.0  0.18686  0.97329  0.25508  1.0000
  H   H975      1.0  0.13058  0.92306  0.24759  1.0000
  H   H976      1.0  0.20163  0.95153  0.22141  1.0000
  H   H977      1.0  0.23043  0.94307  0.19036  1.0000
  H   H978      1.0  0.24688  0.90298  0.18582  1.0000
  H   H979      1.0  0.23411  0.87084  0.21272  1.0000
  H   H980      1.0  0.20549  0.87894  0.24450  1.0000
  H   H981      1.0  0.15970  0.88458  0.23214  1.0000
  H   H982      1.0  0.13379  0.85144  0.24312  1.0000
  H   H983      1.0  0.12243  0.84497  0.28482  1.0000
  H   H984      1.0  0.13772  0.87121  0.31567  1.0000
  H   H985      1.0  0.16347  0.90429  0.30530  1.0000
  H   H986      1.0  0.23174  0.91591  0.27057  1.0000
  H   H987      1.0  0.39611  0.91198  0.00868  1.0000
  H   H988      1.0  0.04311  0.95439  0.36466  1.0000
  C   C1233     1.0  0.44849  0.75697  0.09776  1.0000
  H   H989      1.0  0.17074  0.94876  0.30232  1.0000
  C   C1234     1.0  0.45871  0.81578  0.22505  1.0000
  H   H990      1.0  0.32761  0.94140  0.32114  1.0000
  H   H991      1.0  0.27772  0.79424  0.40501  1.0000
  C   C1235     1.0  0.29781  0.96881  0.06650  1.0000
  H   H992      1.0  0.13469  0.86772  0.37367  1.0000
  H   H993      1.0  0.21473  0.87760  0.45784  1.0000
  C   C1236     1.0  0.43723  0.75512  0.19416  1.0000
  C   C1237     1.0  0.29714  0.96508  0.02389  1.0000
  H   H994      1.0  0.37273  0.86995  0.14141  1.0000
  C   C1238     1.0  0.23536  0.98382  0.25736  1.0000
  C   C1239     1.0  0.19993  0.85096  0.48095  1.0000
  C   C1240     1.0  0.33772  0.91245  0.99563  1.0000
  C   C1241     1.0  0.25179  0.96843  0.24663  1.0000
  C   C1242     1.0  0.46742  0.78868  0.11862  1.0000
  H   H995      1.0  0.44340  0.85628  0.42715  1.0000
  C   C1243     1.0  0.45086  0.80978  0.20248  1.0000
  H   H996      1.0  0.44681  0.81594  0.24000  1.0000
  H   H997      1.0  0.10092  0.77163  0.41895  1.0000
  H   H998      1.0  0.43261  0.88148  0.39363  1.0000
  C   C1244     1.0  0.05236  0.94381  0.24742  1.0000
  C   C1245     1.0  0.03901  0.93570  0.28711  1.0000
  H   H999      1.0  0.38513  0.97124  0.21139  1.0000
  C   C1246     1.0  0.37002  0.83696  0.16023  1.0000
  C   C1247     1.0  0.29613  0.86909  0.46919  1.0000
  H   H1000     1.0  0.46434  0.81272  0.40709  1.0000
  P   P42       1.0  0.36452  0.98757  0.25675  1.0000
  H   H1001     1.0  0.27447  0.76049  0.01025  1.0000
  C   C1248     1.0  0.24619  0.79655  0.42610  1.0000
  H   H1002     1.0  0.38688  0.95368  0.01818  1.0000
  H   H1003     1.0  0.41913  0.94608  0.20244  1.0000
  H   H1004     1.0  0.24073  0.86912  0.99155  1.0000
  H   H1005     1.0  0.35125  0.83547  0.15730  1.0000
  H   H1006     1.0  0.04294  0.91197  0.35434  1.0000
  C   C1249     1.0  0.12221  0.95890  0.23938  1.0000
  H   H1007     1.0  0.44819  0.75928  0.20913  1.0000
  C   C1250     1.0  0.46009  0.86314  0.47574  1.0000
  C   C1251     1.0  0.18090  0.86637  0.44579  1.0000
  C   C1252     1.0  0.32766  0.94528  0.30246  1.0000
  H   H1008     1.0  0.16317  0.78330  0.35711  1.0000
  C   C1253     1.0  0.10116  0.75731  0.40653  1.0000
  H   H1009     1.0  0.14637  0.85272  0.43844  1.0000
  C   C1254     1.0  0.00640  0.91209  0.34432  1.0000
  H   H1010     1.0  0.28559  0.98182  0.31135  1.0000
  C   C1255     1.0  0.37843  0.91882  0.00632  1.0000
  H   H1011     1.0  0.10403  0.95503  0.23541  1.0000
  H   H1012     1.0  0.23740  0.95003  0.33731  1.0000
  C   C1256     1.0  0.13047  0.98195  0.23741  1.0000
  H   H1013     1.0  0.03499  0.92306  0.30091  1.0000
  H   H1014     1.0  0.44898  0.73983  0.08957  1.0000
  C   C1257     1.0  0.20007  0.86591  0.46116  1.0000
  C   C1258     1.0  0.99708  0.75287  0.26185  1.0000
  H   H1015     1.0  0.22817  0.97969  0.27453  1.0000
  H   H1016     1.0  0.19484  0.95955  0.33647  1.0000
  H   H1017     1.0  0.47487  0.76254  0.15876  1.0000
  H   H1018     1.0  0.28352  0.85158  0.43829  1.0000
  C   C1259     1.0  0.22170  0.79403  0.42650  1.0000
  C   C1260     1.0  0.02990  0.74242  0.38298  1.0000
  C   C1261     1.0  0.41489  0.95009  0.22060  1.0000
  H   H1019     1.0  0.31361  0.87215  0.46205  1.0000
  C   C1262     1.0  0.31293  0.93280  0.28744  1.0000
  C   C1263     1.0  0.34298  0.96230  0.29331  1.0000
  H   H1020     1.0  0.34500  0.74924  0.46038  1.0000
  C   C1264     1.0  0.47678  0.80085  0.41549  1.0000
  C   C1265     1.0  0.35025  0.95086  0.00895  1.0000
  C   C1266     1.0  0.02208  0.75048  0.22749  1.0000
  H   H1021     1.0  0.46755  0.77204  0.39300  1.0000
  H   H1022     1.0  0.45332  0.80509  0.46263  1.0000
  C   C1267     1.0  0.37321  0.94226  0.01167  1.0000
  C   C1268     1.0  0.99931  0.83079  0.24141  1.0000
  C   C1269     1.0  0.33232  0.93597  0.00103  1.0000
  H   H1023     1.0  0.32433  0.90039  0.98972  1.0000
  C   C1270     1.0  0.45098  0.87730  0.39676  1.0000
  H   H1024     1.0  0.99682  0.98533  0.27823  1.0000
  H   H1025     1.0  0.08131  0.98180  0.30555  1.0000
  C   C1271     1.0  0.45726  0.86302  0.41587  1.0000
  C   C1272     1.0  0.47863  0.74163  0.25943  1.0000
  P   P43       1.0  0.30274  0.94737  0.99803  1.0000
  H   H1026     1.0  0.08417  0.74441  0.35104  1.0000
  H   H1027     1.0  0.00698  0.97823  0.36087  1.0000
  C   C1273     1.0  0.24977  0.74197  0.47263  1.0000
  C   C1274     1.0  0.48060  0.74117  0.64177  1.0000
  C   C1275     1.0  0.20966  0.86527  0.78322  1.0000
  S   S169      1.0  0.02330  0.83867  0.64392  1.0000
  S   S170      1.0  0.34885  0.96060  0.85473  1.0000
  Fe  Fe86      1.0  0.31302  0.83727  0.54713  1.0000
  S   S171      1.0  0.32148  0.80262  0.56509  1.0000
  S   S172      1.0  0.29102  0.86845  0.56260  1.0000
  Fe  Fe87      1.0  0.34423  0.82375  0.50362  1.0000
  S   S173      1.0  0.35356  0.78851  0.51912  1.0000
  Fe  Fe88      1.0  0.31521  0.78614  0.52948  1.0000
  C   C1276     1.0  0.39321  0.74604  0.80558  1.0000
  Fe  Fe89      1.0  0.35925  0.80800  0.55322  1.0000
  S   S174      1.0  0.39291  0.79644  0.57308  1.0000
  S   S175      1.0  0.30525  0.82042  0.51194  1.0000
  S   S176      1.0  0.35138  0.84351  0.53718  1.0000
  Fe  Fe90      1.0  0.13303  0.92793  0.67591  1.0000
  S   S177      1.0  0.14133  0.93978  0.63904  1.0000
  S   S178      1.0  0.09868  0.90979  0.68807  1.0000
  Fe  Fe91      1.0  0.17971  0.95024  0.69515  1.0000
  S   S179      1.0  0.18983  0.96340  0.65902  1.0000
  S   S180      1.0  0.20557  0.94799  0.72631  1.0000
  H   H1028     1.0  0.00427  0.92342  0.76925  1.0000
  Fe  Fe92      1.0  0.17909  0.92765  0.64548  1.0000
  S   S181      1.0  0.19993  0.89885  0.62471  1.0000
  S   S182      1.0  0.14190  0.96277  0.69288  1.0000
  S   S183      1.0  0.16984  0.91434  0.68180  1.0000
  S   S184      1.0  0.47006  0.84714  0.63794  1.0000
  Fe  Fe93      1.0  0.31192  0.84851  0.93836  1.0000
  S   S185      1.0  0.34915  0.84029  0.94870  1.0000
  S   S186      1.0  0.29895  0.88217  0.91940  1.0000
  Fe  Fe94      1.0  0.29339  0.80194  0.96208  1.0000
  S   S187      1.0  0.32991  0.79156  0.97374  1.0000
  S   S188      1.0  0.25975  0.77934  0.96404  1.0000
  H   H1029     1.0  0.27922  0.96318  0.83734  1.0000
  Fe  Fe95      1.0  0.34215  0.80262  0.93739  1.0000
  S   S189      1.0  0.36344  0.78330  0.90823  1.0000
  S   S190      1.0  0.29632  0.83970  0.97401  1.0000
  S   S191      1.0  0.30539  0.81177  0.92542  1.0000
  H   H1030     1.0  0.26304  0.88283  0.95653  1.0000
  C   C1277     1.0  0.41323  0.80809  0.65927  1.0000
  C   C1278     1.0  0.24600  0.94129  0.67329  1.0000
  C   C1279     1.0  0.37930  0.75658  0.90190  1.0000
  H   H1031     1.0  0.42775  0.74579  0.70427  1.0000
  H   H1032     1.0  0.23004  0.90315  0.74130  1.0000
  C   C1280     1.0  0.43950  0.80535  0.84263  1.0000
  H   H1033     1.0  0.22794  0.90327  0.50438  1.0000
  H   H1034     1.0  0.41668  0.76810  0.82454  1.0000
  C   C1281     1.0  0.43103  0.76275  0.49918  1.0000
  H   H1035     1.0  0.38153  0.74382  0.93751  1.0000
  C   C1282     1.0  0.41382  0.78432  0.65307  1.0000
  H   H1036     1.0  0.44461  0.80570  0.82425  1.0000
  C   C1283     1.0  0.41456  0.81142  0.59020  1.0000
  C   C1284     1.0  0.43462  0.79886  0.59786  1.0000
  C   C1285     1.0  0.45191  0.80955  0.61201  1.0000
  C   C1286     1.0  0.44936  0.83305  0.61897  1.0000
  C   C1287     1.0  0.42945  0.84572  0.61108  1.0000
  C   C1288     1.0  0.41222  0.83505  0.59678  1.0000
  H   H1037     1.0  0.43671  0.78064  0.59300  1.0000
  H   H1038     1.0  0.46702  0.79951  0.61783  1.0000
  H   H1039     1.0  0.42721  0.86389  0.61627  1.0000
  H   H1040     1.0  0.39697  0.84504  0.59112  1.0000
  C   C1289     1.0  0.29571  0.98813  0.92775  1.0000
  C   C1290     1.0  0.42608  0.84673  0.49567  1.0000
  H   H1041     1.0  0.28943  0.91687  0.95913  1.0000
  C   C1291     1.0  0.26613  0.87632  0.58088  1.0000
  C   C1292     1.0  0.26151  0.90033  0.58549  1.0000
  C   C1293     1.0  0.24192  0.90756  0.59933  1.0000
  C   C1294     1.0  0.22625  0.89088  0.60863  1.0000
  C   C1295     1.0  0.23095  0.86686  0.60417  1.0000
  C   C1296     1.0  0.25071  0.85963  0.59061  1.0000
  H   H1042     1.0  0.27316  0.91352  0.57818  1.0000
  H   H1043     1.0  0.23870  0.92608  0.60235  1.0000
  H   H1044     1.0  0.21910  0.85369  0.61114  1.0000
  H   H1045     1.0  0.25391  0.84112  0.58759  1.0000
  C   C1297     1.0  0.33504  0.93981  0.87402  1.0000
  C   C1298     1.0  0.34759  0.91944  0.88085  1.0000
  C   C1299     1.0  0.33715  0.90200  0.89532  1.0000
  C   C1300     1.0  0.31387  0.90461  0.90303  1.0000
  C   C1301     1.0  0.30152  0.92530  0.89673  1.0000
  C   C1302     1.0  0.31200  0.94279  0.88238  1.0000
  H   H1046     1.0  0.36548  0.91699  0.87470  1.0000
  H   H1047     1.0  0.34699  0.88633  0.90010  1.0000
  H   H1048     1.0  0.28371  0.92785  0.90299  1.0000
  H   H1049     1.0  0.30220  0.95848  0.87764  1.0000
  C   C1303     1.0  0.22239  0.96905  0.74236  1.0000
  C   C1304     1.0  0.24156  0.96114  0.75605  1.0000
  P   P44       1.0  0.43290  0.73868  0.65351  1.0000
  H   H1050     1.0  0.24636  0.94270  0.75586  1.0000
  C   C1305     1.0  0.01504  0.98548  0.68451  1.0000
  C   C1306     1.0  0.07762  0.89058  0.67504  1.0000
  C   C1307     1.0  0.05759  0.88391  0.68819  1.0000
  C   C1308     1.0  0.04053  0.86858  0.67882  1.0000
  C   C1309     1.0  0.04355  0.85912  0.65633  1.0000
  C   C1310     1.0  0.06347  0.86592  0.64313  1.0000
  C   C1311     1.0  0.08025  0.88170  0.65228  1.0000
  H   H1051     1.0  0.05518  0.89073  0.70574  1.0000
  H   H1052     1.0  0.02511  0.86399  0.68902  1.0000
  H   H1053     1.0  0.06582  0.85911  0.62555  1.0000
  H   H1054     1.0  0.09520  0.88698  0.64169  1.0000
  C   C1312     1.0  0.29381  0.76196  0.89344  1.0000
  H   H1055     1.0  0.41204  0.83673  0.74441  1.0000
  H   H1056     1.0  0.44111  0.88162  0.79729  1.0000
  H   H1057     1.0  0.06136  0.75405  0.74666  1.0000
  H   H1058     1.0  0.46205  0.86065  0.54622  1.0000
  H   H1059     1.0  0.47445  0.79630  0.85429  1.0000
  C   C1313     1.0  0.22964  0.82371  0.51563  1.0000
  H   H1060     1.0  0.48095  0.86829  0.58472  1.0000
  C   C1314     1.0  0.47955  0.75582  0.72780  1.0000
  C   C1315     1.0  0.22786  0.98686  0.83602  1.0000
  C   C1316     1.0  0.47339  0.76773  0.49745  1.0000
  C   C1317     1.0  0.21255  0.93492  0.80693  1.0000
  C   C1318     1.0  0.02343  0.75231  0.69020  1.0000
  H   H1061     1.0  0.45152  0.78298  0.55124  1.0000
  C   C1319     1.0  0.46543  0.75028  0.81587  1.0000
  H   H1062     1.0  0.12469  0.77023  0.77287  1.0000
  C   C1320     1.0  0.18916  0.92312  0.84067  1.0000
  H   H1063     1.0  0.44521  0.73942  0.84625  1.0000
  Fe  Fe96      1.0  0.15126  0.97439  0.65613  1.0000
  C   C1321     1.0  0.46298  0.74529  0.74318  1.0000
  C   C1322     1.0  0.19388  0.92932  0.79206  1.0000
  C   C1323     1.0  0.00921  0.91664  0.64966  1.0000
  H   H1064     1.0  0.26108  0.76640  0.91229  1.0000
  H   H1065     1.0  0.29108  0.77724  0.88228  1.0000
  C   C1324     1.0  0.27659  0.98670  0.94323  1.0000
  C   C1325     1.0  0.24880  0.75648  0.98295  1.0000
  H   H1066     1.0  0.22035  0.74802  0.95953  1.0000
  H   H1067     1.0  0.46477  0.76847  0.68065  1.0000
  H   H1068     1.0  0.25301  0.96971  0.88781  1.0000
  H   H1069     1.0  0.26363  0.97275  0.97603  1.0000
  H   H1070     1.0  0.00697  0.94879  0.73394  1.0000
  C   C1326     1.0  0.47457  0.84809  0.55337  1.0000
  H   H1071     1.0  0.22047  0.76470  0.50943  1.0000
  C   C1327     1.0  0.48785  0.75518  0.80697  1.0000
  H   H1072     1.0  0.06691  0.75307  0.64872  1.0000
  C   C1328     1.0  0.99794  0.93208  0.73284  1.0000
  H   H1073     1.0  0.41460  0.75824  0.49072  1.0000
  H   H1074     1.0  0.24823  0.89426  0.83095  1.0000
  H   H1075     1.0  0.02630  0.92155  0.65614  1.0000
  C   C1329     1.0  0.26598  0.97850  0.66652  1.0000
  C   C1330     1.0  0.26276  0.90626  0.82826  1.0000
  C   C1331     1.0  0.03209  0.97571  0.62699  1.0000
  H   H1076     1.0  0.47119  0.82424  0.52457  1.0000
  H   H1077     1.0  0.38041  0.76380  0.86464  1.0000
  H   H1078     1.0  0.31813  0.90734  0.80499  1.0000
  P   P45       1.0  0.06829  0.77005  0.69758  1.0000
  C   C1332     1.0  0.42779  0.86067  0.76890  1.0000
  C   C1333     1.0  0.08966  0.78426  0.67882  1.0000
  C   C1334     1.0  0.11391  0.78142  0.68267  1.0000
  C   C1335     1.0  0.13017  0.79303  0.66817  1.0000
  C   C1336     1.0  0.12230  0.80769  0.64995  1.0000
  C   C1337     1.0  0.09819  0.81116  0.64652  1.0000
  C   C1338     1.0  0.08191  0.79965  0.66099  1.0000
  C   C1339     1.0  0.41438  0.84110  0.76279  1.0000
  C   C1340     1.0  0.48526  0.85247  0.57498  1.0000
  C   C1341     1.0  0.44069  0.86587  0.49075  1.0000
  C   C1342     1.0  0.05818  0.96310  0.69275  1.0000
  C   C1343     1.0  0.38562  0.75167  0.87839  1.0000
  C   C1344     1.0  0.05784  0.79361  0.71610  1.0000
  C   C1345     1.0  0.03752  0.80652  0.71026  1.0000
  C   C1346     1.0  0.03030  0.82539  0.72431  1.0000
  C   C1347     1.0  0.04347  0.83178  0.74392  1.0000
  C   C1348     1.0  0.06405  0.81943  0.74945  1.0000
  C   C1349     1.0  0.07134  0.80057  0.73546  1.0000
  C   C1350     1.0  0.43104  0.81744  0.67318  1.0000
  H   H1079     1.0  0.26502  0.87676  0.51969  1.0000
  C   C1351     1.0  0.28064  0.96743  0.64993  1.0000
  H   H1080     1.0  0.07496  0.95441  0.69575  1.0000
  C   C1352     1.0  0.28002  0.94499  0.83191  1.0000
  H   H1081     1.0  0.29445  0.97717  0.64107  1.0000
  H   H1082     1.0  0.14889  0.79079  0.67106  1.0000
  H   H1083     1.0  0.13487  0.81661  0.63865  1.0000
  H   H1084     1.0  0.09203  0.82292  0.63274  1.0000
  H   H1085     1.0  0.06325  0.80288  0.65830  1.0000
  H   H1086     1.0  0.22091  0.98021  0.81971  1.0000
  C   C1353     1.0  0.42686  0.80308  0.89015  1.0000
  C   C1354     1.0  0.45647  0.79992  0.85961  1.0000
  C   C1355     1.0  0.30040  0.93693  0.82062  1.0000
  C   C1356     1.0  0.00823  0.90115  0.63067  1.0000
  H   H1087     1.0  0.02737  0.80232  0.69475  1.0000
  H   H1088     1.0  0.42299  0.85705  0.82844  1.0000
  H   H1089     1.0  0.03775  0.84642  0.75469  1.0000
  H   H1090     1.0  0.07438  0.82448  0.76454  1.0000
  H   H1091     1.0  0.08755  0.79144  0.73968  1.0000
  H   H1092     1.0  0.15432  0.91049  0.83297  1.0000
  C   C1357     1.0  0.21471  0.87302  0.52365  1.0000
  C   C1358     1.0  0.99733  0.76881  0.74799  1.0000
  C   C1359     1.0  0.24360  0.82289  0.53593  1.0000
  C   C1360     1.0  0.24891  0.80132  0.54670  1.0000
  C   C1361     1.0  0.24023  0.78043  0.53735  1.0000
  H   H1093     1.0  0.40006  0.77781  0.64186  1.0000
  H   H1094     1.0  0.47637  0.77329  0.72083  1.0000
  C   C1362     1.0  0.20230  0.86566  0.54378  1.0000
  C   C1363     1.0  0.19455  0.88219  0.56025  1.0000
  C   C1364     1.0  0.19919  0.90610  0.55681  1.0000
  C   C1365     1.0  0.21128  0.91359  0.53667  1.0000
  C   C1366     1.0  0.21880  0.89714  0.51999  1.0000
  H   H1095     1.0  0.25075  0.83891  0.54322  1.0000
  H   H1096     1.0  0.26015  0.80077  0.56206  1.0000
  H   H1097     1.0  0.33597  0.95648  0.95871  1.0000
  C   C1367     1.0  0.27383  0.73966  0.50802  1.0000
  C   C1368     1.0  0.48210  0.74216  0.85415  1.0000
  H   H1098     1.0  0.19868  0.84720  0.54689  1.0000
  H   H1099     1.0  0.18543  0.87650  0.57607  1.0000
  H   H1100     1.0  0.19372  0.91873  0.57001  1.0000
  H   H1101     1.0  0.21494  0.93213  0.53411  1.0000
  H   H1102     1.0  0.25600  0.89821  0.87426  1.0000
  C   C1369     1.0  0.99637  0.91779  0.75293  1.0000
  C   C1370     1.0  0.22864  0.74387  0.97615  1.0000
  C   C1371     1.0  0.23047  0.92647  0.87897  1.0000
  H   H1103     1.0  0.42170  0.80183  0.90852  1.0000
  C   C1372     1.0  0.04992  0.75004  0.65683  1.0000
  C   C1373     1.0  0.42055  0.85240  0.81015  1.0000
  H   H1104     1.0  0.18683  0.92059  0.85938  1.0000
  C   C1374     1.0  0.43093  0.77057  0.52242  1.0000
  H   H1105     1.0  0.26922  0.97041  0.78051  1.0000
  C   C1375     1.0  0.22456  0.88140  0.77206  1.0000
  H   H1106     1.0  0.06917  0.96739  0.62868  1.0000
  C   C1376     1.0  0.40995  0.80880  0.87325  1.0000
  H   H1107     1.0  0.24048  0.88724  0.78064  1.0000
  C   C1377     1.0  0.45203  0.77675  0.53326  1.0000
  H   H1108     1.0  0.11750  0.80697  0.79514  1.0000
  C   C1378     1.0  0.21075  0.92627  0.91709  1.0000
  C   C1379     1.0  0.30213  0.91352  0.81343  1.0000
  H   H1109     1.0  0.44695  0.75469  0.74753  1.0000
  C   C1380     1.0  0.21034  0.93198  0.83137  1.0000
  C   C1381     1.0  0.44946  0.80301  0.68091  1.0000
  P   P46       1.0  0.23452  0.93995  0.85028  1.0000
  C   C1382     1.0  0.30042  0.96404  0.97086  1.0000
  H   H1110     1.0  0.15854  0.91614  0.78984  1.0000
  C   C1383     1.0  0.28329  0.89819  0.81717  1.0000
  C   C1384     1.0  0.47965  0.82729  0.54130  1.0000
  H   H1111     1.0  0.28467  0.88004  0.81158  1.0000
  C   C1385     1.0  0.03752  0.94983  0.69168  1.0000
  C   C1386     1.0  0.21437  0.93650  0.89493  1.0000
  H   H1112     1.0  0.23259  0.93118  0.68242  1.0000
  C   C1387     1.0  0.47353  0.77512  0.52098  1.0000
  C   C1388     1.0  0.27689  0.75580  0.91024  1.0000
  H   H1113     1.0  0.24472  0.76368  0.54550  1.0000
  H   H1114     1.0  0.01455  0.83521  0.71988  1.0000
  C   C1389     1.0  0.25978  0.93070  0.65587  1.0000
  C   C1390     1.0  0.45011  0.79858  0.88335  1.0000
  C   C1391     1.0  0.01580  0.96085  0.68707  1.0000
  C   C1392     1.0  0.43233  0.76966  0.66071  1.0000
  C   C1393     1.0  0.17296  0.92043  0.80142  1.0000
  H   H1115     1.0  0.20457  0.95225  0.89019  1.0000
  C   C1394     1.0  0.12335  0.92217  0.74681  1.0000
  C   C1395     1.0  0.09961  0.91609  0.74872  1.0000
  C   C1396     1.0  0.09286  0.89256  0.74664  1.0000
  C   C1397     1.0  0.10985  0.87509  0.74272  1.0000
  C   C1398     1.0  0.13384  0.88094  0.74148  1.0000
  C   C1399     1.0  0.14039  0.90472  0.74305  1.0000
  P   P47       1.0  0.15575  0.85844  0.73572  1.0000
  C   C1400     1.0  0.18295  0.86692  0.74986  1.0000
  C   C1401     1.0  0.14581  0.83044  0.74738  1.0000
  C   C1402     1.0  0.13411  0.82936  0.76919  1.0000
  C   C1403     1.0  0.12647  0.80772  0.77828  1.0000
  C   C1404     1.0  0.13055  0.78700  0.76575  1.0000
  C   C1405     1.0  0.14221  0.78791  0.74406  1.0000
  C   C1406     1.0  0.14980  0.80953  0.73487  1.0000
  C   C1407     1.0  0.18895  0.85802  0.77219  1.0000
  C   C1408     1.0  0.21874  0.89032  0.74989  1.0000
  C   C1409     1.0  0.19803  0.88324  0.73889  1.0000
  C   C1410     1.0  0.15984  0.85615  0.70427  1.0000
  C   C1411     1.0  0.14097  0.86069  0.68901  1.0000
  C   C1412     1.0  0.14449  0.86054  0.66467  1.0000
  C   C1413     1.0  0.16673  0.85550  0.65536  1.0000
  C   C1414     1.0  0.18540  0.85008  0.67039  1.0000
  C   C1415     1.0  0.18196  0.85016  0.69477  1.0000
  H   H1116     1.0  0.12851  0.94051  0.74744  1.0000
  H   H1117     1.0  0.08638  0.92973  0.75083  1.0000
  H   H1118     1.0  0.07438  0.88802  0.74704  1.0000
  H   H1119     1.0  0.10413  0.85717  0.73997  1.0000
  H   H1120     1.0  0.15852  0.91007  0.74089  1.0000
  H   H1121     1.0  0.13100  0.84524  0.77923  1.0000
  C   C1416     1.0  0.31692  0.97701  0.93344  1.0000
  H   H1122     1.0  0.14550  0.77180  0.73446  1.0000
  H   H1123     1.0  0.15886  0.80983  0.71808  1.0000
  H   H1124     1.0  0.17772  0.84559  0.78125  1.0000
  H   H1125     1.0  0.19368  0.89086  0.72194  1.0000
  H   H1126     1.0  0.12367  0.86510  0.69576  1.0000
  H   H1127     1.0  0.13009  0.86507  0.65304  1.0000
  H   H1128     1.0  0.16968  0.85638  0.63651  1.0000
  H   H1129     1.0  0.20273  0.84666  0.66307  1.0000
  H   H1130     1.0  0.19672  0.84620  0.70612  1.0000
  H   H1131     1.0  0.12029  0.77045  0.69691  1.0000
  C   C1417     1.0  0.08032  0.74577  0.71446  1.0000
  H   H1132     1.0  0.24883  0.88008  0.91277  1.0000
  C   C1418     1.0  0.27933  0.91165  0.97453  1.0000
  C   C1419     1.0  0.40706  0.83267  0.80416  1.0000
  C   C1420     1.0  0.40396  0.82717  0.78032  1.0000
  P   P48       1.0  0.39384  0.81492  0.82713  1.0000
  C   C1421     1.0  0.38483  0.78697  0.81507  1.0000
  C   C1422     1.0  0.41600  0.80958  0.84932  1.0000
  H   H1133     1.0  0.03858  0.93096  0.69437  1.0000
  C   C1423     1.0  0.26115  0.92963  0.83612  1.0000
  C   C1424     1.0  0.24920  0.96504  0.67875  1.0000
  H   H1134     1.0  0.39214  0.81220  0.87908  1.0000
  H   H1135     1.0  0.41061  0.84895  0.50672  1.0000
  C   C1425     1.0  0.36289  0.78500  0.80397  1.0000
  C   C1426     1.0  0.43084  0.86634  0.79257  1.0000
  C   C1427     1.0  0.39987  0.76727  0.81588  1.0000
  C   C1428     1.0  0.36834  0.82954  0.83964  1.0000
  C   C1429     1.0  0.36429  0.85375  0.83601  1.0000
  C   C1430     1.0  0.34492  0.86488  0.84655  1.0000
  C   C1431     1.0  0.32952  0.85199  0.86083  1.0000
  C   C1432     1.0  0.33327  0.82789  0.86430  1.0000
  C   C1433     1.0  0.35247  0.81667  0.85365  1.0000
  H   H1136     1.0  0.43111  0.83609  0.67712  1.0000
  H   H1137     1.0  0.31501  0.94885  0.81773  1.0000
  H   H1138     1.0  0.22865  0.94180  0.79937  1.0000
  C   C1434     1.0  0.23907  0.89577  0.90773  1.0000
  H   H1139     1.0  0.39365  0.81212  0.77512  1.0000
  C   C1435     1.0  0.23572  0.97156  0.85389  1.0000
  H   H1140     1.0  0.47530  0.74240  0.55698  1.0000
  H   H1141     1.0  0.46351  0.81044  0.69123  1.0000
  H   H1142     1.0  0.23831  0.97290  0.69231  1.0000
  H   H1143     1.0  0.35105  0.79999  0.80299  1.0000
  H   H1144     1.0  0.33922  0.76224  0.78534  1.0000
  H   H1145     1.0  0.37610  0.86424  0.82535  1.0000
  H   H1146     1.0  0.34211  0.88365  0.84413  1.0000
  H   H1147     1.0  0.31494  0.86077  0.86961  1.0000
  H   H1148     1.0  0.32165  0.81795  0.87575  1.0000
  H   H1149     1.0  0.35531  0.79807  0.85701  1.0000
  H   H1150     1.0  0.28813  0.93532  0.63107  1.0000
  H   H1151     1.0  0.33133  0.97721  0.92089  1.0000
  C   C1436     1.0  0.26431  0.89232  0.97293  1.0000
  C   C1437     1.0  0.04532  0.75737  0.67997  1.0000
  C   C1438     1.0  0.37136  0.74422  0.79460  1.0000
  H   H1152     1.0  0.02676  0.95746  0.62640  1.0000
  C   C1439     1.0  0.01283  0.75986  0.76527  1.0000
  H   H1153     1.0  0.45046  0.75049  0.80412  1.0000
  H   H1154     1.0  0.39944  0.81950  0.65251  1.0000
  H   H1155     1.0  0.25690  0.91242  0.65131  1.0000
  S   S192      1.0  0.29510  0.75110  0.52794  1.0000
  H   H1156     1.0  0.41444  0.77221  0.53203  1.0000
  H   H1157     1.0  0.19839  0.93413  0.92933  1.0000
  C   C1440     1.0  0.24292  0.90607  0.88564  1.0000
  H   H1158     1.0  0.47606  0.75688  0.63181  1.0000
  C   C1441     1.0  0.17061  0.91729  0.82571  1.0000
  C   C1442     1.0  0.31940  0.96517  0.95495  1.0000
  H   H1159     1.0  0.02649  0.77109  0.77211  1.0000
  H   H1160     1.0  0.01982  0.75709  0.70821  1.0000
  H   H1161     1.0  0.22036  0.89792  0.94065  1.0000
  C   C1443     1.0  0.35618  0.76368  0.79385  1.0000
  Fe  Fe97      1.0  0.33332  0.83011  0.98401  1.0000
  C   C1444     1.0  0.38615  0.74045  0.91936  1.0000
  C   C1445     1.0  0.27728  0.94369  0.64437  1.0000
  C   C1446     1.0  0.22307  0.90587  0.92347  1.0000
  H   H1162     1.0  0.21410  0.85848  0.80050  1.0000
  C   C1447     1.0  0.45017  0.77925  0.67468  1.0000
  H   H1163     1.0  0.02435  0.89436  0.62294  1.0000
  H   H1164     1.0  0.19565  0.93200  0.77325  1.0000
  C   C1448     1.0  0.25459  0.97684  0.77012  1.0000
  H   H1165     1.0  0.46309  0.79391  0.89651  1.0000
  C   C1449     1.0  0.26853  0.87169  0.50167  1.0000
  C   C1450     1.0  0.22660  0.78105  0.51694  1.0000
  H   H1166     1.0  0.99908  0.78674  0.74173  1.0000
  H   H1167     1.0  0.43578  0.87150  0.75527  1.0000
  C   C1451     1.0  0.24579  0.98110  0.87426  1.0000
  H   H1168     1.0  0.38547  0.97765  0.94371  1.0000
  C   C1452     1.0  0.46251  0.74388  0.83947  1.0000
  C   C1453     1.0  0.05599  0.98128  0.62824  1.0000
  H   H1169     1.0  0.32825  0.75430  0.87940  1.0000
  C   C1454     1.0  0.27879  0.97436  0.96452  1.0000
  C   C1455     1.0  0.31469  0.74899  0.89178  1.0000
  H   H1170     1.0  0.43653  0.88299  0.49805  1.0000
  H   H1171     1.0  0.30399  0.88485  0.50265  1.0000
  C   C1456     1.0  0.29073  0.87631  0.49204  1.0000
  C   C1457     1.0  0.22173  0.80255  0.50580  1.0000
  H   H1172     1.0  0.41895  0.81038  0.48875  1.0000
  H   H1173     1.0  0.30085  0.74155  0.97086  1.0000
  C   C1458     1.0  0.05728  0.98753  0.68978  1.0000
  C   C1459     1.0  0.00604  0.74090  0.67729  1.0000
  C   C1460     1.0  0.07368  0.74227  0.73807  1.0000
  P   P49       1.0  0.22375  0.85184  0.50185  1.0000
  P   P50       1.0  0.98901  0.94368  0.68586  1.0000
  H   H1174     1.0  0.14691  0.75274  0.49752  1.0000
  C   C1461     1.0  0.25146  0.85991  0.48847  1.0000
  H   H1175     1.0  0.17845  0.82731  0.50193  1.0000
  H   H1176     1.0  0.21210  0.80243  0.48946  1.0000
  C   C1462     1.0  0.98836  0.92495  0.66020  1.0000
  C   C1463     1.0  0.03243  0.73878  0.64386  1.0000
  C   C1464     1.0  0.26660  0.75192  0.48784  1.0000
  C   C1465     1.0  0.68957  0.20372  0.28645  1.0000
  S   S193      1.0  0.85386  0.00651  0.34321  1.0000
  Fe  Fe98      1.0  0.69484  0.02248  0.18072  1.0000
  S   S194      1.0  0.65927  0.00615  0.18672  1.0000
  S   S195      1.0  0.72068  0.02367  0.21164  1.0000
  Fe  Fe99      1.0  0.67883  0.04535  0.13314  1.0000
  S   S196      1.0  0.64248  0.03043  0.13740  1.0000
  S   S197      1.0  0.69231  0.06624  0.10073  1.0000
  Fe  Fe100     1.0  0.64443  0.04155  0.17584  1.0000
  S   S198      1.0  0.61643  0.06512  0.19458  1.0000
  H   H1177     1.0  0.59956  0.17991  0.13607  1.0000
  S   S199      1.0  0.67998  0.05809  0.17065  1.0000
  S   S200      1.0  0.69758  0.01118  0.14273  1.0000
  Fe  Fe101     1.0  0.53946  0.18126  0.31473  1.0000
  S   S201      1.0  0.52368  0.14626  0.30509  1.0000
  S   S202      1.0  0.54165  0.21409  0.29102  1.0000
  Fe  Fe102     1.0  0.56137  0.16111  0.36091  1.0000
  S   S203      1.0  0.54721  0.12504  0.35360  1.0000
  S   S204      1.0  0.58051  0.17422  0.39393  1.0000
  Fe  Fe103     1.0  0.55876  0.13046  0.31556  1.0000
  S   S205      1.0  0.58061  0.10141  0.29651  1.0000
  Fe  Fe104     1.0  0.51350  0.14401  0.34380  1.0000
  S   S206      1.0  0.57491  0.16564  0.32389  1.0000
  S   S207      1.0  0.52722  0.17989  0.35253  1.0000
  S   S208      1.0  0.64568  0.13296  0.02112  1.0000
  S   S209      1.0  0.64293  0.12927  0.47692  1.0000
  Fe  Fe105     1.0  0.93901  0.11712  0.30692  1.0000
  S   S210      1.0  0.94924  0.12530  0.34405  1.0000
  S   S211      1.0  0.92132  0.08319  0.29382  1.0000
  Fe  Fe106     1.0  0.96214  0.16384  0.28807  1.0000
  S   S212      1.0  0.96410  0.18672  0.25436  1.0000
  Fe  Fe107     1.0  0.93774  0.16304  0.33671  1.0000
  S   S213      1.0  0.90907  0.18272  0.35822  1.0000
  S   S214      1.0  0.97461  0.12607  0.29138  1.0000
  S   S215      1.0  0.92560  0.15387  0.30017  1.0000
  C   C1466     1.0  0.88075  0.21467  0.38195  1.0000
  C   C1467     1.0  0.90381  0.20949  0.37413  1.0000
  H   H1178     1.0  0.63643  0.16014  0.32370  1.0000
  H   H1179     1.0  0.86672  0.20252  0.37807  1.0000
  H   H1180     1.0  0.72413  0.04832  0.03465  1.0000
  H   H1181     1.0  0.62141  0.02922  0.00707  1.0000
  C   C1468     1.0  0.71404  0.22406  0.41144  1.0000
  C   C1469     1.0  0.72615  0.06079  0.02034  1.0000
  C   C1470     1.0  0.55480  0.20955  0.10929  1.0000
  H   H1182     1.0  0.69031  0.22616  0.36610  1.0000
  C   C1471     1.0  0.76348  0.22022  0.01238  1.0000
  C   C1472     1.0  0.83056  0.00441  0.24902  1.0000
  H   H1183     1.0  0.76965  0.20976  0.02711  1.0000
  C   C1473     1.0  0.59625  0.16048  0.41752  1.0000
  C   C1474     1.0  0.60177  0.17399  0.43740  1.0000
  C   C1475     1.0  0.61552  0.16461  0.45591  1.0000
  C   C1476     1.0  0.62405  0.14148  0.45481  1.0000
  C   C1477     1.0  0.61805  0.12775  0.43516  1.0000
  C   C1478     1.0  0.60428  0.13715  0.41663  1.0000
  H   H1184     1.0  0.59554  0.19197  0.43839  1.0000
  H   H1185     1.0  0.61978  0.17539  0.47089  1.0000
  H   H1186     1.0  0.62438  0.10979  0.43413  1.0000
  H   H1187     1.0  0.60019  0.12645  0.40154  1.0000
  C   C1479     1.0  0.67868  0.08428  0.07853  1.0000
  C   C1480     1.0  0.65454  0.08944  0.07842  1.0000
  C   C1481     1.0  0.64484  0.10422  0.06073  1.0000
  C   C1482     1.0  0.65898  0.11391  0.04268  1.0000
  C   C1483     1.0  0.68306  0.10843  0.04256  1.0000
  C   C1484     1.0  0.69278  0.09392  0.06044  1.0000
  H   H1188     1.0  0.64337  0.08229  0.09215  1.0000
  H   H1189     1.0  0.62621  0.10826  0.06111  1.0000
  H   H1190     1.0  0.69427  0.11561  0.02889  1.0000
  H   H1191     1.0  0.71146  0.09029  0.06042  1.0000
  C   C1485     1.0  0.60725  0.07511  0.22325  1.0000
  C   C1486     1.0  0.59203  0.09479  0.22493  1.0000
  C   C1487     1.0  0.58397  0.10323  0.24698  1.0000
  C   C1488     1.0  0.59075  0.09201  0.26793  1.0000
  C   C1489     1.0  0.60602  0.07237  0.26627  1.0000
  C   C1490     1.0  0.61431  0.06406  0.24423  1.0000
  H   H1192     1.0  0.58639  0.10358  0.20897  1.0000
  H   H1193     1.0  0.57232  0.11828  0.24772  1.0000
  H   H1194     1.0  0.61133  0.06332  0.28219  1.0000
  H   H1195     1.0  0.62584  0.04887  0.24345  1.0000
  C   C1491     1.0  0.87307  0.02734  0.32927  1.0000
  C   C1492     1.0  0.88157  0.02438  0.30631  1.0000
  C   C1493     1.0  0.89650  0.04146  0.29597  1.0000
  C   C1494     1.0  0.90312  0.06183  0.30827  1.0000
  C   C1495     1.0  0.89466  0.06478  0.33123  1.0000
  C   C1496     1.0  0.87975  0.04768  0.34159  1.0000
  H   H1196     1.0  0.87646  0.00905  0.29644  1.0000
  H   H1197     1.0  0.90287  0.03894  0.27823  1.0000
  H   H1198     1.0  0.89946  0.08032  0.34097  1.0000
  H   H1199     1.0  0.87328  0.05029  0.35932  1.0000
  C   C1497     1.0  0.71349  0.22398  0.05485  1.0000
  C   C1498     1.0  0.69245  0.99890  0.05881  1.0000
  C   C1499     1.0  0.54049  0.21384  0.12891  1.0000
  C   C1500     1.0  0.98711  0.20191  0.13087  1.0000
  C   C1501     1.0  0.49027  0.14083  0.43099  1.0000
  C   C1502     1.0  0.97744  0.22185  0.22328  1.0000
  C   C1503     1.0  0.92171  0.22541  0.37953  1.0000
  C   C1504     1.0  0.65879  0.02494  0.06165  1.0000
  C   C1505     1.0  0.59141  0.00745  0.01472  1.0000
  H   H1200     1.0  0.96390  0.06690  0.34940  1.0000
  C   C1506     1.0  0.66295  0.20231  0.37796  1.0000
  H   H1201     1.0  0.61585  0.09867  0.36265  1.0000
  H   H1202     1.0  0.76485  0.18167  0.39392  1.0000
  C   C1507     1.0  0.66526  0.20292  0.43008  1.0000
  C   C1508     1.0  0.77552  0.08761  0.21332  1.0000
  H   H1203     1.0  0.49356  0.15443  0.41794  1.0000
  H   H1204     1.0  0.87006  0.04934  0.24564  1.0000
  C   C1509     1.0  0.71142  0.18194  0.04793  1.0000
  C   C1510     1.0  0.87765  0.01328  0.23793  1.0000
  C   C1511     1.0  0.69017  0.18517  0.03605  1.0000
  H   H1205     1.0  0.65260  0.04786  0.03250  1.0000
  C   C1512     1.0  0.68290  0.02523  0.02612  1.0000
  H   H1206     1.0  0.58210  0.17926  0.22334  1.0000
  C   C1513     1.0  0.52010  0.22957  0.27410  1.0000
  H   H1207     1.0  0.62219  0.17347  0.20652  1.0000
  H   H1208     1.0  0.82880  0.02373  0.30063  1.0000
  H   H1209     1.0  0.53328  0.13849  0.24619  1.0000
  H   H1210     1.0  0.71487  0.21401  0.31253  1.0000
  H   H1211     1.0  0.62973  0.07330  0.32998  1.0000
  C   C1514     1.0  0.50139  0.20317  0.42971  1.0000
  H   H1212     1.0  0.54025  0.10595  0.47521  1.0000
  H   H1213     1.0  0.96141  0.21746  0.21414  1.0000
  H   H1214     1.0  0.70530  0.07316  0.22461  1.0000
  C   C1515     1.0  0.64633  0.22229  0.47142  1.0000
  C   C1516     1.0  0.62799  0.20168  0.35347  1.0000
  H   H1215     1.0  0.63904  0.22951  0.48748  1.0000
  C   C1517     1.0  0.72718  0.18616  0.39683  1.0000
  H   H1216     1.0  0.74476  0.02152  0.25564  1.0000
  H   H1217     1.0  0.75918  0.10872  0.00595  1.0000
  C   C1518     1.0  0.53040  0.18808  0.19860  1.0000
  H   H1218     1.0  0.94931  0.22136  0.00152  1.0000
  C   C1519     1.0  0.67531  0.00260  0.25394  1.0000
  C   C1520     1.0  0.73745  0.23129  0.41330  1.0000
  C   C1521     1.0  0.52299  0.19467  0.47340  1.0000
  H   H1219     1.0  0.68890  0.14342  0.31887  1.0000
  C   C1522     1.0  0.98771  0.05306  0.27968  1.0000
  C   C1523     1.0  0.81037  0.02876  0.30079  1.0000
  C   C1524     1.0  0.70336  0.17825  0.31783  1.0000
  H   H1220     1.0  0.95669  0.00217  0.27763  1.0000
  H   H1221     1.0  0.79682  0.09574  0.24320  1.0000
  H   H1222     1.0  0.66232  0.07909  0.21932  1.0000
  C   C1525     1.0  0.52488  0.19297  0.22214  1.0000
  H   H1223     1.0  0.63233  0.18064  0.38465  1.0000
  C   C1526     1.0  0.59140  0.16525  0.25730  1.0000
  P   P51       1.0  0.67852  0.19146  0.40350  1.0000
  C   C1527     1.0  0.56876  0.19360  0.15375  1.0000
  C   C1528     1.0  0.67736  0.15965  0.40278  1.0000
  C   C1529     1.0  0.67650  0.14631  0.42363  1.0000
  C   C1530     1.0  0.67571  0.12172  0.42273  1.0000
  C   C1531     1.0  0.67555  0.11026  0.40108  1.0000
  C   C1532     1.0  0.67650  0.12338  0.38023  1.0000
  C   C1533     1.0  0.67752  0.14796  0.38105  1.0000
  H   H1224     1.0  0.76988  0.03340  0.18903  1.0000
  H   H1225     1.0  0.72363  0.16849  0.39085  1.0000
  C   C1534     1.0  0.75060  0.19353  0.39859  1.0000
  S   S216      1.0  0.97396  0.17420  0.32431  1.0000
  H   H1226     1.0  0.73945  0.19882  0.06673  1.0000
  C   C1535     1.0  0.49686  0.22181  0.27238  1.0000
  C   C1536     1.0  0.98435  0.23174  0.01150  1.0000
  H   H1227     1.0  0.67596  0.15465  0.44066  1.0000
  H   H1228     1.0  0.67456  0.11162  0.43896  1.0000
  H   H1229     1.0  0.67445  0.09122  0.40054  1.0000
  H   H1230     1.0  0.67616  0.11449  0.36343  1.0000
  H   H1231     1.0  0.67818  0.15783  0.36471  1.0000
  C   C1537     1.0  0.79168  0.08210  0.23106  1.0000
  H   H1232     1.0  0.64696  0.09100  0.29421  1.0000
  C   C1538     1.0  0.65467  0.07097  0.99179  1.0000
  C   C1539     1.0  0.57596  0.19713  0.11184  1.0000
  H   H1233     1.0  0.83584  0.06864  0.30421  1.0000
  H   H1234     1.0  0.60496  0.14931  0.28862  1.0000
  P   P52       1.0  0.52895  0.21129  0.17672  1.0000
  H   H1235     1.0  0.86138  0.10147  0.31514  1.0000
  C   C1540     1.0  0.69097  0.02256  0.29583  1.0000
  C   C1541     1.0  0.74807  0.22445  0.47658  1.0000
  C   C1542     1.0  0.67509  0.18571  0.27826  1.0000
  H   H1236     1.0  0.51021  0.11470  0.41213  1.0000
  C   C1543     1.0  0.49445  0.10033  0.44371  1.0000
  H   H1237     1.0  0.92853  0.04546  0.36327  1.0000
  H   H1238     1.0  0.64434  0.03216  0.07187  1.0000
  H   H1239     1.0  0.55282  0.18282  0.45257  1.0000
  H   H1240     1.0  0.64077  0.10773  0.24366  1.0000
  H   H1241     1.0  0.61927  0.14203  0.35945  1.0000
  C   C1544     1.0  0.96837  0.03802  0.27891  1.0000
  H   H1242     1.0  0.50120  0.08271  0.44074  1.0000
  H   H1243     1.0  0.65399  0.15673  0.23106  1.0000
  C   C1545     1.0  0.62563  0.99434  0.99281  1.0000
  H   H1244     1.0  0.57386  0.16750  0.26461  1.0000
  H   H1245     1.0  0.71872  0.16437  0.04995  1.0000
  H   H1246     1.0  0.56086  0.22496  0.47137  1.0000
  H   H1247     1.0  0.71427  0.17542  0.33320  1.0000
  C   C1546     1.0  0.98325  0.20954  0.24411  1.0000
  C   C1547     1.0  0.58301  0.18932  0.13409  1.0000
  H   H1248     1.0  0.70547  0.12554  0.27876  1.0000
  C   C1548     1.0  0.74608  0.09504  0.00437  1.0000
  H   H1249     1.0  0.53898  0.16026  0.17398  1.0000
  H   H1250     1.0  0.80397  0.01241  0.33445  1.0000
  C   C1549     1.0  0.73930  0.00161  0.22412  1.0000
  H   H1251     1.0  0.72670  0.09630  0.25448  1.0000
  H   H1252     1.0  0.75398  0.07919  0.03797  1.0000
  H   H1253     1.0  0.68098  0.17008  0.02902  1.0000
  Fe  Fe108     1.0  0.66119  0.99652  0.14793  1.0000
  C   C1550     1.0  0.75572  0.21602  0.40698  1.0000
  C   C1551     1.0  0.79628  0.02217  0.31993  1.0000
  C   C1552     1.0  0.67300  0.21909  0.36274  1.0000
  H   H1254     1.0  0.54163  0.12914  0.20439  1.0000
  H   H1255     1.0  0.76865  0.10536  0.21156  1.0000
  H   H1256     1.0  0.89599  0.01671  0.23397  1.0000
  H   H1257     1.0  0.52443  0.22395  0.12665  1.0000
  C   C1553     1.0  0.98235  0.03535  0.33896  1.0000
  C   C1554     1.0  0.52437  0.19431  0.43059  1.0000
  C   C1555     1.0  0.69752  0.00795  0.03640  1.0000
  C   C1556     1.0  0.63400  0.22423  0.45029  1.0000
  H   H1258     1.0  0.57475  0.18785  0.17092  1.0000
  H   H1259     1.0  0.67316  0.03808  0.24076  1.0000
  H   H1260     1.0  0.52123  0.14471  0.48078  1.0000
  H   H1261     1.0  0.52227  0.17919  0.25746  1.0000
  H   H1262     1.0  0.69706  0.03030  0.31203  1.0000
  C   C1557     1.0  0.67734  0.02702  0.25580  1.0000
  H   H1263     1.0  0.87641  0.18468  0.29837  1.0000
  C   C1558     1.0  0.64338  0.21458  0.42968  1.0000
  C   C1559     1.0  0.54704  0.20528  0.15120  1.0000
  C   C1560     1.0  0.97182  0.01367  0.27821  1.0000
  C   C1561     1.0  0.53507  0.18994  0.45229  1.0000
  C   C1562     1.0  0.86278  0.03183  0.24460  1.0000
  C   C1563     1.0  0.68063  0.20778  0.03340  1.0000
  C   C1564     1.0  0.88520  0.20156  0.29873  1.0000
  C   C1565     1.0  0.90326  0.20648  0.28269  1.0000
  C   C1566     1.0  0.61358  0.01199  0.00505  1.0000
  C   C1567     1.0  0.49822  0.21468  0.16924  1.0000
  C   C1568     1.0  0.68898  0.16017  0.30964  1.0000
  H   H1264     1.0  0.98638  0.18315  0.13443  1.0000
  C   C1569     1.0  0.53582  0.16480  0.19219  1.0000
  H   H1265     1.0  0.49164  0.20594  0.28146  1.0000
  C   C1570     1.0  0.94343  0.03575  0.35626  1.0000
  C   C1571     1.0  0.74939  0.00566  0.24628  1.0000
  C   C1572     1.0  0.87561  0.23534  0.39488  1.0000
  C   C1573     1.0  0.49977  0.20324  0.47234  1.0000
  H   H1266     1.0  0.66419  0.18915  0.26308  1.0000
  P   P53       1.0  0.81933  0.05140  0.25804  1.0000
  C   C1574     1.0  0.83678  0.07644  0.26674  1.0000
  C   C1575     1.0  0.80051  0.05903  0.23350  1.0000
  H   H1267     1.0  0.95066  0.04525  0.27905  1.0000
  C   C1576     1.0  0.97895  0.21780  0.14776  1.0000
  C   C1577     1.0  0.76783  0.07009  0.19806  1.0000
  C   C1578     1.0  0.77643  0.04712  0.20042  1.0000
  C   C1579     1.0  0.79262  0.04155  0.21807  1.0000
  C   C1580     1.0  0.84636  0.09149  0.24949  1.0000
  C   C1581     1.0  0.86105  0.11005  0.25593  1.0000
  C   C1582     1.0  0.86631  0.11372  0.27959  1.0000
  C   C1583     1.0  0.85677  0.09894  0.29685  1.0000
  C   C1584     1.0  0.84221  0.08027  0.29050  1.0000
  C   C1585     1.0  0.80084  0.04214  0.28229  1.0000
  C   C1586     1.0  0.95239  0.22501  0.03899  1.0000
  H   H1268     1.0  0.90840  0.19355  0.26967  1.0000
  C   C1587     1.0  0.77242  0.02815  0.32039  1.0000
  C   C1588     1.0  0.76268  0.04119  0.30189  1.0000
  C   C1589     1.0  0.77686  0.04838  0.28301  1.0000
  C   C1590     1.0  0.72303  0.20133  0.05740  1.0000
  C   C1591     1.0  0.74605  0.21100  0.99742  1.0000
  H   H1269     1.0  0.66394  0.20981  0.02445  1.0000
  C   C1592     1.0  0.83905  0.02753  0.25024  1.0000
  H   H1270     1.0  0.75487  0.07411  0.18464  1.0000
  C   C1593     1.0  0.70873  0.20134  0.40342  1.0000
  H   H1271     1.0  0.79826  0.02344  0.21992  1.0000
  H   H1272     1.0  0.84299  0.08850  0.23102  1.0000
  H   H1273     1.0  0.86882  0.12130  0.24257  1.0000
  H   H1274     1.0  0.87827  0.12763  0.28459  1.0000
  C   C1594     1.0  0.94247  0.01122  0.35463  1.0000
  C   C1595     1.0  0.64046  0.19352  0.37304  1.0000
  C   C1596     1.0  0.66365  0.03386  0.03916  1.0000
  H   H1275     1.0  0.77385  0.22160  0.40899  1.0000
  H   H1276     1.0  0.76155  0.02266  0.33512  1.0000
  H   H1277     1.0  0.74413  0.04568  0.30209  1.0000
  H   H1278     1.0  0.76891  0.05849  0.26893  1.0000
  C   C1597     1.0  0.67174  0.08922  0.23237  1.0000
  C   C1598     1.0  0.69593  0.08594  0.23533  1.0000
  C   C1599     1.0  0.70795  0.09899  0.25220  1.0000
  C   C1600     1.0  0.69582  0.11554  0.26593  1.0000
  C   C1601     1.0  0.67154  0.11918  0.26277  1.0000
  C   C1602     1.0  0.65956  0.10558  0.24616  1.0000
  P   P54       1.0  0.65541  0.14045  0.28018  1.0000
  C   C1603     1.0  0.67471  0.16374  0.28978  1.0000
  C   C1604     1.0  0.63208  0.15260  0.26209  1.0000
  C   C1605     1.0  0.60922  0.15531  0.27111  1.0000
  C   C1606     1.0  0.70369  0.20001  0.30621  1.0000
  C   C1607     1.0  0.59606  0.17188  0.23406  1.0000
  C   C1608     1.0  0.61863  0.16868  0.22466  1.0000
  C   C1609     1.0  0.63660  0.15914  0.23862  1.0000
  H   H1279     1.0  0.97200  0.21142  0.16442  1.0000
  C   C1610     1.0  0.64345  0.12690  0.30647  1.0000
  C   C1611     1.0  0.63562  0.14113  0.32511  1.0000
  C   C1612     1.0  0.62591  0.13096  0.34539  1.0000
  C   C1613     1.0  0.62403  0.10650  0.34724  1.0000
  C   C1614     1.0  0.63201  0.09220  0.32888  1.0000
  C   C1615     1.0  0.64168  0.10233  0.30854  1.0000
  H   H1280     1.0  0.61035  0.19526  0.35028  1.0000
  C   C1616     1.0  0.96168  0.99843  0.34549  1.0000
  H   H1281     1.0  0.54946  0.21588  0.09208  1.0000
  H   H1282     1.0  0.94941  0.23666  0.33194  1.0000
  C   C1617     1.0  0.74321  0.07836  0.02233  1.0000
  H   H1283     1.0  0.68667  0.05599  0.27801  1.0000
  H   H1284     1.0  0.77303  0.99287  0.27340  1.0000
  C   C1618     1.0  0.91550  0.22767  0.28404  1.0000
  C   C1619     1.0  0.63806  0.21833  0.33836  1.0000
  C   C1620     1.0  0.53229  0.15223  0.23287  1.0000
  H   H1285     1.0  0.79766  0.20966  0.47639  1.0000
  C   C1621     1.0  0.83153  0.19538  0.48564  1.0000
  C   C1622     1.0  0.71171  0.05989  0.00037  1.0000
  C   C1623     1.0  0.67756  0.20117  0.45140  1.0000
  C   C1624     1.0  0.52608  0.17517  0.23923  1.0000
  H   H1286     1.0  0.73911  0.19355  0.00058  1.0000
  C   C1625     1.0  0.66057  0.22701  0.34297  1.0000
  H   H1287     1.0  0.62827  0.22469  0.32324  1.0000
  C   C1626     1.0  0.53705  0.14702  0.20934  1.0000
  C   C1627     1.0  0.54951  0.11976  0.48433  1.0000
  H   H1288     1.0  0.69459  0.19252  0.45221  1.0000
  C   C1628     1.0  0.98607  0.23796  0.32268  1.0000
  C   C1629     1.0  0.68512  0.03704  0.27672  1.0000
  C   C1630     1.0  0.48908  0.20757  0.45058  1.0000
  P   P55       1.0  0.68991  0.03705  0.99713  1.0000
  H   H1289     1.0  0.58696  0.19366  0.09659  1.0000
  H   H1290     1.0  0.75438  0.21271  0.46301  1.0000
  H   H1291     1.0  0.51971  0.21059  0.22729  1.0000
  C   C1631     1.0  0.69252  0.22746  0.04225  1.0000
  C   C1632     1.0  0.96334  0.04782  0.34843  1.0000
  H   H1292     1.0  0.92646  0.00239  0.36010  1.0000
  H   H1293     1.0  0.84067  0.20459  0.47155  1.0000
  H   H1294     1.0  0.93956  0.22165  0.37402  1.0000
  H   H1295     1.0  0.66201  0.07926  0.00717  1.0000
  H   H1296     1.0  0.49301  0.20622  0.41285  1.0000
  H   H1297     1.0  0.98379  0.10010  0.23159  1.0000
  H   H1298     1.0  0.49868  0.18859  0.14158  1.0000
  H   H1299     1.0  0.53390  0.19057  0.41442  1.0000
  H   H1300     1.0  0.66940  0.00072  0.08900  1.0000
  C   C1633     1.0  0.67306  0.00736  0.07141  1.0000
  H   H1301     1.0  0.71310  0.00173  0.02728  1.0000
  C   C1634     1.0  0.96095  0.22555  0.01593  1.0000
  H   H1302     1.0  0.56173  0.22396  0.21496  1.0000
  H   H1303     1.0  0.63334  0.21627  0.41366  1.0000
  H   H1304     1.0  0.61701  0.23291  0.44987  1.0000
  H   H1305     1.0  0.68979  0.22062  0.27746  1.0000
  H   H1306     1.0  0.66950  0.99542  0.23743  1.0000
  C   C1635     1.0  0.49957  0.11831  0.42761  1.0000
  C   C1636     1.0  0.66809  0.21079  0.47192  1.0000
  C   C1637     1.0  0.96731  0.23023  0.05771  1.0000
  H   H1307     1.0  0.81249  0.00054  0.25355  1.0000
  C   C1638     1.0  0.98145  0.01078  0.33719  1.0000
  C   C1639     1.0  0.53884  0.14177  0.48746  1.0000
  H   H1308     1.0  0.58217  0.02111  0.02437  1.0000
  H   H1309     1.0  0.49380  0.21988  0.34296  1.0000
  H   H1310     1.0  0.98491  0.07196  0.28044  1.0000
  C   C1640     1.0  0.76545  0.98945  0.25635  1.0000
  C   C1641     1.0  0.86887  0.99041  0.23640  1.0000
  H   H1311     1.0  0.62784  0.09757  0.98785  1.0000
  H   H1312     1.0  0.93408  0.22074  0.04239  1.0000
  C   C1642     1.0  0.68893  0.99808  0.29403  1.0000
  H   H1313     1.0  0.68918  0.23644  0.99345  1.0000
  H   H1314     1.0  0.70015  0.23602  0.41688  1.0000
  H   H1315     1.0  0.86591  0.21373  0.32901  1.0000
  H   H1316     1.0  0.96010  0.23024  0.07539  1.0000
  Fe  Fe109     1.0  0.98439  0.13559  0.32824  1.0000
  C   C1643     1.0  0.87918  0.21800  0.31594  1.0000
  H   H1317     1.0  0.93008  0.23076  0.27204  1.0000
  H   H1318     1.0  0.98333  0.14353  0.23523  1.0000
  Fe  Fe110     1.0  0.67951  0.13114  0.93870  1.0000
  S   S217      1.0  0.64234  0.13480  0.95169  1.0000
  S   S218      1.0  0.69422  0.09728  0.92151  1.0000
  Fe  Fe111     1.0  0.69277  0.18063  0.95895  1.0000
  S   S219      1.0  0.65614  0.18590  0.97361  1.0000
  S   S220      1.0  0.71714  0.21305  0.95775  1.0000
  C   C1644     1.0  0.72725  0.09688  0.72853  1.0000
  Fe  Fe112     1.0  0.64345  0.17267  0.93855  1.0000
  S   S221      1.0  0.61546  0.18799  0.91301  1.0000
  S   S222      1.0  0.69613  0.14330  0.97279  1.0000
  S   S223      1.0  0.67996  0.16802  0.92361  1.0000
  H   H1319     1.0  0.80698  0.22132  0.91651  1.0000
  S   S224      1.0  0.51818  0.13277  0.63697  1.0000
  C   C1645     1.0  0.76006  0.09241  0.50740  1.0000
  S   S225      1.0  0.64849  0.01804  0.85534  1.0000
  H   H1320     1.0  0.70340  0.07691  0.96716  1.0000
  S   S226      1.0  0.85585  0.01265  0.68662  1.0000
  Fe  Fe113     1.0  0.81730  0.04021  0.63671  1.0000
  S   S227      1.0  0.82443  0.05853  0.67107  1.0000
  S   S228      1.0  0.79546  0.05454  0.60522  1.0000
  Fe  Fe114     1.0  0.86240  0.04659  0.66663  1.0000
  S   S229      1.0  0.89739  0.06409  0.67739  1.0000
  Fe  Fe115     1.0  0.81735  0.02289  0.68793  1.0000
  S   S230      1.0  0.79453  0.02153  0.72169  1.0000
  S   S231      1.0  0.85580  0.03020  0.63138  1.0000
  S   S232      1.0  0.80906  0.00509  0.65377  1.0000
  Fe  Fe116     1.0  0.68167  0.13877  0.55840  1.0000
  S   S233      1.0  0.67052  0.17508  0.57049  1.0000
  S   S234      1.0  0.70296  0.11878  0.58722  1.0000
  Fe  Fe117     1.0  0.65439  0.14624  0.51164  1.0000
  S   S235      1.0  0.64265  0.18263  0.52142  1.0000
  Fe  Fe118     1.0  0.67994  0.18762  0.53396  1.0000
  S   S236      1.0  0.69980  0.22278  0.53059  1.0000
  Fe  Fe119     1.0  0.63429  0.16682  0.55700  1.0000
  S   S237      1.0  0.59987  0.17997  0.57412  1.0000
  S   S238      1.0  0.69254  0.15189  0.52224  1.0000
  S   S239      1.0  0.64448  0.12993  0.54681  1.0000
  P   P56       1.0  0.79226  0.15608  0.54526  1.0000
  C   C1646     1.0  0.60300  0.03018  0.74310  1.0000
  C   C1647     1.0  0.91780  0.08513  0.66562  1.0000
  C   C1648     1.0  0.93879  0.08949  0.67797  1.0000
  C   C1649     1.0  0.95563  0.10579  0.66948  1.0000
  C   C1650     1.0  0.95159  0.11834  0.64859  1.0000
  C   C1651     1.0  0.93067  0.11389  0.63615  1.0000
  C   C1652     1.0  0.91394  0.09738  0.64450  1.0000
  H   H1321     1.0  0.94202  0.08023  0.69432  1.0000
  H   H1322     1.0  0.97158  0.10886  0.67930  1.0000
  H   H1323     1.0  0.92732  0.12335  0.61992  1.0000
  H   H1324     1.0  0.89801  0.09427  0.63469  1.0000
  C   C1653     1.0  0.76985  0.07276  0.60074  1.0000
  C   C1654     1.0  0.75803  0.08412  0.61916  1.0000
  C   C1655     1.0  0.73790  0.09824  0.61457  1.0000
  C   C1656     1.0  0.72912  0.10132  0.59157  1.0000
  C   C1657     1.0  0.74109  0.09017  0.57312  1.0000
  C   C1658     1.0  0.76118  0.07597  0.57770  1.0000
  H   H1325     1.0  0.76438  0.08201  0.63697  1.0000
  H   H1326     1.0  0.72915  0.10706  0.62896  1.0000
  H   H1327     1.0  0.73465  0.09215  0.55537  1.0000
  H   H1328     1.0  0.77005  0.06733  0.56325  1.0000
  H   H1329     1.0  0.58370  0.16906  0.51619  1.0000
  C   C1659     1.0  0.76170  0.01007  0.75589  1.0000
  S   S240      1.0  0.97183  0.13986  0.63739  1.0000
  H   H1330     1.0  0.76675  0.02660  0.76370  1.0000
  H   H1331     1.0  0.97116  0.02784  0.66843  1.0000
  C   C1660     1.0  0.54030  0.14610  0.61881  1.0000
  C   C1661     1.0  0.56032  0.13280  0.61243  1.0000
  C   C1662     1.0  0.57848  0.14263  0.59843  1.0000
  C   C1663     1.0  0.57694  0.16604  0.59070  1.0000
  C   C1664     1.0  0.55685  0.17930  0.59693  1.0000
  C   C1665     1.0  0.53866  0.16946  0.61087  1.0000
  H   H1332     1.0  0.56183  0.11473  0.61841  1.0000
  H   H1333     1.0  0.59377  0.13216  0.59384  1.0000
  H   H1334     1.0  0.55538  0.19738  0.59102  1.0000
  H   H1335     1.0  0.52346  0.18001  0.61554  1.0000
  C   C1666     1.0  0.68083  0.07506  0.90379  1.0000
  C   C1667     1.0  0.65737  0.07646  0.89639  1.0000
  C   C1668     1.0  0.64788  0.05884  0.88175  1.0000
  C   C1669     1.0  0.66158  0.03949  0.87423  1.0000
  C   C1670     1.0  0.68492  0.03785  0.88199  1.0000
  C   C1671     1.0  0.69440  0.05547  0.89664  1.0000
  H   H1336     1.0  0.64663  0.09132  0.90168  1.0000
  H   H1337     1.0  0.62982  0.06041  0.87599  1.0000
  H   H1338     1.0  0.69580  0.02321  0.87643  1.0000
  H   H1339     1.0  0.71255  0.05411  0.90219  1.0000
  H   H1340     1.0  0.50317  0.20623  0.72037  1.0000
  H   H1341     1.0  0.69433  0.08458  0.71506  1.0000
  H   H1342     1.0  0.73703  0.00146  0.78384  1.0000
  P   P57       1.0  0.55910  0.22178  0.67285  1.0000
  C   C1672     1.0  0.60366  0.21626  0.90456  1.0000
  H   H1343     1.0  0.95303  0.05803  0.63974  1.0000
  C   C1673     1.0  0.73908  0.02404  0.62508  1.0000
  C   C1674     1.0  0.82929  0.16124  0.57702  1.0000
  C   C1675     1.0  0.84392  0.18035  0.50078  1.0000
  H   H1344     1.0  0.61220  0.08091  0.95090  1.0000
  C   C1676     1.0  0.77238  0.00306  0.73461  1.0000
  H   H1345     1.0  0.63041  0.04503  0.93392  1.0000
  C   C1677     1.0  0.80570  0.12613  0.58201  1.0000
  H   H1346     1.0  0.81837  0.19204  0.94665  1.0000
  C   C1678     1.0  0.81074  0.14692  0.56948  1.0000
  C   C1679     1.0  0.75177  0.00421  0.63240  1.0000
  H   H1347     1.0  0.51186  0.09845  0.75375  1.0000
  H   H1348     1.0  0.79082  0.11534  0.57735  1.0000
  H   H1349     1.0  0.91030  0.00655  0.68407  1.0000
  C   C1680     1.0  0.57380  0.15560  0.50728  1.0000
  C   C1681     1.0  0.59504  0.99715  0.83283  1.0000
  C   C1682     1.0  0.98338  0.04842  0.69727  1.0000
  C   C1683     1.0  0.73258  0.19967  0.57906  1.0000
  H   H1350     1.0  0.85792  0.16503  0.60151  1.0000
  C   C1684     1.0  0.80781  0.17188  0.52232  1.0000
  H   H1351     1.0  0.71789  0.20966  0.58605  1.0000
  C   C1685     1.0  0.98357  0.04112  0.67385  1.0000
  C   C1686     1.0  0.54990  0.19705  0.69079  1.0000
  H   H1352     1.0  0.66352  0.02545  0.95384  1.0000
  H   H1353     1.0  0.63708  0.09874  0.63567  1.0000
  C   C1687     1.0  0.53622  0.22875  0.65184  1.0000
  H   H1354     1.0  0.78089  0.07252  0.71683  1.0000
  C   C1688     1.0  0.49201  0.10945  0.54454  1.0000
  C   C1689     1.0  0.61465  0.06256  0.71740  1.0000
  H   H1355     1.0  0.49178  0.18184  0.78855  1.0000
  C   C1690     1.0  0.65901  0.22707  0.88584  1.0000
  H   H1356     1.0  0.96273  0.20128  0.65971  1.0000
  H   H1357     1.0  0.75139  0.14314  0.57357  1.0000
  C   C1691     1.0  0.63541  0.08155  0.98070  1.0000
  C   C1692     1.0  0.59061  0.21831  0.88357  1.0000
  C   C1693     1.0  0.75142  0.16213  0.57159  1.0000
  H   H1358     1.0  0.48933  0.04849  0.73839  1.0000
  P   P58       1.0  0.53739  0.18868  0.50123  1.0000
  C   C1694     1.0  0.51581  0.17005  0.54165  1.0000
  H   H1359     1.0  0.54679  0.03401  0.78503  1.0000
  C   C1695     1.0  0.64268  0.06815  0.65775  1.0000
  H   H1360     1.0  0.60224  0.03426  0.83431  1.0000
  C   C1696     1.0  0.51272  0.23035  0.65932  1.0000
  C   C1697     1.0  0.73069  0.21649  0.49259  1.0000
  H   H1361     1.0  0.74658  0.14865  0.52269  1.0000
  C   C1698     1.0  0.76927  0.17344  0.55874  1.0000
  C   C1699     1.0  0.73559  0.00830  0.67163  1.0000
  C   C1700     1.0  0.68000  0.00294  0.69544  1.0000
  C   C1701     1.0  0.69649  0.99060  0.98204  1.0000
  C   C1702     1.0  0.72320  0.00334  0.94263  1.0000
  C   C1703     1.0  0.50677  0.04119  0.74138  1.0000
  H   H1362     1.0  0.71842  0.03895  0.95378  1.0000
  C   C1704     1.0  0.49721  0.11837  0.78252  1.0000
  H   H1363     1.0  0.67764  0.20927  0.48828  1.0000
  C   C1705     1.0  0.60959  0.18477  0.63660  1.0000
  H   H1364     1.0  0.52570  0.15401  0.53856  1.0000
  C   C1706     1.0  0.51693  0.04241  0.76367  1.0000
  C   C1707     1.0  0.81982  0.11908  0.60090  1.0000
  C   C1708     1.0  0.83210  0.16843  0.51890  1.0000
  C   C1709     1.0  0.71453  0.07693  0.98259  1.0000
  H   H1365     1.0  0.63919  0.19806  0.61699  1.0000
  C   C1710     1.0  0.79535  0.18635  0.50648  1.0000
  C   C1711     1.0  0.56916  0.21233  0.52950  1.0000
  C   C1712     1.0  0.68960  0.08251  0.65950  1.0000
  C   C1713     1.0  0.73792  0.22424  0.97827  1.0000
  H   H1366     1.0  0.63783  0.00766  0.90855  1.0000
  C   C1714     1.0  0.95135  0.04421  0.62683  1.0000
  H   H1367     1.0  0.65971  0.04657  0.75342  1.0000
  C   C1715     1.0  0.55967  0.21055  0.50682  1.0000
  H   H1368     1.0  0.73299  0.00838  0.92699  1.0000
  H   H1369     1.0  0.74094  0.03048  0.60717  1.0000
  H   H1370     1.0  0.89401  0.23855  0.75811  1.0000
  H   H1371     1.0  0.98737  0.09063  0.62486  1.0000
  H   H1372     1.0  0.72650  0.23355  0.86652  1.0000
  H   H1373     1.0  0.71532  0.05155  0.63481  1.0000
  C   C1716     1.0  0.50570  0.21043  0.53189  1.0000
  H   H1374     1.0  0.75240  0.07739  0.49869  1.0000
  C   C1717     1.0  0.68833  0.00401  0.74380  1.0000
  C   C1718     1.0  0.59004  0.19041  0.65053  1.0000
  C   C1719     1.0  0.64971  0.08857  0.64583  1.0000
  H   H1375     1.0  0.62449  0.06256  0.65692  1.0000
  C   C1720     1.0  0.77943  0.13095  0.53100  1.0000
  H   H1376     1.0  0.90862  0.01601  0.59635  1.0000
  C   C1721     1.0  0.72284  0.02832  0.66444  1.0000
  C   C1722     1.0  0.64249  0.04638  0.74530  1.0000
  C   C1723     1.0  0.49888  0.11146  0.75902  1.0000
  H   H1377     1.0  0.68392  0.21754  0.91270  1.0000
  H   H1378     1.0  0.61262  0.16671  0.63129  1.0000
  H   H1379     1.0  0.55069  0.01255  0.71234  1.0000
  H   H1380     1.0  0.84189  0.15632  0.52996  1.0000
  H   H1381     1.0  0.61038  0.07522  0.70369  1.0000
  H   H1382     1.0  0.60208  0.13038  0.51052  1.0000
  H   H1383     1.0  0.70737  0.03577  0.73720  1.0000
  C   C1724     1.0  0.54143  0.02081  0.72683  1.0000
  Fe  Fe120     1.0  0.84805  0.99676  0.65164  1.0000
  H   H1384     1.0  0.49456  0.11065  0.50708  1.0000
  H   H1385     1.0  0.69217  0.00394  0.76247  1.0000
  C   C1725     1.0  0.51904  0.03044  0.72296  1.0000
  C   C1726     1.0  0.67574  0.23186  0.90301  1.0000
  C   C1727     1.0  0.55176  0.02184  0.74923  1.0000
  C   C1728     1.0  0.53937  0.03287  0.76760  1.0000
  C   C1729     1.0  0.60068  0.23166  0.64853  1.0000
  H   H1386     1.0  0.81042  0.10884  0.53467  1.0000
  H   H1387     1.0  0.50803  0.22666  0.67743  1.0000
  H   H1388     1.0  0.96084  0.21341  0.75285  1.0000
  Fe  Fe121     1.0  0.65884  0.14761  0.98541  1.0000
  H   H1389     1.0  0.94387  0.99733  0.57823  1.0000
  H   H1390     1.0  0.52213  0.14421  0.68635  1.0000
  C   C1730     1.0  0.97360  0.23029  0.68130  1.0000
  C   C1731     1.0  0.56783  0.22575  0.48899  1.0000
  H   H1391     1.0  0.81596  0.10280  0.61025  1.0000
  H   H1392     1.0  0.84176  0.00487  0.73820  1.0000
  H   H1393     1.0  0.92955  0.99455  0.64695  1.0000
  H   H1394     1.0  0.76257  0.10500  0.73956  1.0000
  C   C1732     1.0  0.81277  0.22734  0.93356  1.0000
  C   C1733     1.0  0.74993  0.99630  0.65567  1.0000
  C   C1734     1.0  0.62017  0.22593  0.63452  1.0000
  C   C1735     1.0  0.48895  0.19199  0.56663  1.0000
  H   H1395     1.0  0.70777  0.08819  0.65985  1.0000
  C   C1736     1.0  0.58687  0.22861  0.53417  1.0000
  C   C1737     1.0  0.55108  0.16002  0.49856  1.0000
  H   H1396     1.0  0.53320  0.17857  0.66217  1.0000
  C   C1738     1.0  0.92613  0.02086  0.60205  1.0000
  C   C1739     1.0  0.79265  0.11022  0.52794  1.0000
  H   H1397     1.0  0.58046  0.04698  0.71716  1.0000
  H   H1398     1.0  0.91348  0.04657  0.62689  1.0000
  C   C1740     1.0  0.74801  0.06034  0.70287  1.0000
  C   C1741     1.0  0.58434  0.13353  0.50422  1.0000
  C   C1742     1.0  0.53758  0.17832  0.68070  1.0000
  C   C1743     1.0  0.97790  0.22139  0.75016  1.0000
  C   C1744     1.0  0.68286  0.06162  0.67100  1.0000
  H   H1399     1.0  0.56445  0.21039  0.72333  1.0000
  C   C1745     1.0  0.97138  0.03282  0.61766  1.0000
  H   H1400     1.0  0.50732  0.05062  0.77798  1.0000
  C   C1746     1.0  0.93537  0.22762  0.66304  1.0000
  H   H1401     1.0  0.50781  0.22600  0.52098  1.0000
  C   C1747     1.0  0.62456  0.20250  0.62848  1.0000
  H   H1402     1.0  0.58815  0.20287  0.87285  1.0000
  H   H1403     1.0  0.59368  0.04133  0.79233  1.0000
  C   C1748     1.0  0.59201  0.02368  0.79945  1.0000
  H   H1404     1.0  0.67876  0.11135  0.63710  1.0000
  C   C1749     1.0  0.92884  0.03801  0.61930  1.0000
  C   C1750     1.0  0.67317  0.09576  0.64674  1.0000
  H   H1405     1.0  0.79295  0.07478  0.51465  1.0000
  H   H1406     1.0  0.84973  0.12737  0.62237  1.0000
  C   C1751     1.0  0.53114  0.15883  0.69441  1.0000
  C   C1752     1.0  0.72349  0.06351  0.70224  1.0000
  C   C1753     1.0  0.72463  0.03608  0.64098  1.0000
  H   H1407     1.0  0.75007  0.23007  0.56488  1.0000
  H   H1408     1.0  0.50909  0.10112  0.54667  1.0000
  C   C1754     1.0  0.69249  0.02185  0.70503  1.0000
  C   C1755     1.0  0.75165  0.09356  0.72908  1.0000
  H   H1409     1.0  0.73141  0.22475  0.90899  1.0000
  C   C1756     1.0  0.75681  0.13257  0.52124  1.0000
  C   C1757     1.0  0.62570  0.03005  0.75287  1.0000
  C   C1758     1.0  0.65917  0.05468  0.67029  1.0000
  H   H1410     1.0  0.65329  0.03890  0.67921  1.0000
  H   H1411     1.0  0.92294  0.21790  0.65249  1.0000
  C   C1759     1.0  0.48941  0.21847  0.79658  1.0000
  C   C1760     1.0  0.75071  0.21114  0.56698  1.0000
  C   C1761     1.0  0.69687  0.02209  0.72933  1.0000
  H   H1412     1.0  0.73401  0.10703  0.97040  1.0000
  C   C1762     1.0  0.63675  0.05182  0.95047  1.0000
  H   H1413     1.0  0.58088  0.09883  0.48980  1.0000
  H   H1414     1.0  0.71925  0.11097  0.73859  1.0000
  C   C1763     1.0  0.74378  0.23623  0.89997  1.0000
  C   C1764     1.0  0.83878  0.13297  0.60775  1.0000
  H   H1415     1.0  0.55197  0.17659  0.74734  1.0000
  H   H1416     1.0  0.53080  0.14330  0.72904  1.0000
  C   C1765     1.0  0.84341  0.15413  0.59593  1.0000
  H   H1417     1.0  0.83280  0.17791  0.56836  1.0000
  C   C1766     1.0  0.51766  0.18946  0.52630  1.0000
  C   C1767     1.0  0.74710  0.11328  0.50965  1.0000
  C   C1768     1.0  0.54820  0.17691  0.72868  1.0000
  C   C1769     1.0  0.53621  0.15822  0.71842  1.0000
  C   C1770     1.0  0.76199  0.07533  0.71624  1.0000
  C   C1771     1.0  0.96857  0.01643  0.59951  1.0000
  C   C1772     1.0  0.59667  0.01981  0.82329  1.0000
  H   H1418     1.0  0.71932  0.16632  0.59137  1.0000
  C   C1773     1.0  0.55522  0.19616  0.71491  1.0000
  C   C1774     1.0  0.65568  0.04084  0.96185  1.0000
  H   H1419     1.0  0.72392  0.19878  0.49133  1.0000
  P   P59       1.0  0.58098  0.00980  0.75387  1.0000
  H   H1420     1.0  0.78327  0.20736  0.54823  1.0000
  C   C1775     1.0  0.50166  0.17146  0.56181  1.0000
  H   H1421     1.0  0.50082  0.15677  0.57405  1.0000
  H   H1422     1.0  0.56332  0.20067  0.54351  1.0000
  C   C1776     1.0  0.72200  0.23155  0.51002  1.0000
  C   C1777     1.0  0.73319  0.17522  0.58174  1.0000
  C   C1778     1.0  0.51359  0.23436  0.74377  1.0000
  C   C1779     1.0  0.76922  0.19813  0.55716  1.0000
  C   C1780     1.0  0.71320  0.08191  0.71518  1.0000
  C   C1781     1.0  0.59768  0.04647  0.72515  1.0000
  C   C1782     1.0  0.49108  0.21153  0.55175  1.0000
  C   C1783     1.0  0.62655  0.07210  0.95995  1.0000
  P   P60       1.0  0.70500  0.04391  0.68567  1.0000
  H   H1423     1.0  0.75655  0.04622  0.69334  1.0000
  H   H1424     1.0  0.67727  0.00190  0.67662  1.0000
  H   H1425     1.0  0.79169  0.23779  0.51669  1.0000
  H   H1426     1.0  0.59455  0.22923  0.55160  1.0000
  H   H1427     1.0  0.57826  0.17640  0.65575  1.0000
  C   C1784     1.0  0.58549  0.21392  0.65672  1.0000
  C   C1785     1.0  0.63701  0.06259  0.72754  1.0000
  H   H1428     1.0  0.59940  0.99414  0.85115  1.0000
  H   H1429     1.0  0.93668  0.23045  0.95603  1.0000
  C   C1786     1.0  0.81940  0.21067  0.95052  1.0000
  H   H1430     1.0  0.65004  0.07524  0.72171  1.0000
  H   H1431     1.0  0.65393  0.20901  0.88242  1.0000
  H   H1432     1.0  0.98376  0.00857  0.59102  1.0000
  C   C1787     1.0  0.71497  0.02069  0.95802  1.0000
  H   H1433     1.0  0.62010  0.99151  0.94485  1.0000
  H   H1434     1.0  0.97063  0.04114  0.70950  1.0000
  H   H1435     1.0  0.48968  0.20636  0.48811  1.0000
  C   C1788     1.0  0.66463  0.05020  0.98282  1.0000
  C   C1789     1.0  0.70194  0.01443  0.97817  1.0000
  C   C1790     1.0  0.78287  0.09094  0.51642  1.0000
  H   H1436     1.0  0.86268  0.17772  0.49826  1.0000
  H   H1437     1.0  0.50834  0.22068  0.79768  1.0000
  H   H1438     1.0  0.63041  0.01749  0.76654  1.0000
  C   C1791     1.0  0.49503  0.23684  0.64351  1.0000
  C   C1792     1.0  0.94600  0.01024  0.59199  1.0000
  C   C1793     1.0  0.58577  0.00481  0.78492  1.0000
  H   H1439     1.0  0.77642  0.18844  0.50803  1.0000
  C   C1794     1.0  0.95777  0.21820  0.66712  1.0000
  H   H1440     1.0  0.92460  0.99053  0.72210  1.0000
  H   H1441     1.0  0.64296  0.99799  0.98576  1.0000
  H   H1442     1.0  0.83143  0.20513  0.98607  1.0000
  H   H1443     1.0  0.51113  0.02950  0.70567  1.0000
  C   C1795     1.0  0.49882  0.22350  0.72707  1.0000
  H   H1444     1.0  0.52923  0.22526  0.74977  1.0000
  H   H1445     1.0  0.73495  0.00228  0.68975  1.0000
  C   C1796     1.0  0.74475  0.99582  0.76737  1.0000
  C   C1797     1.0  0.92519  0.99448  0.68450  1.0000
  H   H1446     1.0  0.98003  0.22862  0.82108  1.0000
  C   C1798     1.0  0.82687  0.21800  0.97266  1.0000
  H   H1447     1.0  0.98165  0.18511  0.82207  1.0000
  C   C1799     1.0  0.73184  0.09420  0.98444  1.0000
  C   C1800     1.0  0.64486  0.99167  0.91642  1.0000
  C   C1801     1.0  0.57234  0.11570  0.49256  1.0000
  H   H1448     1.0  0.50890  0.11073  0.79554  1.0000
  H   H1449     1.0  0.61617  0.23514  0.93446  1.0000
  C   C1802     1.0  0.60651  0.23649  0.91820  1.0000
  H   H1450     1.0  0.76350  0.99539  0.62019  1.0000
  H   H1451     1.0  0.72943  0.11446  0.50262  1.0000
  H   H1452     1.0  0.60086  0.23651  0.69893  1.0000
  H   H1453     1.0  0.88306  0.99592  0.74914  1.0000
  H   H1454     1.0  0.55949  0.23160  0.62154  1.0000
  C   C1803     1.0  0.54163  0.23300  0.62803  1.0000
  C   C1804     1.0  0.80724  0.19823  0.48839  1.0000
  H   H1455     1.0  0.63948  0.28546  0.02376  1.0000
  S   S241      1.0  0.52361  0.34244  0.14606  1.0000
  P   P61       1.0  0.97863  0.36383  0.00952  1.0000
  S   S242      1.0  0.64793  0.46051  0.19287  1.0000
  Fe  Fe122     1.0  0.68238  0.42418  0.14464  1.0000
  S   S243      1.0  0.67562  0.41163  0.18179  1.0000
  S   S244      1.0  0.70158  0.39583  0.12211  1.0000
  Fe  Fe123     1.0  0.63839  0.42495  0.17760  1.0000
  S   S245      1.0  0.60499  0.40623  0.19167  1.0000
  Fe  Fe124     1.0  0.68588  0.44815  0.19341  1.0000
  S   S246      1.0  0.71511  0.44884  0.22170  1.0000
  S   S247      1.0  0.64430  0.43590  0.14000  1.0000
  Fe  Fe125     1.0  0.81619  0.28763  0.03004  1.0000
  S   S248      1.0  0.80821  0.32199  0.01165  1.0000
  C   C1805     1.0  0.96229  0.33823  0.01895  1.0000
  Fe  Fe126     1.0  0.86019  0.30795  0.05516  1.0000
  S   S249      1.0  0.85452  0.34345  0.03818  1.0000
  S   S250      1.0  0.89111  0.29544  0.07869  1.0000
  Fe  Fe127     1.0  0.81563  0.33897  0.04678  1.0000
  S   S251      1.0  0.79468  0.37117  0.06096  1.0000
  Fe  Fe128     1.0  0.84752  0.32354  0.00459  1.0000
  S   S252      1.0  0.82182  0.30440  0.06558  1.0000
  S   S253      1.0  0.85502  0.28826  0.02108  1.0000
  S   S254      1.0  0.85264  0.45598  0.35916  1.0000
  Fe  Fe129     1.0  0.85565  0.29391  0.43545  1.0000
  S   S255      1.0  0.81954  0.29885  0.41982  1.0000
  S   S256      1.0  0.88822  0.27772  0.41680  1.0000
  C   C1806     1.0  0.77309  0.24274  0.00842  1.0000
  S   S257      1.0  0.80315  0.32469  0.46882  1.0000
  Fe  Fe130     1.0  0.80554  0.28733  0.45554  1.0000
  S   S258      1.0  0.77947  0.25630  0.45735  1.0000
  Fe  Fe131     1.0  0.82053  0.33584  0.43449  1.0000
  S   S259      1.0  0.80631  0.36949  0.41634  1.0000
  S   S260      1.0  0.84179  0.28115  0.47043  1.0000
  S   S261      1.0  0.85737  0.33176  0.44809  1.0000
  H   H1456     1.0  0.74153  0.24854  0.42026  1.0000
  C   C1807     1.0  0.91591  0.28870  0.32758  1.0000
  C   C1808     1.0  0.66532  0.26005  0.01164  1.0000
  H   H1457     1.0  0.61135  0.48043  0.27243  1.0000
  C   C1809     1.0  0.93851  0.34062  0.02543  1.0000
  C   C1810     1.0  0.89353  0.25118  0.40045  1.0000
  H   H1458     1.0  0.84456  0.45015  0.30843  1.0000
  H   H1459     1.0  0.94375  0.27714  0.35106  1.0000
  H   H1460     1.0  0.84659  0.44219  0.26568  1.0000
  C   C1811     1.0  0.66460  0.26596  0.08579  1.0000
  H   H1461     1.0  0.59146  0.25408  0.48009  1.0000
  C   C1812     1.0  0.83940  0.43260  0.37585  1.0000
  C   C1813     1.0  0.81546  0.43243  0.38184  1.0000
  C   C1814     1.0  0.80584  0.41325  0.39461  1.0000
  C   C1815     1.0  0.81992  0.39395  0.40167  1.0000
  C   C1816     1.0  0.84395  0.39434  0.39610  1.0000
  C   C1817     1.0  0.85354  0.41347  0.38324  1.0000
  H   H1462     1.0  0.80428  0.44692  0.37634  1.0000
  H   H1463     1.0  0.78727  0.41319  0.39881  1.0000
  H   H1464     1.0  0.85507  0.37972  0.40135  1.0000
  H   H1465     1.0  0.87209  0.41337  0.37884  1.0000
  C   C1818     1.0  0.91426  0.30970  0.09439  1.0000
  C   C1819     1.0  0.91764  0.33412  0.09373  1.0000
  C   C1820     1.0  0.93647  0.34440  0.10617  1.0000
  C   C1821     1.0  0.95238  0.33051  0.11933  1.0000
  C   C1822     1.0  0.94881  0.30615  0.12026  1.0000
  C   C1823     1.0  0.93001  0.29585  0.10780  1.0000
  H   H1466     1.0  0.90569  0.34511  0.08368  1.0000
  H   H1467     1.0  0.93875  0.36328  0.10549  1.0000
  H   H1468     1.0  0.96046  0.29530  0.13068  1.0000
  H   H1469     1.0  0.92753  0.27699  0.10868  1.0000
  C   C1824     1.0  0.72949  0.46848  0.24150  1.0000
  C   C1825     1.0  0.97217  0.38712  0.03016  1.0000
  C   C1826     1.0  0.75174  0.46216  0.25051  1.0000
  H   H1470     1.0  0.59122  0.45307  0.20553  1.0000
  H   H1471     1.0  0.75982  0.44584  0.24493  1.0000
  C   C1827     1.0  0.72805  0.38949  0.10577  1.0000
  C   C1828     1.0  0.73364  0.36585  0.10044  1.0000
  C   C1829     1.0  0.75404  0.35984  0.08727  1.0000
  C   C1830     1.0  0.76908  0.37744  0.07871  1.0000
  C   C1831     1.0  0.76352  0.40108  0.08407  1.0000
  C   C1832     1.0  0.74331  0.40707  0.09753  1.0000
  H   H1472     1.0  0.72214  0.35202  0.10671  1.0000
  H   H1473     1.0  0.75808  0.34157  0.08375  1.0000
  H   H1474     1.0  0.77493  0.41493  0.07768  1.0000
  H   H1475     1.0  0.73941  0.42532  0.10136  1.0000
  H   H1476     1.0  0.93749  0.32016  0.29165  1.0000
  C   C1833     1.0  0.54586  0.36049  0.15904  1.0000
  C   C1834     1.0  0.56597  0.36653  0.14571  1.0000
  C   C1835     1.0  0.58414  0.38047  0.15527  1.0000
  C   C1836     1.0  0.58252  0.38866  0.17841  1.0000
  C   C1837     1.0  0.56230  0.38282  0.19166  1.0000
  C   C1838     1.0  0.54413  0.36889  0.18210  1.0000
  H   H1477     1.0  0.56763  0.36020  0.12788  1.0000
  H   H1478     1.0  0.59954  0.38463  0.14481  1.0000
  H   H1479     1.0  0.56068  0.38910  0.20951  1.0000
  H   H1480     1.0  0.52884  0.36457  0.19266  1.0000
  C   C1839     1.0  0.75744  0.24735  0.47804  1.0000
  H   H1481     1.0  0.96334  0.39538  0.08900  1.0000
  H   H1482     1.0  0.53113  0.45176  0.23970  1.0000
  C   C1840     1.0  0.52298  0.44344  0.22475  1.0000
  H   H1483     1.0  0.82388  0.47065  0.23360  1.0000
  S   S262      1.0  0.69358  0.46035  0.15628  1.0000
  C   C1841     1.0  0.97231  0.30641  0.21944  1.0000
  C   C1842     1.0  0.96074  0.32295  0.20524  1.0000
  C   C1843     1.0  0.96250  0.34694  0.21024  1.0000
  H   H1484     1.0  0.92370  0.35404  0.45881  1.0000
  Fe  Fe132     1.0  0.48913  0.32878  0.16250  1.0000
  H   H1485     1.0  0.97385  0.31318  0.34071  1.0000
  H   H1486     1.0  0.74316  0.44667  0.39724  1.0000
  C   C1844     1.0  0.80088  0.39312  0.47577  1.0000
  H   H1487     1.0  0.75730  0.29213  0.02560  1.0000
  C   C1845     1.0  0.82450  0.39995  0.47557  1.0000
  Fe  Fe133     1.0  0.84013  0.31925  0.48175  1.0000
  H   H1488     1.0  0.96834  0.27917  0.02856  1.0000
  H   H1489     1.0  0.54468  0.25608  0.26259  1.0000
  H   H1490     1.0  0.61242  0.25957  0.11482  1.0000
  C   C1846     1.0  0.61869  0.24999  0.07869  1.0000
  C   C1847     1.0  0.88183  0.40416  0.47989  1.0000
  C   C1848     1.0  0.81218  0.42635  0.26448  1.0000
  H   H1491     1.0  0.49447  0.41157  0.17199  1.0000
  C   C1849     1.0  0.98722  0.34695  0.29265  1.0000
  H   H1492     1.0  0.83634  0.39221  0.46272  1.0000
  C   C1850     1.0  0.96967  0.41059  0.02258  1.0000
  H   H1493     1.0  0.66825  0.24008  0.33133  1.0000
  H   H1494     1.0  0.90156  0.42633  0.45569  1.0000
  H   H1495     1.0  0.97205  0.27996  0.07769  1.0000
  C   C1851     1.0  0.96972  0.38179  0.05423  1.0000
  H   H1496     1.0  0.93079  0.25765  0.39722  1.0000
  H   H1497     1.0  0.95057  0.31723  0.19024  1.0000
  H   H1498     1.0  0.95360  0.35974  0.19912  1.0000
  H   H1499     1.0  0.89495  0.28929  0.22253  1.0000
  H   H1500     1.0  0.88649  0.25158  0.33099  1.0000
  C   C1852     1.0  0.95603  0.26290  0.30486  1.0000
  H   H1501     1.0  0.94184  0.37792  0.31729  1.0000
  H   H1502     1.0  0.94420  0.34498  0.34612  1.0000
  H   H1503     1.0  0.73930  0.45646  0.17855  1.0000
  H   H1504     1.0  0.96863  0.28603  0.27724  1.0000
  C   C1853     1.0  0.97983  0.24199  0.14320  1.0000
  H   H1505     1.0  0.49084  0.23978  0.19691  1.0000
  C   C1854     1.0  0.85853  0.46667  0.42996  1.0000
  H   H1506     1.0  0.56482  0.29920  0.20804  1.0000
  C   C1855     1.0  0.91226  0.36811  0.46484  1.0000
  H   H1507     1.0  0.57691  0.26216  0.22825  1.0000
  H   H1508     1.0  0.73573  0.37830  0.33798  1.0000
  C   C1856     1.0  0.97024  0.36474  0.29568  1.0000
  C   C1857     1.0  0.70705  0.42532  0.27768  1.0000
  H   H1509     1.0  0.97715  0.37309  0.23284  1.0000
  C   C1858     1.0  0.78181  0.34877  0.36237  1.0000
  C   C1859     1.0  0.75818  0.46227  0.33242  1.0000
  C   C1860     1.0  0.51610  0.44064  0.18283  1.0000
  H   H1510     1.0  0.97126  0.41529  0.00419  1.0000
  C   C1861     1.0  0.93641  0.29886  0.03392  1.0000
  C   C1862     1.0  0.75384  0.37405  0.34223  1.0000
  H   H1511     1.0  0.50392  0.48133  0.14025  1.0000
  C   C1863     1.0  0.52700  0.45191  0.20182  1.0000
  H   H1512     1.0  0.72255  0.23866  0.06273  1.0000
  H   H1513     1.0  0.80195  0.41848  0.13090  1.0000
  C   C1864     1.0  0.49823  0.41243  0.20953  1.0000
  H   H1514     1.0  0.49539  0.31240  0.09522  1.0000
  C   C1865     1.0  0.51035  0.26253  0.24753  1.0000
  C   C1866     1.0  0.97329  0.27289  0.29021  1.0000
  H   H1515     1.0  0.92997  0.34600  0.25741  1.0000
  C   C1867     1.0  0.67409  0.24806  0.99195  1.0000
  C   C1868     1.0  0.60329  0.46522  0.23887  1.0000
  H   H1516     1.0  0.79481  0.38005  0.46345  1.0000
  C   C1869     1.0  0.56853  0.44973  0.16249  1.0000
  C   C1870     1.0  0.58149  0.44610  0.14188  1.0000
  C   C1871     1.0  0.90856  0.28121  0.25701  1.0000
  H   H1517     1.0  0.51569  0.27828  0.23815  1.0000
  C   C1872     1.0  0.80182  0.48033  0.20428  1.0000
  S   S263      1.0  0.79479  0.25341  0.02825  1.0000
  C   C1873     1.0  0.72150  0.38584  0.27074  1.0000
  C   C1874     1.0  0.79707  0.47985  0.43066  1.0000
  H   H1518     1.0  0.51882  0.44681  0.16499  1.0000
  C   C1875     1.0  0.80216  0.46741  0.45131  1.0000
  C   C1876     1.0  0.72486  0.42885  0.29414  1.0000
  C   C1877     1.0  0.75179  0.48005  0.34811  1.0000
  H   H1519     1.0  0.90857  0.33069  0.22282  1.0000
  H   H1520     1.0  0.65324  0.27345  0.12120  1.0000
  H   H1521     1.0  0.98733  0.24907  0.19823  1.0000
  C   C1878     1.0  0.97305  0.31597  0.02026  1.0000
  C   C1879     1.0  0.95485  0.36406  0.31496  1.0000
  H   H1522     1.0  0.56390  0.43461  0.17320  1.0000
  C   C1880     1.0  0.55608  0.23987  0.20602  1.0000
  C   C1881     1.0  0.90915  0.24455  0.30090  1.0000
  C   C1882     1.0  0.91196  0.31929  0.23782  1.0000
  C   C1883     1.0  0.58745  0.46461  0.22015  1.0000
  H   H1523     1.0  0.90203  0.26339  0.25653  1.0000
  C   C1884     1.0  0.70546  0.40393  0.26585  1.0000
  C   C1885     1.0  0.78840  0.42692  0.14143  1.0000
  C   C1886     1.0  0.77222  0.38877  0.33462  1.0000
  H   H1524     1.0  0.74441  0.34300  0.36212  1.0000
  C   C1887     1.0  0.90433  0.29594  0.23764  1.0000
  H   H1525     1.0  0.58666  0.42840  0.13697  1.0000
  H   H1526     1.0  0.78554  0.33376  0.37368  1.0000
  C   C1888     1.0  0.92400  0.32791  0.25729  1.0000
  H   H1527     1.0  0.69217  0.40169  0.25241  1.0000
  C   C1889     1.0  0.92821  0.28799  0.34893  1.0000
  C   C1890     1.0  0.58273  0.48810  0.13511  1.0000
  C   C1891     1.0  0.89940  0.31425  0.36649  1.0000
  C   C1892     1.0  0.77207  0.46196  0.15992  1.0000
  H   H1528     1.0  0.85626  0.46350  0.41132  1.0000
  C   C1893     1.0  0.86206  0.45180  0.47003  1.0000
  C   C1894     1.0  0.96487  0.42840  0.03884  1.0000
  C   C1895     1.0  0.92068  0.28972  0.27667  1.0000
  H   H1529     1.0  0.90730  0.32297  0.03783  1.0000
  C   C1896     1.0  0.97617  0.35444  0.22918  1.0000
  C   C1897     1.0  0.85894  0.44777  0.44587  1.0000
  C   C1898     1.0  0.79542  0.38336  0.34129  1.0000
  C   C1899     1.0  0.92832  0.31321  0.27662  1.0000
  C   C1900     1.0  0.50211  0.42077  0.18670  1.0000
  C   C1901     1.0  0.74650  0.47449  0.37150  1.0000
  H   H1530     1.0  0.59928  0.46253  0.11260  1.0000
  H   H1531     1.0  0.69506  0.43959  0.27325  1.0000
  P   P62       1.0  0.76552  0.41574  0.31886  1.0000
  Fe  Fe134     1.0  0.65496  0.47107  0.15531  1.0000
  H   H1532     1.0  0.92981  0.35766  0.02480  1.0000
  C   C1902     1.0  0.92002  0.30087  0.36823  1.0000
  H   H1533     1.0  0.81799  0.35962  0.36062  1.0000
  C   C1903     1.0  0.59892  0.47988  0.25805  1.0000
  H   H1534     1.0  0.68247  0.27165  0.08903  1.0000
  H   H1535     1.0  0.72803  0.26018  0.02355  1.0000
  H   H1536     1.0  0.52208  0.25972  0.16069  1.0000
  H   H1537     1.0  0.85680  0.43003  0.43927  1.0000
  P   P63       1.0  0.92549  0.27161  0.30256  1.0000
  C   C1904     1.0  0.86376  0.47506  0.47806  1.0000
  C   C1905     1.0  0.62516  0.25890  0.10058  1.0000
  C   C1906     1.0  0.74713  0.45102  0.37908  1.0000
  H   H1538     1.0  0.89261  0.32333  0.38183  1.0000
  C   C1907     1.0  0.64814  0.26677  0.10415  1.0000
  C   C1908     1.0  0.75284  0.43311  0.36321  1.0000
  C   C1909     1.0  0.54268  0.28161  0.18315  1.0000
  C   C1910     1.0  0.56493  0.26152  0.21350  1.0000
  H   H1539     1.0  0.81295  0.42290  0.24578  1.0000
  H   H1540     1.0  0.97196  0.32318  0.07656  1.0000
  C   C1911     1.0  0.74119  0.41084  0.29907  1.0000
  C   C1912     1.0  0.75838  0.43862  0.33971  1.0000
  C   C1913     1.0  0.89106  0.23947  0.31705  1.0000
  C   C1914     1.0  0.65800  0.25778  0.06354  1.0000
  C   C1915     1.0  0.96256  0.24516  0.32094  1.0000
  H   H1541     1.0  0.67687  0.30508  0.05755  1.0000
  C   C1916     1.0  0.83105  0.43727  0.27563  1.0000
  H   H1542     1.0  0.87088  0.32519  0.34412  1.0000
  H   H1543     1.0  0.77794  0.41139  0.26839  1.0000
  P   P64       1.0  0.54609  0.47689  0.19672  1.0000
  H   H1544     1.0  0.62991  0.24188  0.04355  1.0000
  H   H1545     1.0  0.79636  0.47073  0.41399  1.0000
  H   H1546     1.0  0.49508  0.48668  0.19496  1.0000
  C   C1917     1.0  0.92564  0.32099  0.03276  1.0000
  C   C1918     1.0  0.89934  0.40883  0.46297  1.0000
  C   C1919     1.0  0.64616  0.27555  0.00893  1.0000
  C   C1920     1.0  0.96509  0.39964  0.07044  1.0000
  H   H1547     1.0  0.70634  0.33689  0.05921  1.0000
  H   H1548     1.0  0.75308  0.41509  0.36948  1.0000
  H   H1549     1.0  0.88521  0.30281  0.30977  1.0000
  C   C1921     1.0  0.55813  0.28239  0.20216  1.0000
  C   C1922     1.0  0.70058  0.27986  0.04126  1.0000
  C   C1923     1.0  0.72313  0.27674  0.03158  1.0000
  C   C1924     1.0  0.73964  0.29491  0.03239  1.0000
  C   C1925     1.0  0.73358  0.31655  0.04234  1.0000
  C   C1926     1.0  0.71095  0.32007  0.05143  1.0000
  C   C1927     1.0  0.69441  0.30188  0.05072  1.0000
  C   C1928     1.0  0.89528  0.30238  0.32591  1.0000
  C   C1929     1.0  0.50859  0.42381  0.22855  1.0000
  H   H1550     1.0  0.50331  0.42193  0.10010  1.0000
  H   H1551     1.0  0.95885  0.43674  0.07533  1.0000
  C   C1930     1.0  0.91432  0.39077  0.45531  1.0000
  C   C1931     1.0  0.73931  0.38924  0.28728  1.0000
  H   H1552     1.0  0.80989  0.39478  0.33660  1.0000
  C   C1932     1.0  0.79223  0.41986  0.27745  1.0000
  C   C1933     1.0  0.75866  0.35408  0.35597  1.0000
  C   C1934     1.0  0.56707  0.47868  0.22043  1.0000
  H   H1553     1.0  0.74650  0.33056  0.04309  1.0000
  H   H1554     1.0  0.92634  0.28379  0.04001  1.0000
  C   C1935     1.0  0.97288  0.32762  0.32817  1.0000
  H   H1555     1.0  0.78081  0.47165  0.27311  1.0000
  H   H1556     1.0  0.72044  0.36941  0.26124  1.0000
  H   H1557     1.0  0.96892  0.37915  0.28313  1.0000
  C   C1936     1.0  0.89537  0.36357  0.48219  1.0000
  H   H1558     1.0  0.72611  0.44592  0.30229  1.0000
  H   H1559     1.0  0.53754  0.29782  0.17425  1.0000
  H   H1560     1.0  0.97095  0.28780  0.21563  1.0000
  C   C1937     1.0  0.75133  0.42467  0.16238  1.0000
  H   H1561     1.0  0.76730  0.39552  0.14417  1.0000
  H   H1562     1.0  0.73611  0.41463  0.16810  1.0000
  S   S264      1.0  0.97682  0.34433  0.13337  1.0000
  H   H1563     1.0  0.80907  0.43999  0.33117  1.0000
  H   H1564     1.0  0.92753  0.39434  0.44198  1.0000
  C   C1938     1.0  0.80971  0.43600  0.31258  1.0000
  H   H1565     1.0  0.92904  0.29969  0.38497  1.0000
  C   C1939     1.0  0.96006  0.29632  0.02753  1.0000
  C   C1940     1.0  0.95619  0.34553  0.33123  1.0000
  C   C1941     1.0  0.63508  0.24925  0.06027  1.0000
  H   H1566     1.0  0.75201  0.37528  0.29034  1.0000
  C   C1942     1.0  0.75301  0.44852  0.16801  1.0000
  H   H1567     1.0  0.60097  0.24358  0.07601  1.0000
  C   C1943     1.0  0.88709  0.31511  0.34530  1.0000
  H   H1568     1.0  0.76274  0.46702  0.31453  1.0000
  H   H1569     1.0  0.80523  0.44855  0.45064  1.0000
  C   C1944     1.0  0.53383  0.26001  0.17562  1.0000
  C   C1945     1.0  0.82986  0.44191  0.29968  1.0000
  C   C1946     1.0  0.79084  0.42463  0.30166  1.0000
  C   C1947     1.0  0.76895  0.41389  0.14899  1.0000
  C   C1948     1.0  0.80016  0.36333  0.35493  1.0000
  C   C1949     1.0  0.96261  0.42294  0.06275  1.0000
  C   C1950     1.0  0.52675  0.24992  0.26146  1.0000
  H   H1570     1.0  0.83371  0.24759  0.99493  1.0000
  H   H1571     1.0  0.96282  0.44647  0.03290  1.0000
  P   P65       1.0  0.67925  0.25638  0.03989  1.0000
  H   H1572     1.0  0.49145  0.35549  0.09026  1.0000
  H   H1573     1.0  0.97134  0.36384  0.06057  1.0000
  H   H1574     1.0  0.80539  0.46055  0.14116  1.0000
  C   C1951     1.0  0.48852  0.42468  0.11189  1.0000
  C   C1952     1.0  0.58857  0.46528  0.12817  1.0000
  C   C1953     1.0  0.56242  0.47263  0.16960  1.0000
  H   H1575     1.0  0.97354  0.25437  0.15626  1.0000
  H   H1576     1.0  0.50577  0.41715  0.24623  1.0000
  C   C1954     1.0  0.79011  0.45082  0.14704  1.0000
  C   C1955     1.0  0.91662  0.24592  0.39272  1.0000
  C   C1956     1.0  0.76371  0.47679  0.26653  1.0000
  C   C1957     1.0  0.76475  0.25611  0.98939  1.0000
  C   C1958     1.0  0.98624  0.31387  0.23816  1.0000
  H   H1577     1.0  0.80587  0.46439  0.19473  1.0000
  H   H1578     1.0  0.61896  0.45423  0.23842  1.0000
  C   C1959     1.0  0.80390  0.47934  0.47269  1.0000
  H   H1579     1.0  0.68765  0.31751  0.00189  1.0000
  C   C1960     1.0  0.81211  0.48381  0.22630  1.0000
  H   H1580     1.0  0.74203  0.48840  0.38370  1.0000
  H   H1581     1.0  0.85779  0.23892  0.40066  1.0000
  C   C1961     1.0  0.98826  0.32823  0.30890  1.0000
  C   C1962     1.0  0.54008  0.23902  0.18728  1.0000
  Fe  Fe135     1.0  0.55006  0.30478  0.85075  1.0000
  S   S265      1.0  0.56692  0.30809  0.81502  1.0000
  S   S266      1.0  0.57008  0.28822  0.88248  1.0000
  Fe  Fe136     1.0  0.50674  0.33515  0.83398  1.0000
  S   S267      1.0  0.52175  0.33939  0.79740  1.0000
  Fe  Fe137     1.0  0.53071  0.30047  0.80017  1.0000
  S   S268      1.0  0.52816  0.26975  0.77359  1.0000
  Fe  Fe138     1.0  0.55650  0.34665  0.81577  1.0000
  S   S269      1.0  0.58220  0.37611  0.80353  1.0000
  S   S270      1.0  0.51420  0.29588  0.83613  1.0000
  S   S271      1.0  0.54108  0.34382  0.85209  1.0000
  S   S272      1.0  0.86335  0.33715  0.96959  1.0000
  S   S273      1.0  0.85373  0.33030  0.51810  1.0000
  S   S274      1.0  0.63572  0.46759  0.84398  1.0000
  Fe  Fe139     1.0  0.85450  0.42335  0.66879  1.0000
  S   S275      1.0  0.81844  0.40801  0.66253  1.0000
  S   S276      1.0  0.88490  0.40086  0.68482  1.0000
  S   S277      1.0  0.80481  0.45598  0.63366  1.0000
  Fe  Fe140     1.0  0.80449  0.44436  0.67174  1.0000
  S   S278      1.0  0.77060  0.44770  0.69410  1.0000
  Fe  Fe141     1.0  0.82208  0.42117  0.62511  1.0000
  S   S279      1.0  0.80912  0.40430  0.59079  1.0000
  S   S280      1.0  0.84041  0.45918  0.67949  1.0000
  S   S281      1.0  0.85861  0.43481  0.63057  1.0000
  S   S282      1.0  0.97711  0.28890  0.84233  1.0000
  Fe  Fe142     1.0  0.94210  0.33685  0.80661  1.0000
  S   S283      1.0  0.92789  0.30097  0.81600  1.0000
  S   S284      1.0  0.91626  0.36220  0.78742  1.0000
  Fe  Fe143     1.0  0.94247  0.30597  0.85235  1.0000
  S   S285      1.0  0.92546  0.29173  0.88647  1.0000
  Fe  Fe144     1.0  0.96363  0.28734  0.80514  1.0000
  S   S286      1.0  0.96242  0.25456  0.78188  1.0000
  S   S287      1.0  0.95451  0.34279  0.84413  1.0000
  C   C1963     1.0  0.93145  0.26492  0.97075  1.0000
  C   C1964     1.0  0.83255  0.41669  0.49170  1.0000
  H   H1582     1.0  0.73448  0.28964  0.55679  1.0000
  C   C1965     1.0  0.89316  0.39015  0.71353  1.0000
  C   C1966     1.0  0.87969  0.39448  0.73376  1.0000
  C   C1967     1.0  0.88705  0.38575  0.75597  1.0000
  C   C1968     1.0  0.90795  0.37244  0.75854  1.0000
  C   C1969     1.0  0.92147  0.36811  0.73830  1.0000
  C   C1970     1.0  0.91407  0.37679  0.71605  1.0000
  H   H1583     1.0  0.86360  0.40467  0.73233  1.0000
  H   H1584     1.0  0.87641  0.38940  0.77136  1.0000
  H   H1585     1.0  0.93780  0.35836  0.73982  1.0000
  H   H1586     1.0  0.92477  0.37333  0.70067  1.0000
  C   C1971     1.0  0.76000  0.46712  0.71657  1.0000
  C   C1972     1.0  0.73748  0.46326  0.72633  1.0000
  H   H1587     1.0  0.69469  0.25794  0.92144  1.0000
  H   H1588     1.0  0.72717  0.44856  0.72023  1.0000
  H   H1589     1.0  0.57486  0.29503  0.73891  1.0000
  C   C1973     1.0  0.82216  0.38371  0.57096  1.0000
  C   C1974     1.0  0.84346  0.37211  0.57565  1.0000
  C   C1975     1.0  0.85283  0.35582  0.55935  1.0000
  C   C1976     1.0  0.84126  0.35115  0.53802  1.0000
  C   C1977     1.0  0.82022  0.36304  0.53321  1.0000
  C   C1978     1.0  0.81054  0.37885  0.54974  1.0000
  H   H1590     1.0  0.85258  0.37550  0.59193  1.0000
  H   H1591     1.0  0.86918  0.34680  0.56328  1.0000
  H   H1592     1.0  0.81132  0.35993  0.51678  1.0000
  H   H1593     1.0  0.79394  0.38745  0.54603  1.0000
  H   H1594     1.0  0.81154  0.31355  0.88642  1.0000
  C   C1979     1.0  0.66711  0.32549  0.97104  1.0000
  C   C1980     1.0  0.80475  0.42311  0.92175  1.0000
  H   H1595     1.0  0.76681  0.39779  0.49180  1.0000
  C   C1981     1.0  0.87997  0.32386  0.94636  1.0000
  C   C1982     1.0  0.88768  0.33804  0.92742  1.0000
  C   C1983     1.0  0.90156  0.32864  0.90898  1.0000
  C   C1984     1.0  0.90770  0.30474  0.90905  1.0000
  C   C1985     1.0  0.89946  0.29042  0.92766  1.0000
  C   C1986     1.0  0.88574  0.29987  0.94620  1.0000
  H   H1596     1.0  0.88304  0.35654  0.92711  1.0000
  H   H1597     1.0  0.90744  0.33987  0.89471  1.0000
  H   H1598     1.0  0.90371  0.27184  0.92769  1.0000
  H   H1599     1.0  0.87963  0.28861  0.96036  1.0000
  C   C1987     1.0  0.52527  0.40974  0.81744  1.0000
  H   H1600     1.0  0.81534  0.40808  0.92717  1.0000
  H   H1601     1.0  0.73398  0.44592  0.91759  1.0000
  C   C1988     1.0  0.82440  0.25544  0.52327  1.0000
  C   C1989     1.0  0.59655  0.40166  0.81527  1.0000
  C   C1990     1.0  0.59365  0.40904  0.83860  1.0000
  C   C1991     1.0  0.60571  0.42912  0.84694  1.0000
  C   C1992     1.0  0.62074  0.44241  0.83217  1.0000
  C   C1993     1.0  0.62350  0.43511  0.80883  1.0000
  C   C1994     1.0  0.61150  0.41501  0.80050  1.0000
  H   H1602     1.0  0.58213  0.39925  0.85023  1.0000
  H   H1603     1.0  0.60344  0.43436  0.86504  1.0000
  H   H1604     1.0  0.63507  0.44480  0.79717  1.0000
  H   H1605     1.0  0.61395  0.40964  0.78244  1.0000
  C   C1995     1.0  0.50833  0.25683  0.75289  1.0000
  H   H1606     1.0  0.91378  0.26123  0.97702  1.0000
  C   C1996     1.0  0.97751  0.26991  0.59492  1.0000
  C   C1997     1.0  0.58318  0.26027  0.89011  1.0000
  H   H1607     1.0  0.84996  0.40996  0.53767  1.0000
  C   C1998     1.0  0.50108  0.40694  0.82061  1.0000
  C   C1999     1.0  0.82127  0.25873  0.96087  1.0000
  H   H1608     1.0  0.84810  0.24925  0.90516  1.0000
  H   H1609     1.0  0.59821  0.27351  0.92212  1.0000
  C   C2000     1.0  0.98679  0.34015  0.70330  1.0000
  H   H1610     1.0  0.60875  0.25615  0.52005  1.0000
  C   C2001     1.0  0.97660  0.27508  0.95328  1.0000
  C   C2002     1.0  0.79337  0.29909  0.93229  1.0000
  H   H1611     1.0  0.74096  0.47624  0.60792  1.0000
  C   C2003     1.0  0.98355  0.24211  0.76234  1.0000
  H   H1612     1.0  0.79674  0.43370  0.95723  1.0000
  C   C2004     1.0  0.88018  0.38150  0.48966  1.0000
  C   C2005     1.0  0.54980  0.48457  0.85174  1.0000
  H   H1613     1.0  0.93040  0.30104  0.98189  1.0000
  C   C2006     1.0  0.76962  0.30208  0.93861  1.0000
  C   C2007     1.0  0.77877  0.33922  0.95718  1.0000
  H   H1614     1.0  0.96101  0.34303  0.89587  1.0000
  C   C2008     1.0  0.77304  0.48627  0.72470  1.0000
  C   C2009     1.0  0.80973  0.31639  0.93863  1.0000
  H   H1615     1.0  0.84488  0.32465  0.86059  1.0000
  H   H1616     1.0  0.55408  0.43387  0.81591  1.0000
  H   H1617     1.0  0.63503  0.24184  0.86048  1.0000
  C   C2010     1.0  0.58530  0.24231  0.49384  1.0000
  C   C2011     1.0  0.94903  0.36401  0.97005  1.0000
  H   H1618     1.0  0.75556  0.25884  0.84574  1.0000
  H   H1619     1.0  0.77181  0.27350  0.98615  1.0000
  H   H1620     1.0  0.53631  0.39449  0.81408  1.0000
  H   H1621     1.0  0.78858  0.27630  0.86741  1.0000
  C   C2012     1.0  0.76240  0.32208  0.95104  1.0000
  C   C2013     1.0  0.98433  0.38764  0.96686  1.0000
  C   C2014     1.0  0.93699  0.26553  0.60809  1.0000
  C   C2015     1.0  0.73110  0.25453  0.51124  1.0000
  H   H1622     1.0  0.82830  0.31422  0.93464  1.0000
  H   H1623     1.0  0.75558  0.28007  0.49680  1.0000
  H   H1624     1.0  0.74405  0.25377  0.63597  1.0000
  H   H1625     1.0  0.49346  0.38953  0.81971  1.0000
  H   H1626     1.0  0.98676  0.27427  0.89325  1.0000
  H   H1627     1.0  0.74046  0.25762  0.96031  1.0000
  C   C2016     1.0  0.70205  0.30101  0.97102  1.0000
  C   C2017     1.0  0.91178  0.26046  0.73261  1.0000
  H   H1628     1.0  0.97937  0.26014  0.70313  1.0000
  C   C2018     1.0  0.97780  0.39459  0.94415  1.0000
  C   C2019     1.0  0.58062  0.24010  0.87630  1.0000
  C   C2020     1.0  0.78507  0.40317  0.49173  1.0000
  H   H1629     1.0  0.89611  0.44902  0.58197  1.0000
  C   C2021     1.0  0.71886  0.26802  0.58359  1.0000
  H   H1630     1.0  0.93745  0.35222  0.97953  1.0000
  C   C2022     1.0  0.73680  0.28197  0.57412  1.0000
  C   C2023     1.0  0.95691  0.38631  0.93441  1.0000
  H   H1631     1.0  0.63159  0.23970  0.62788  1.0000
  C   C2024     1.0  0.84689  0.26559  0.89535  1.0000
  H   H1632     1.0  0.74418  0.32419  0.95628  1.0000
  C   C2025     1.0  0.54642  0.26212  0.69822  1.0000
  C   C2026     1.0  0.82648  0.30173  0.88483  1.0000
  H   H1633     1.0  0.72419  0.26644  0.52429  1.0000
  H   H1634     1.0  0.52895  0.26045  0.69105  1.0000
  H   H1635     1.0  0.65448  0.33630  0.98047  1.0000
  C   C2027     1.0  0.81191  0.34722  0.62090  1.0000
  C   C2028     1.0  0.82827  0.33266  0.63217  1.0000
  C   C2029     1.0  0.83068  0.30915  0.62538  1.0000
  C   C2030     1.0  0.81660  0.30020  0.60741  1.0000
  C   C2031     1.0  0.80007  0.31476  0.59595  1.0000
  C   C2032     1.0  0.79794  0.33840  0.60282  1.0000
  P   P66       1.0  0.78125  0.30259  0.57348  1.0000
  C   C2033     1.0  0.75771  0.28561  0.58668  1.0000
  C   C2034     1.0  0.76765  0.32553  0.55592  1.0000
  C   C2035     1.0  0.74987  0.33968  0.56580  1.0000
  C   C2036     1.0  0.73855  0.35690  0.55221  1.0000
  C   C2037     1.0  0.79404  0.47045  0.55444  1.0000
  C   C2038     1.0  0.72144  0.25794  0.60591  1.0000
  C   C2039     1.0  0.77359  0.32858  0.53209  1.0000
  C   C2040     1.0  0.76017  0.27537  0.60910  1.0000
  H   H1636     1.0  0.55166  0.44740  0.86080  1.0000
  H   H1637     1.0  0.73573  0.37312  0.51798  1.0000
  H   H1638     1.0  0.71646  0.29271  0.98046  1.0000
  C   C2041     1.0  0.68579  0.31495  0.98312  1.0000
  C   C2042     1.0  0.79834  0.28367  0.55442  1.0000
  C   C2043     1.0  0.82233  0.28807  0.55046  1.0000
  C   C2044     1.0  0.83533  0.27387  0.53509  1.0000
  C   C2045     1.0  0.57226  0.28185  0.72546  1.0000
  H   H1639     1.0  0.82207  0.44035  0.51961  1.0000
  C   C2046     1.0  0.78746  0.26531  0.54222  1.0000
  H   H1640     1.0  0.81020  0.36553  0.62597  1.0000
  H   H1641     1.0  0.83903  0.33968  0.64614  1.0000
  H   H1642     1.0  0.84338  0.29788  0.63415  1.0000
  H   H1643     1.0  0.81853  0.28190  0.60248  1.0000
  H   H1644     1.0  0.78586  0.35036  0.59418  1.0000
  H   H1645     1.0  0.74481  0.33741  0.58407  1.0000
  H   H1646     1.0  0.72504  0.36791  0.56005  1.0000
  C   C2047     1.0  0.98019  0.31716  0.91589  1.0000
  H   H1647     1.0  0.86374  0.42033  0.57713  1.0000
  H   H1648     1.0  0.78723  0.31798  0.52391  1.0000
  H   H1649     1.0  0.77596  0.27787  0.61928  1.0000
  H   H1650     1.0  0.78065  0.42787  0.52003  1.0000
  C   C2048     1.0  0.56464  0.24648  0.69200  1.0000
  C   C2049     1.0  0.96342  0.29242  0.96506  1.0000
  H   H1651     1.0  0.53591  0.29116  0.72021  1.0000
  H   H1652     1.0  0.83092  0.30288  0.55866  1.0000
  H   H1653     1.0  0.85369  0.27779  0.53165  1.0000
  H   H1654     1.0  0.61479  0.48478  0.79019  1.0000
  H   H1655     1.0  0.95182  0.39165  0.91680  1.0000
  H   H1656     1.0  0.88407  0.27174  0.78461  1.0000
  H   H1657     1.0  0.59710  0.24998  0.65243  1.0000
  H   H1658     1.0  0.83432  0.24485  0.51087  1.0000
  C   C2050     1.0  0.80159  0.42808  0.89785  1.0000
  C   C2051     1.0  0.78803  0.44753  0.89084  1.0000
  C   C2052     1.0  0.92901  0.27493  0.58677  1.0000
  H   H1659     1.0  0.86504  0.47881  0.49660  1.0000
  C   C2053     1.0  0.50047  0.24076  0.61984  1.0000
  C   C2054     1.0  0.77759  0.46221  0.90777  1.0000
  C   C2055     1.0  0.89917  0.25631  0.75341  1.0000
  H   H1660     1.0  0.57060  0.24118  0.86019  1.0000
  H   H1661     1.0  0.58650  0.48594  0.82266  1.0000
  C   C2056     1.0  0.94439  0.24759  0.95896  1.0000
  C   C2057     1.0  0.97767  0.33860  0.90402  1.0000
  H   H1662     1.0  0.86711  0.37768  0.50304  1.0000
  C   C2058     1.0  0.89004  0.44460  0.56448  1.0000
  C   C2059     1.0  0.69756  0.45289  0.91079  1.0000
  C   C2060     1.0  0.77896  0.26051  0.90089  1.0000
  H   H1663     1.0  0.80974  0.41690  0.88472  1.0000
  C   C2061     1.0  0.81644  0.42696  0.50743  1.0000
  C   C2062     1.0  0.59054  0.26650  0.71932  1.0000
  C   C2063     1.0  0.84525  0.30806  0.87012  1.0000
  C   C2064     1.0  0.49669  0.44905  0.82603  1.0000
  H   H1664     1.0  0.63588  0.26824  0.95046  1.0000
  H   H1665     1.0  0.82007  0.45678  0.57851  1.0000
  H   H1666     1.0  0.77330  0.35445  0.96726  1.0000
  H   H1667     1.0  0.66979  0.24085  0.95518  1.0000
  H   H1668     1.0  0.60744  0.26795  0.72792  1.0000
  C   C2065     1.0  0.96707  0.25173  0.69149  1.0000
  H   H1669     1.0  0.82203  0.27718  0.96545  1.0000
  C   C2066     1.0  0.79430  0.43756  0.93869  1.0000
  C   C2067     1.0  0.86555  0.27194  0.88053  1.0000
  H   H1670     1.0  0.75343  0.46618  0.64852  1.0000
  H   H1671     1.0  0.81523  0.34941  0.95612  1.0000
  C   C2068     1.0  0.83522  0.48099  0.55338  1.0000
  C   C2069     1.0  0.82721  0.28049  0.89766  1.0000
  H   H1672     1.0  0.78581  0.45101  0.87224  1.0000
  P   P67       1.0  0.86249  0.42714  0.49031  1.0000
  C   C2070     1.0  0.74881  0.26235  0.49554  1.0000
  C   C2071     1.0  0.94486  0.26172  0.68690  1.0000
  C   C2072     1.0  0.96692  0.25259  0.95030  1.0000
  P   P68       1.0  0.93579  0.28923  0.70026  1.0000
  C   C2073     1.0  0.91913  0.28338  0.72679  1.0000
  C   C2074     1.0  0.96107  0.30639  0.70867  1.0000
  C   C2075     1.0  0.97405  0.29980  0.72862  1.0000
  C   C2076     1.0  0.74460  0.35986  0.52854  1.0000
  C   C2077     1.0  0.55028  0.27972  0.71482  1.0000
  C   C2078     1.0  0.63546  0.27835  0.98695  1.0000
  C   C2079     1.0  0.96751  0.32681  0.69611  1.0000
  C   C2080     1.0  0.91410  0.30184  0.74234  1.0000
  C   C2081     1.0  0.90098  0.29776  0.76275  1.0000
  C   C2082     1.0  0.59494  0.24362  0.51637  1.0000
  H   H1673     1.0  0.91498  0.46702  0.54675  1.0000
  H   H1674     1.0  0.90107  0.45704  0.50692  1.0000
  C   C2083     1.0  0.91887  0.30640  0.67925  1.0000
  C   C2084     1.0  0.92509  0.30594  0.65531  1.0000
  C   C2085     1.0  0.91334  0.32036  0.63905  1.0000
  C   C2086     1.0  0.89556  0.33567  0.64663  1.0000
  C   C2087     1.0  0.88938  0.33638  0.67041  1.0000
  C   C2088     1.0  0.90086  0.32177  0.68665  1.0000
  C   C2089     1.0  0.72151  0.45862  0.91069  1.0000
  C   C2090     1.0  0.87332  0.43403  0.51934  1.0000
  C   C2091     1.0  0.76266  0.24576  0.91230  1.0000
  C   C2092     1.0  0.80043  0.25134  0.52666  1.0000
  H   H1675     1.0  0.96892  0.28458  0.73900  1.0000
  H   H1676     1.0  0.74087  0.47053  0.85459  1.0000
  C   C2093     1.0  0.59626  0.25822  0.91110  1.0000
  C   C2094     1.0  0.77622  0.26524  0.87678  1.0000
  H   H1677     1.0  0.95749  0.33287  0.68111  1.0000
  H   H1678     1.0  0.92032  0.31946  0.73875  1.0000
  H   H1679     1.0  0.89697  0.31231  0.77442  1.0000
  S   S288      1.0  0.97759  0.32303  0.79485  1.0000
  C   C2095     1.0  0.80239  0.33641  0.95088  1.0000
  H   H1680     1.0  0.92644  0.36454  0.93976  1.0000
  H   H1681     1.0  0.93949  0.29493  0.64933  1.0000
  H   H1682     1.0  0.91837  0.32013  0.62065  1.0000
  H   H1683     1.0  0.88687  0.34740  0.63423  1.0000
  H   H1684     1.0  0.87612  0.34884  0.67645  1.0000
  H   H1685     1.0  0.89590  0.32318  0.70494  1.0000
  H   H1686     1.0  0.87962  0.29828  0.85704  1.0000
  C   C2096     1.0  0.89243  0.44934  0.52212  1.0000
  C   C2097     1.0  0.87175  0.42851  0.56179  1.0000
  C   C2098     1.0  0.97000  0.37229  0.98003  1.0000
  C   C2099     1.0  0.55576  0.48152  0.80046  1.0000
  C   C2100     1.0  0.68164  0.25511  0.90812  1.0000
  C   C2101     1.0  0.78968  0.48562  0.53541  1.0000
  C   C2102     1.0  0.94088  0.28737  0.97358  1.0000
  C   C2103     1.0  0.64405  0.26599  0.96752  1.0000
  C   C2104     1.0  0.86368  0.42296  0.53932  1.0000
  C   C2105     1.0  0.72906  0.48028  0.90129  1.0000
  H   H1687     1.0  0.93896  0.28823  0.55260  1.0000
  C   C2106     1.0  0.94518  0.28143  0.56934  1.0000
  C   C2107     1.0  0.81677  0.46826  0.56351  1.0000
  C   C2108     1.0  0.78075  0.45703  0.93175  1.0000
  H   H1688     1.0  0.76884  0.26211  0.54411  1.0000
  C   C2109     1.0  0.74401  0.33037  0.88875  1.0000
  C   C2110     1.0  0.74878  0.32153  0.86635  1.0000
  C   C2111     1.0  0.73229  0.30729  0.85520  1.0000
  C   C2112     1.0  0.71123  0.30144  0.86663  1.0000
  C   C2113     1.0  0.70641  0.31005  0.88924  1.0000
  C   C2114     1.0  0.72273  0.32501  0.90000  1.0000
  P   P69       1.0  0.67826  0.30418  0.90289  1.0000
  C   C2115     1.0  0.67064  0.27394  0.89627  1.0000
  C   C2116     1.0  0.68080  0.30798  0.93445  1.0000
  C   C2117     1.0  0.69979  0.29782  0.94677  1.0000
  H   H1689     1.0  0.71078  0.47483  0.75115  1.0000
  P   P70       1.0  0.80323  0.27285  0.91721  1.0000
  C   C2118     1.0  0.72811  0.47815  0.74394  1.0000
  C   C2119     1.0  0.66452  0.32196  0.94685  1.0000
  H   H1690     1.0  0.89377  0.34603  0.48966  1.0000
  C   C2120     1.0  0.65427  0.26889  0.87850  1.0000
  C   C2121     1.0  0.65631  0.32403  0.89069  1.0000
  C   C2122     1.0  0.66295  0.34320  0.87636  1.0000
  C   C2123     1.0  0.64578  0.35752  0.86582  1.0000
  C   C2124     1.0  0.62192  0.35290  0.86954  1.0000
  C   C2125     1.0  0.61518  0.33423  0.88415  1.0000
  C   C2126     1.0  0.63224  0.31985  0.89470  1.0000
  H   H1691     1.0  0.75664  0.34170  0.89727  1.0000
  H   H1692     1.0  0.76511  0.32599  0.85747  1.0000
  H   H1693     1.0  0.73575  0.30085  0.83762  1.0000
  H   H1694     1.0  0.69855  0.29054  0.85766  1.0000
  H   H1695     1.0  0.71897  0.33280  0.91693  1.0000
  H   H1696     1.0  0.71310  0.28769  0.93765  1.0000
  H   H1697     1.0  0.66249  0.46415  0.90120  1.0000
  C   C2127     1.0  0.75744  0.25541  0.86440  1.0000
  C   C2128     1.0  0.55615  0.46515  0.86581  1.0000
  H   H1698     1.0  0.64987  0.33034  0.93800  1.0000
  H   H1699     1.0  0.97027  0.31007  0.96704  1.0000
  H   H1700     1.0  0.64578  0.28275  0.86846  1.0000
  H   H1701     1.0  0.68128  0.34700  0.87293  1.0000
  H   H1702     1.0  0.65086  0.37202  0.85439  1.0000
  H   H1703     1.0  0.60862  0.36359  0.86086  1.0000
  H   H1704     1.0  0.59663  0.33058  0.88684  1.0000
  H   H1705     1.0  0.62656  0.30506  0.90544  1.0000
  C   C2129     1.0  0.76204  0.34566  0.51848  1.0000
  H   H1706     1.0  0.75674  0.28891  0.93427  1.0000
  H   H1707     1.0  0.77271  0.46804  0.94510  1.0000
  Fe  Fe145     1.0  0.84110  0.46914  0.64065  1.0000
  H   H1708     1.0  0.85270  0.47967  0.56084  1.0000
  C   C2130     1.0  0.52110  0.45198  0.82307  1.0000
  H   H1709     1.0  0.91609  0.24567  0.72150  1.0000
  H   H1710     1.0  0.76468  0.24128  0.93068  1.0000
  C   C2131     1.0  0.74205  0.26164  0.61867  1.0000
  C   C2132     1.0  0.90054  0.45484  0.54464  1.0000
  C   C2133     1.0  0.53525  0.43213  0.81854  1.0000
  C   C2134     1.0  0.96933  0.27866  0.57327  1.0000
  C   C2135     1.0  0.79283  0.42015  0.50752  1.0000
  H   H1711     1.0  0.77983  0.46053  0.56246  1.0000
  C   C2136     1.0  0.94261  0.37099  0.94733  1.0000
  C   C2137     1.0  0.57992  0.48405  0.80494  1.0000
  C   C2138     1.0  0.74706  0.24701  0.97468  1.0000
  C   C2139     1.0  0.68100  0.46874  0.90165  1.0000
  H   H1712     1.0  0.62052  0.29013  0.98491  1.0000
  C   C2140     1.0  0.86479  0.29317  0.86800  1.0000
  H   H1713     1.0  0.96528  0.30535  0.91649  1.0000
  H   H1714     1.0  0.88102  0.26074  0.87920  1.0000
  C   C2141     1.0  0.58676  0.24882  0.70274  1.0000
  H   H1715     1.0  0.91028  0.27681  0.58356  1.0000
  C   C2142     1.0  0.96116  0.26296  0.61219  1.0000
  C   C2143     1.0  0.64836  0.24557  0.87351  1.0000
  H   H1716     1.0  0.69181  0.43604  0.91770  1.0000
  C   C2144     1.0  0.89363  0.27497  0.76840  1.0000
  C   C2145     1.0  0.81301  0.25149  0.93883  1.0000
  C   C2146     1.0  0.66329  0.25079  0.97007  1.0000
  H   H1717     1.0  0.57416  0.45337  0.89702  1.0000
  C   C2147     1.0  0.59619  0.48330  0.78647  1.0000
  C   C2148     1.0  0.56898  0.46847  0.88646  1.0000
  P   P71       1.0  0.53457  0.48075  0.82422  1.0000
  H   H1718     1.0  0.76676  0.34795  0.50013  1.0000
  H   H1719     1.0  0.77190  0.48736  0.52882  1.0000
  H   H1720     1.0  0.96700  0.25511  0.62858  1.0000
  H   H1721     1.0  0.92440  0.25994  0.62132  1.0000
  H   H1722     1.0  0.91132  0.25612  0.66992  1.0000
  H   H1723     1.0  0.70306  0.26478  0.57346  1.0000
  H   H1724     1.0  0.80830  0.46950  0.48832  1.0000
  H   H1725     1.0  0.74831  0.48163  0.81320  1.0000
  C   C2149     1.0  0.75400  0.48376  0.85066  1.0000
  C   C2150     1.0  0.92890  0.24926  0.67289  1.0000
  P   P72       1.0  0.76001  0.48743  0.89918  1.0000
  H   H1726     1.0  0.98162  0.28307  0.55930  1.0000
  H   H1727     1.0  0.60137  0.47875  0.74926  1.0000
  C   C2151     1.0  0.75395  0.48431  0.64239  1.0000
  H   H1728     1.0  0.52984  0.47459  0.77363  1.0000
  C   C2152     1.0  0.54829  0.47754  0.77732  1.0000
  H   H1729     1.0  0.55880  0.47356  0.74108  1.0000
  C   C2153     1.0  0.58860  0.47975  0.76344  1.0000
  C   C2154     1.0  0.56465  0.47684  0.75886  1.0000
  C   C2155     1.0  0.82812  0.24199  0.97767  1.0000
  C   C2156     1.0  0.74110  0.24111  0.87604  1.0000
  H   H1730     1.0  0.70750  0.24714  0.61325  1.0000
  H   H1731     1.0  0.52799  0.24147  0.59367  1.0000
  H   H1732     1.0  0.97644  0.23905  0.94083  1.0000
  C   C2157     1.0  0.52376  0.23871  0.61207  1.0000
  S   S289      1.0  0.85108  0.63365  0.46881  1.0000
  C   C2158     1.0  0.80986  0.67768  0.03449  1.0000
  S   S290      1.0  0.64124  0.50600  0.13907  1.0000
  H   H1733     1.0  0.80746  0.60582  0.46820  1.0000
  Fe  Fe146     1.0  0.80211  0.51839  0.31562  1.0000
  S   S291      1.0  0.83718  0.50206  0.30614  1.0000
  S   S292      1.0  0.76764  0.51745  0.29419  1.0000
  Fe  Fe147     1.0  0.82209  0.54065  0.36149  1.0000
  S   S293      1.0  0.85796  0.52534  0.35433  1.0000
  S   S294      1.0  0.80986  0.55823  0.39606  1.0000
  Fe  Fe148     1.0  0.85296  0.53712  0.31630  1.0000
  S   S295      1.0  0.88415  0.55686  0.29831  1.0000
  C   C2159     1.0  0.51347  0.51750  0.13578  1.0000
  S   S296      1.0  0.81770  0.55405  0.32420  1.0000
  S   S297      1.0  0.80350  0.50650  0.35359  1.0000
  Fe  Fe149     1.0  0.96633  0.67842  0.18705  1.0000
  H   H1734     1.0  0.96884  0.57051  0.08847  1.0000
  Fe  Fe150     1.0  0.94263  0.66490  0.13907  1.0000
  S   S298      1.0  0.95385  0.62718  0.14329  1.0000
  S   S299      1.0  0.92330  0.67943  0.10615  1.0000
  Fe  Fe151     1.0  0.94264  0.62998  0.18166  1.0000
  S   S300      1.0  0.91567  0.60463  0.19937  1.0000
  S   S301      1.0  0.92968  0.66726  0.17663  1.0000
  S   S302      1.0  0.97815  0.68010  0.14896  1.0000
  S   S303      1.0  0.86433  0.63117  0.02283  1.0000
  Fe  Fe152     1.0  0.55734  0.62442  0.16819  1.0000
  S   S304      1.0  0.54187  0.63091  0.13238  1.0000
  S   S305      1.0  0.57828  0.59135  0.18020  1.0000
  Fe  Fe153     1.0  0.53325  0.66984  0.18791  1.0000
  S   S306      1.0  0.51620  0.67824  0.15312  1.0000
  S   S307      1.0  0.53286  0.69477  0.21979  1.0000
  Fe  Fe154     1.0  0.50809  0.63918  0.15170  1.0000
  Fe  Fe155     1.0  0.55156  0.66944  0.13687  1.0000
  S   S308      1.0  0.56904  0.68933  0.10549  1.0000
  S   S309      1.0  0.52300  0.63140  0.18746  1.0000
  S   S310      1.0  0.56908  0.66235  0.17172  1.0000
  C   C2160     1.0  0.51137  0.71245  0.23473  1.0000
  H   H1735     1.0  0.86555  0.51172  0.46826  1.0000
  C   C2161     1.0  0.58305  0.71662  0.09744  1.0000
  C   C2162     1.0  0.59156  0.71964  0.07427  1.0000
  H   H1736     1.0  0.93001  0.73153  0.19700  1.0000
  H   H1737     1.0  0.58980  0.70537  0.06190  1.0000
  C   C2163     1.0  0.75359  0.49809  0.27383  1.0000
  C   C2164     1.0  0.50255  0.54593  0.19466  1.0000
  C   C2165     1.0  0.98711  0.63804  0.25746  1.0000
  H   H1738     1.0  0.94628  0.64516  0.03408  1.0000
  C   C2166     1.0  0.90873  0.66499  0.08230  1.0000
  C   C2167     1.0  0.90276  0.67813  0.06201  1.0000
  C   C2168     1.0  0.88986  0.66799  0.04339  1.0000
  C   C2169     1.0  0.88244  0.64451  0.04483  1.0000
  C   C2170     1.0  0.88890  0.63124  0.06487  1.0000
  C   C2171     1.0  0.90199  0.64131  0.08338  1.0000
  H   H1739     1.0  0.90790  0.69641  0.06085  1.0000
  H   H1740     1.0  0.88507  0.67847  0.02818  1.0000
  H   H1741     1.0  0.88344  0.61306  0.06626  1.0000
  H   H1742     1.0  0.90640  0.63087  0.09874  1.0000
  C   C2172     1.0  0.89228  0.57020  0.27058  1.0000
  C   C2173     1.0  0.91464  0.58074  0.26826  1.0000
  C   C2174     1.0  0.92193  0.59178  0.24699  1.0000
  C   C2175     1.0  0.90712  0.59207  0.22733  1.0000
  C   C2176     1.0  0.88482  0.58138  0.22959  1.0000
  C   C2177     1.0  0.87738  0.57072  0.25100  1.0000
  H   H1743     1.0  0.92650  0.58018  0.28305  1.0000
  H   H1744     1.0  0.93921  0.59958  0.24563  1.0000
  H   H1745     1.0  0.87317  0.58131  0.21460  1.0000
  H   H1746     1.0  0.86018  0.56272  0.25225  1.0000
  H   H1747     1.0  0.62946  0.66889  0.07444  1.0000
  H   H1748     1.0  0.58891  0.50296  0.12480  1.0000
  C   C2178     1.0  0.62323  0.52917  0.15093  1.0000
  C   C2179     1.0  0.61453  0.54684  0.13567  1.0000
  C   C2180     1.0  0.60039  0.56562  0.14410  1.0000
  C   C2181     1.0  0.59509  0.56738  0.16812  1.0000
  C   C2182     1.0  0.60367  0.54961  0.18335  1.0000
  C   C2183     1.0  0.61743  0.53057  0.17485  1.0000
  H   H1749     1.0  0.61873  0.54597  0.11713  1.0000
  H   H1750     1.0  0.59379  0.57879  0.13200  1.0000
  H   H1751     1.0  0.59976  0.55064  0.20195  1.0000
  H   H1752     1.0  0.62379  0.51715  0.18687  1.0000
  C   C2184     1.0  0.96943  0.63442  0.36303  1.0000
  C   C2185     1.0  0.73132  0.50438  0.26484  1.0000
  C   C2186     1.0  0.90194  0.64358  0.35846  1.0000
  C   C2187     1.0  0.49125  0.71782  0.10497  1.0000
  H   H1753     1.0  0.72319  0.52071  0.27036  1.0000
  C   C2188     1.0  0.83873  0.61353  0.44820  1.0000
  C   C2189     1.0  0.85130  0.60818  0.42745  1.0000
  C   C2190     1.0  0.84285  0.59139  0.41129  1.0000
  C   C2191     1.0  0.82157  0.57976  0.41558  1.0000
  C   C2192     1.0  0.80886  0.58535  0.43616  1.0000
  C   C2193     1.0  0.81729  0.60210  0.45232  1.0000
  H   H1754     1.0  0.86791  0.61681  0.42406  1.0000
  H   H1755     1.0  0.85286  0.58733  0.39560  1.0000
  H   H1756     1.0  0.79241  0.57652  0.43971  1.0000
  C   C2194     1.0  0.97742  0.60740  0.04177  1.0000
  H   H1757     1.0  0.84456  0.69310  0.42659  1.0000
  H   H1758     1.0  0.74548  0.63666  0.13165  1.0000
  S   S311      1.0  0.96809  0.70331  0.21898  1.0000
  C   C2195     1.0  0.97664  0.60660  0.28442  1.0000
  C   C2196     1.0  0.72996  0.50421  0.18686  1.0000
  C   C2197     1.0  0.88469  0.72870  0.01259  1.0000
  H   H1759     1.0  0.49239  0.56213  0.19391  1.0000
  H   H1760     1.0  0.51817  0.55510  0.13301  1.0000
  C   C2198     1.0  0.49112  0.52419  0.19456  1.0000
  H   H1761     1.0  0.75971  0.60433  0.44601  1.0000
  H   H1762     1.0  0.81487  0.64609  0.05511  1.0000
  C   C2199     1.0  0.75213  0.60202  0.48289  1.0000
  C   C2200     1.0  0.72603  0.61522  0.37822  1.0000
  C   C2201     1.0  0.74572  0.60250  0.37055  1.0000
  C   C2202     1.0  0.76736  0.60542  0.38168  1.0000
  C   C2203     1.0  0.76938  0.62100  0.40049  1.0000
  C   C2204     1.0  0.74976  0.63413  0.40809  1.0000
  C   C2205     1.0  0.72798  0.63093  0.39697  1.0000
  P   P73       1.0  0.75253  0.65408  0.43256  1.0000
  C   C2206     1.0  0.50730  0.68160  0.08870  1.0000
  C   C2207     1.0  0.78129  0.66746  0.43096  1.0000
  C   C2208     1.0  0.79489  0.67040  0.45129  1.0000
  C   C2209     1.0  0.81750  0.67989  0.44962  1.0000
  C   C2210     1.0  0.82676  0.68641  0.42776  1.0000
  C   C2211     1.0  0.81330  0.68373  0.40747  1.0000
  C   C2212     1.0  0.79064  0.67430  0.40904  1.0000
  H   H1763     1.0  0.55472  0.72966  0.17231  1.0000
  C   C2213     1.0  0.79320  0.50415  0.43146  1.0000
  C   C2214     1.0  0.74927  0.63823  0.46001  1.0000
  H   H1764     1.0  0.73934  0.66915  0.48003  1.0000
  C   C2215     1.0  0.87124  0.66825  0.23599  1.0000
  C   C2216     1.0  0.72991  0.67656  0.43075  1.0000
  C   C2217     1.0  0.70733  0.67210  0.43992  1.0000
  C   C2218     1.0  0.68992  0.68960  0.43931  1.0000
  C   C2219     1.0  0.98735  0.72545  0.22998  1.0000
  C   C2220     1.0  0.78639  0.49731  0.19486  1.0000
  C   C2221     1.0  0.73459  0.69863  0.42051  1.0000
  H   H1765     1.0  0.70922  0.61284  0.36962  1.0000
  H   H1766     1.0  0.74426  0.59027  0.35607  1.0000
  H   H1767     1.0  0.78260  0.59544  0.37582  1.0000
  H   H1768     1.0  0.78627  0.62270  0.40910  1.0000
  H   H1769     1.0  0.71250  0.64052  0.40264  1.0000
  H   H1770     1.0  0.78840  0.66499  0.46841  1.0000
  C   C2222     1.0  0.49732  0.49906  0.13790  1.0000
  H   H1771     1.0  0.96481  0.66867  0.25790  1.0000
  H   H1772     1.0  0.78053  0.67204  0.39312  1.0000
  H   H1773     1.0  0.89243  0.72361  0.02924  1.0000
  H   H1774     1.0  0.77308  0.70846  0.48009  1.0000
  H   H1775     1.0  0.64779  0.73307  0.10856  1.0000
  Fe  Fe156     1.0  0.83908  0.49177  0.34483  1.0000
  C   C2223     1.0  0.96187  0.72974  0.31647  1.0000
  H   H1776     1.0  0.70325  0.65521  0.44785  1.0000
  C   C2224     1.0  0.98085  0.68121  0.07210  1.0000
  C   C2225     1.0  0.61830  0.71599  0.16715  1.0000
  H   H1777     1.0  0.97971  0.58905  0.29138  1.0000
  H   H1778     1.0  0.96905  0.67052  0.32141  1.0000
  C   C2226     1.0  0.66599  0.70914  0.15658  1.0000
  C   C2227     1.0  0.88864  0.62345  0.35402  1.0000
  C   C2228     1.0  0.88744  0.61455  0.33122  1.0000
  C   C2229     1.0  0.89950  0.62574  0.31284  1.0000
  C   C2230     1.0  0.91308  0.64583  0.31714  1.0000
  C   C2231     1.0  0.78154  0.51783  0.20775  1.0000
  P   P74       1.0  0.92834  0.65994  0.29295  1.0000
  C   C2232     1.0  0.94088  0.68754  0.30218  1.0000
  H   H1779     1.0  0.92417  0.67040  0.34394  1.0000
  C   C2233     1.0  0.95288  0.64230  0.28290  1.0000
  C   C2234     1.0  0.83693  0.67427  0.06707  1.0000
  C   C2235     1.0  0.85328  0.56582  0.47965  1.0000
  C   C2236     1.0  0.86091  0.48971  0.43802  1.0000
  C   C2237     1.0  0.83433  0.71095  0.04494  1.0000
  C   C2238     1.0  0.80216  0.51371  0.10323  1.0000
  C   C2239     1.0  0.80699  0.50414  0.23909  1.0000
  H   H1780     1.0  0.73704  0.49652  0.20277  1.0000
  H   H1781     1.0  0.79701  0.66982  0.02297  1.0000
  C   C2240     1.0  0.72865  0.64531  0.12886  1.0000
  C   C2241     1.0  0.90667  0.66413  0.27011  1.0000
  C   C2242     1.0  0.91029  0.65526  0.24735  1.0000
  C   C2243     1.0  0.89260  0.65733  0.23044  1.0000
  H   H1782     1.0  0.74312  0.51425  0.12915  1.0000
  H   H1783     1.0  0.86147  0.57125  0.46325  1.0000
  C   C2244     1.0  0.88498  0.67480  0.27565  1.0000
  H   H1784     1.0  0.90266  0.65053  0.37615  1.0000
  H   H1785     1.0  0.87917  0.61475  0.36820  1.0000
  H   H1786     1.0  0.87716  0.59890  0.32771  1.0000
  H   H1787     1.0  0.95725  0.66347  0.38409  1.0000
  H   H1788     1.0  0.83120  0.54093  0.46302  1.0000
  H   H1789     1.0  0.76923  0.69978  0.00178  1.0000
  C   C2245     1.0  0.91415  0.65477  0.34011  1.0000
  C   C2246     1.0  0.97609  0.65965  0.01484  1.0000
  H   H1790     1.0  0.82057  0.68855  0.39049  1.0000
  C   C2247     1.0  0.86742  0.67701  0.25860  1.0000
  H   H1791     1.0  0.75181  0.70276  0.41354  1.0000
  H   H1792     1.0  0.91605  0.71026  0.28393  1.0000
  C   C2248     1.0  0.59842  0.62762  0.10460  1.0000
  C   C2249     1.0  0.80694  0.52567  0.15061  1.0000
  H   H1793     1.0  0.80918  0.53060  0.16881  1.0000
  H   H1794     1.0  0.92638  0.64617  0.24256  1.0000
  H   H1795     1.0  0.89532  0.64992  0.21311  1.0000
  C   C2250     1.0  0.82055  0.53704  0.13343  1.0000
  C   C2251     1.0  0.81974  0.66439  0.05274  1.0000
  H   H1796     1.0  0.88155  0.68107  0.29329  1.0000
  C   C2252     1.0  0.62415  0.65799  0.08916  1.0000
  H   H1797     1.0  0.74397  0.67854  0.11900  1.0000
  H   H1798     1.0  0.71975  0.72798  0.06254  1.0000
  H   H1799     1.0  0.91747  0.65392  0.00293  1.0000
  H   H1800     1.0  0.98743  0.70768  0.33372  1.0000
  H   H1801     1.0  0.81544  0.72163  0.48595  1.0000
  C   C2253     1.0  0.64878  0.69905  0.14220  1.0000
  C   C2254     1.0  0.62488  0.70295  0.14741  1.0000
  P   P75       1.0  0.65701  0.68229  0.11651  1.0000
  C   C2255     1.0  0.68493  0.66759  0.12156  1.0000
  C   C2256     1.0  0.63418  0.66080  0.11150  1.0000
  H   H1802     1.0  0.86046  0.50431  0.42561  1.0000
  C   C2257     1.0  0.93571  0.65910  0.00061  1.0000
  C   C2258     1.0  0.57849  0.49368  0.25867  1.0000
  H   H1803     1.0  0.97425  0.60827  0.02302  1.0000
  H   H1804     1.0  0.85755  0.66949  0.22283  1.0000
  C   C2259     1.0  0.68602  0.64385  0.12869  1.0000
  C   C2260     1.0  0.66110  0.70161  0.09146  1.0000
  C   C2261     1.0  0.65572  0.72572  0.09289  1.0000
  H   H1805     1.0  0.81450  0.50662  0.25639  1.0000
  C   C2262     1.0  0.94159  0.73034  0.30266  1.0000
  C   C2263     1.0  0.67507  0.70763  0.05138  1.0000
  C   C2264     1.0  0.67103  0.69270  0.07064  1.0000
  C   C2265     1.0  0.74250  0.65031  0.48045  1.0000
  H   H1806     1.0  0.68450  0.70672  0.15280  1.0000
  H   H1807     1.0  0.75657  0.58348  0.48400  1.0000
  H   H1808     1.0  0.59980  0.71841  0.17128  1.0000
  H   H1809     1.0  0.61123  0.69574  0.13636  1.0000
  H   H1810     1.0  0.82824  0.68134  0.46521  1.0000
  H   H1811     1.0  0.84543  0.66355  0.08046  1.0000
  C   C2266     1.0  0.72778  0.66890  0.12173  1.0000
  H   H1812     1.0  0.63253  0.64955  0.14801  1.0000
  H   H1813     1.0  0.67025  0.63361  0.13135  1.0000
  C   C2267     1.0  0.97450  0.58586  0.07858  1.0000
  C   C2268     1.0  0.50560  0.54080  0.13415  1.0000
  C   C2269     1.0  0.53768  0.73769  0.16907  1.0000
  C   C2270     1.0  0.98797  0.62534  0.34958  1.0000
  H   H1814     1.0  0.67552  0.67419  0.06928  1.0000
  H   H1815     1.0  0.82876  0.53988  0.09649  1.0000
  C   C2271     1.0  0.50427  0.50326  0.19511  1.0000
  C   C2272     1.0  0.70779  0.63282  0.13233  1.0000
  H   H1816     1.0  0.53602  0.56364  0.19581  1.0000
  H   H1817     1.0  0.52154  0.67233  0.07991  1.0000
  H   H1818     1.0  0.94627  0.61250  0.30605  1.0000
  C   C2273     1.0  0.69696  0.52188  0.16640  1.0000
  C   C2274     1.0  0.52711  0.54676  0.19565  1.0000
  C   C2275     1.0  0.60794  0.63066  0.12697  1.0000
  H   H1819     1.0  0.58452  0.61493  0.10199  1.0000
  H   H1820     1.0  0.54655  0.50344  0.24109  1.0000
  H   H1821     1.0  0.60139  0.62038  0.14174  1.0000
  C   C2276     1.0  0.71707  0.71602  0.41979  1.0000
  C   C2277     1.0  0.75408  0.61398  0.46138  1.0000
  H   H1822     1.0  0.81022  0.71058  0.01564  1.0000
  H   H1823     1.0  0.79118  0.53484  0.45316  1.0000
  C   C2278     1.0  0.79085  0.50815  0.14422  1.0000
  C   C2279     1.0  0.71021  0.52240  0.14565  1.0000
  H   H1824     1.0  0.70845  0.61448  0.13778  1.0000
  C   C2280     1.0  0.69482  0.71158  0.42933  1.0000
  C   C2281     1.0  0.93122  0.70933  0.29530  1.0000
  C   C2282     1.0  0.98628  0.60400  0.08998  1.0000
  H   H1825     1.0  0.68250  0.70072  0.03522  1.0000
  H   H1826     1.0  0.95352  0.62420  0.36556  1.0000
  C   C2283     1.0  0.51885  0.72796  0.25243  1.0000
  C   C2284     1.0  0.89778  0.72569  0.99191  1.0000
  C   C2285     1.0  0.78855  0.50230  0.12036  1.0000
  H   H1827     1.0  0.52521  0.71459  0.08750  1.0000
  C   C2286     1.0  0.81730  0.70079  0.03044  1.0000
  H   H1828     1.0  0.70211  0.49474  0.24250  1.0000
  H   H1829     1.0  0.69629  0.51160  0.20286  1.0000
  C   C2287     1.0  0.62563  0.64725  0.13045  1.0000
  H   H1830     1.0  0.77624  0.48884  0.11499  1.0000
  H   H1831     1.0  0.53215  0.51384  0.13570  1.0000
  C   C2288     1.0  0.83579  0.54859  0.47965  1.0000
  H   H1832     1.0  0.70571  0.69828  0.11245  1.0000
  H   H1833     1.0  0.70216  0.52875  0.12955  1.0000
  C   C2289     1.0  0.70604  0.68000  0.11805  1.0000
  C   C2290     1.0  0.58576  0.73533  0.11315  1.0000
  C   C2291     1.0  0.95752  0.61994  0.29256  1.0000
  H   H1834     1.0  0.85067  0.68506  0.26302  1.0000
  H   H1835     1.0  0.55927  0.52694  0.19763  1.0000
  C   C2292     1.0  0.63551  0.72566  0.18159  1.0000
  H   H1836     1.0  0.80033  0.50904  0.08488  1.0000
  C   C2293     1.0  0.79165  0.52109  0.22986  1.0000
  C   C2294     1.0  0.66968  0.73160  0.05294  1.0000
  C   C2295     1.0  0.95223  0.65385  0.01810  1.0000
  C   C2296     1.0  0.54027  0.52588  0.19642  1.0000
  H   H1837     1.0  0.75338  0.70476  0.07810  1.0000
  H   H1838     1.0  0.53735  0.72869  0.25681  1.0000
  C   C2297     1.0  0.97161  0.70815  0.32324  1.0000
  C   C2298     1.0  0.96803  0.65140  0.26554  1.0000
  C   C2299     1.0  0.60641  0.64137  0.08575  1.0000
  H   H1839     1.0  0.78947  0.51388  0.41540  1.0000
  C   C2300     1.0  0.98216  0.70015  0.08761  1.0000
  C   C2301     1.0  0.79447  0.51603  0.45290  1.0000
  C   C2302     1.0  0.73015  0.73479  0.07685  1.0000
  H   H1840     1.0  0.78731  0.53656  0.24013  1.0000
  H   H1841     1.0  0.89817  0.61867  0.29523  1.0000
  C   C2303     1.0  0.86360  0.49388  0.46205  1.0000
  C   C2304     1.0  0.96119  0.68714  0.31616  1.0000
  C   C2305     1.0  0.73345  0.51402  0.14552  1.0000
  H   H1842     1.0  0.83304  0.55045  0.13851  1.0000
  C   C2306     1.0  0.74918  0.72181  0.08556  1.0000
  C   C2307     1.0  0.80025  0.50378  0.47369  1.0000
  C   C2308     1.0  0.70682  0.51272  0.18697  1.0000
  H   H1843     1.0  0.96126  0.57332  0.04553  1.0000
  H   H1844     1.0  0.59843  0.63956  0.06861  1.0000
  H   H1845     1.0  0.96683  0.72994  0.26146  1.0000
  C   C2309     1.0  0.52899  0.50392  0.19572  1.0000
  H   H1846     1.0  0.56681  0.50975  0.16124  1.0000
  P   P76       1.0  0.77330  0.49311  0.16625  1.0000
  C   C2310     1.0  0.84443  0.69737  0.06304  1.0000
  H   H1847     1.0  0.67882  0.52795  0.16636  1.0000
  S   S312      1.0  0.97902  0.64110  0.19278  1.0000
  C   C2311     1.0  0.97021  0.58748  0.05443  1.0000
  H   H1848     1.0  0.76980  0.53124  0.20085  1.0000
  C   C2312     1.0  0.97152  0.65656  0.37341  1.0000
  H   H1849     1.0  0.85880  0.70402  0.07345  1.0000
  C   C2313     1.0  0.74365  0.50512  0.16626  1.0000
  C   C2314     1.0  0.76316  0.73117  0.10333  1.0000
  H   H1850     1.0  0.67274  0.68631  0.44695  1.0000
  H   H1851     1.0  0.96798  0.70322  0.10005  1.0000
  C   C2315     1.0  0.81817  0.53107  0.10976  1.0000
  C   C2316     1.0  0.50923  0.70573  0.09295  1.0000
  H   H1852     1.0  0.57985  0.73337  0.13111  1.0000
  C   C2317     1.0  0.76400  0.71764  0.99756  1.0000
  H   H1853     1.0  0.96556  0.66985  0.07278  1.0000
  H   H1854     1.0  0.75134  0.49823  0.34208  1.0000
  H   H1855     1.0  0.77824  0.72131  0.10973  1.0000
  H   H1856     1.0  0.75477  0.51682  0.47942  1.0000
  C   C2318     1.0  0.98272  0.67242  0.99464  1.0000
  H   H1857     1.0  0.73761  0.71930  0.02490  1.0000
  C   C2319     1.0  0.74592  0.72880  0.01063  1.0000
  H   H1858     1.0  0.68159  0.72543  0.42952  1.0000
  H   H1859     1.0  0.98641  0.60809  0.34168  1.0000
  H   H1860     1.0  0.91266  0.72857  0.23679  1.0000
  H   H1861     1.0  0.72094  0.73333  0.41269  1.0000
  H   H1862     1.0  0.63032  0.73564  0.19696  1.0000
  C   C2320     1.0  0.57007  0.49184  0.15591  1.0000
  C   C2321     1.0  0.65934  0.72234  0.17625  1.0000
  H   H1863     1.0  0.57503  0.50495  0.27361  1.0000
  H   H1864     1.0  0.67265  0.72985  0.18748  1.0000
  C   C2322     1.0  0.98228  0.73563  0.25197  1.0000
  C   C2323     1.0  0.56247  0.49292  0.24007  1.0000
  C   C2324     1.0  0.74567  0.73348  0.47073  1.0000
  H   H1865     1.0  0.53837  0.73037  0.13207  1.0000
  C   C2325     1.0  0.75739  0.71755  0.48595  1.0000
  H   H1866     1.0  0.91544  0.71840  0.99273  1.0000
  H   H1867     1.0  0.75265  0.73653  0.45327  1.0000
  C   C2326     1.0  0.52837  0.73808  0.14637  1.0000
  C   C2327     1.0  0.86161  0.73767  0.01167  1.0000
  C   C2328     1.0  0.71933  0.48971  0.24888  1.0000
  C   C2329     1.0  0.83103  0.49585  0.53412  1.0000
  Fe  Fe157     1.0  0.84494  0.66963  0.55250  1.0000
  S   S313      1.0  0.80876  0.65910  0.56526  1.0000
  S   S314      1.0  0.86769  0.68877  0.58037  1.0000
  C   C2330     1.0  0.76363  0.50122  0.74225  1.0000
  S   S315      1.0  0.79983  0.63290  0.51573  1.0000
  Fe  Fe158     1.0  0.79574  0.66996  0.52928  1.0000
  C   C2331     1.0  0.49622  0.53820  0.80163  1.0000
  Fe  Fe159     1.0  0.81615  0.62301  0.55064  1.0000
  S   S316      1.0  0.80320  0.58856  0.56820  1.0000
  S   S317      1.0  0.83155  0.68180  0.51701  1.0000
  S   S318      1.0  0.85297  0.63257  0.53950  1.0000
  H   H1868     1.0  0.76810  0.49698  0.67477  1.0000
  H   H1869     1.0  0.49582  0.54994  0.78652  1.0000
  S   S319      1.0  0.52085  0.63996  0.82878  1.0000
  Fe  Fe160     1.0  0.86581  0.66185  0.93858  1.0000
  S   S320      1.0  0.85907  0.62571  0.95340  1.0000
  S   S321      1.0  0.89834  0.67495  0.91769  1.0000
  Fe  Fe161     1.0  0.81954  0.68158  0.96142  1.0000
  C   C2332     1.0  0.49341  0.70189  0.66885  1.0000
  S   S322      1.0  0.79895  0.71686  0.96244  1.0000
  H   H1870     1.0  0.86339  0.68932  0.88385  1.0000
  Fe  Fe162     1.0  0.82089  0.63077  0.94227  1.0000
  S   S323      1.0  0.80352  0.60124  0.91999  1.0000
  S   S324      1.0  0.85757  0.68012  0.97284  1.0000
  S   S325      1.0  0.82842  0.66626  0.92574  1.0000
  H   H1871     1.0  0.80506  0.50430  0.91687  1.0000
  S   S326      1.0  0.65810  0.51266  0.79231  1.0000
  Fe  Fe163     1.0  0.69015  0.54021  0.84750  1.0000
  S   S327      1.0  0.69026  0.55614  0.81132  1.0000
  S   S328      1.0  0.70526  0.56213  0.87848  1.0000
  Fe  Fe164     1.0  0.65148  0.54791  0.80953  1.0000
  S   S329      1.0  0.62672  0.57732  0.79657  1.0000
  Fe  Fe165     1.0  0.69707  0.51941  0.79767  1.0000
  S   S330      1.0  0.73005  0.51722  0.77379  1.0000
  S   S331      1.0  0.65078  0.53374  0.84635  1.0000
  H   H1872     1.0  0.49848  0.68717  0.67997  1.0000
  H   H1873     1.0  0.57460  0.52805  0.88442  1.0000
  S   S332      1.0  0.85446  0.50402  0.62450  1.0000
  C   C2333     1.0  0.92131  0.73737  0.78460  1.0000
  H   H1874     1.0  0.58282  0.73479  0.81894  1.0000
  H   H1875     1.0  0.71673  0.53472  0.48980  1.0000
  H   H1876     1.0  0.77440  0.66787  0.90179  1.0000
  H   H1877     1.0  0.71310  0.56026  0.52491  1.0000
  C   C2334     1.0  0.92229  0.65148  0.82726  1.0000
  C   C2335     1.0  0.77594  0.59184  0.90762  1.0000
  C   C2336     1.0  0.77596  0.57362  0.89084  1.0000
  C   C2337     1.0  0.75472  0.56479  0.88136  1.0000
  C   C2338     1.0  0.73289  0.57376  0.88866  1.0000
  C   C2339     1.0  0.73285  0.59207  0.90534  1.0000
  C   C2340     1.0  0.75411  0.60120  0.91455  1.0000
  H   H1878     1.0  0.79256  0.56603  0.88536  1.0000
  H   H1879     1.0  0.75515  0.55081  0.86860  1.0000
  H   H1880     1.0  0.71620  0.59922  0.91130  1.0000
  H   H1881     1.0  0.75355  0.61509  0.92747  1.0000
  C   C2341     1.0  0.54333  0.61842  0.82338  1.0000
  C   C2342     1.0  0.53576  0.58971  0.82168  1.0000
  C   C2343     1.0  0.55560  0.56834  0.81391  1.0000
  C   C2344     1.0  0.59733  0.58682  0.80607  1.0000
  C   C2345     1.0  0.59594  0.61664  0.81040  1.0000
  C   C2346     1.0  0.57046  0.63037  0.81825  1.0000
  H   H1882     1.0  0.51765  0.58494  0.82506  1.0000
  H   H1883     1.0  0.54914  0.55031  0.81283  1.0000
  H   H1884     1.0  0.61161  0.62700  0.80746  1.0000
  H   H1885     1.0  0.57124  0.64937  0.81925  1.0000
  Fe  Fe166     1.0  0.84941  0.64430  0.98726  1.0000
  C   C2347     1.0  0.79131  0.51546  0.92402  1.0000
  H   H1886     1.0  0.95613  0.60732  0.80491  1.0000
  H   H1887     1.0  0.52024  0.71186  0.72715  1.0000
  C   C2348     1.0  0.75649  0.54497  0.94261  1.0000
  C   C2349     1.0  0.81792  0.56517  0.58363  1.0000
  C   C2350     1.0  0.84187  0.56599  0.58923  1.0000
  C   C2351     1.0  0.85263  0.54713  0.60160  1.0000
  C   C2352     1.0  0.83974  0.52709  0.60857  1.0000
  C   C2353     1.0  0.81580  0.52617  0.60280  1.0000
  C   C2354     1.0  0.80503  0.54506  0.59044  1.0000
  H   H1888     1.0  0.85209  0.58126  0.58423  1.0000
  H   H1889     1.0  0.87113  0.54813  0.60591  1.0000
  H   H1890     1.0  0.80556  0.51094  0.60790  1.0000
  H   H1891     1.0  0.78655  0.54410  0.58614  1.0000
  H   H1892     1.0  0.71772  0.51278  0.88468  1.0000
  C   C2355     1.0  0.84922  0.56972  0.52171  1.0000
  C   C2356     1.0  0.97841  0.72709  0.84149  1.0000
  C   C2357     1.0  0.51314  0.50440  0.82211  1.0000
  C   C2358     1.0  0.88176  0.71615  0.58763  1.0000
  H   H1893     1.0  0.86868  0.70486  0.79805  1.0000
  H   H1894     1.0  0.89106  0.70418  0.62244  1.0000
  H   H1895     1.0  0.82072  0.64863  0.75237  1.0000
  C   C2359     1.0  0.96078  0.64309  0.87503  1.0000
  C   C2360     1.0  0.95877  0.66739  0.87867  1.0000
  C   C2361     1.0  0.93983  0.67665  0.89203  1.0000
  C   C2362     1.0  0.92249  0.66186  0.90196  1.0000
  C   C2363     1.0  0.92462  0.63754  0.89850  1.0000
  C   C2364     1.0  0.94355  0.62828  0.88510  1.0000
  H   H1896     1.0  0.97175  0.67910  0.87108  1.0000
  H   H1897     1.0  0.93855  0.69548  0.89453  1.0000
  H   H1898     1.0  0.91177  0.62579  0.90619  1.0000
  H   H1899     1.0  0.94489  0.60946  0.88255  1.0000
  C   C2365     1.0  0.77436  0.73165  0.57178  1.0000
  H   H1900     1.0  0.77157  0.70314  0.83473  1.0000
  H   H1901     1.0  0.87570  0.73368  0.55456  1.0000
  C   C2366     1.0  0.94269  0.67076  0.98004  1.0000
  S   S333      1.0  0.69789  0.50344  0.83419  1.0000
  P   P77       1.0  0.80208  0.51923  0.50147  1.0000
  C   C2367     1.0  0.88668  0.69348  0.85413  1.0000
  C   C2368     1.0  0.51435  0.57636  0.91154  1.0000
  C   C2369     1.0  0.72998  0.55257  0.52026  1.0000
  C   C2370     1.0  0.84419  0.69596  0.85189  1.0000
  H   H1902     1.0  0.51267  0.54886  0.88570  1.0000
  C   C2371     1.0  0.93805  0.71554  0.83356  1.0000
  H   H1903     1.0  0.74828  0.56791  0.54960  1.0000
  H   H1904     1.0  0.96898  0.70187  0.81554  1.0000
  C   C2372     1.0  0.77394  0.53296  0.50807  1.0000
  C   C2373     1.0  0.88859  0.69796  0.82988  1.0000
  C   C2374     1.0  0.82491  0.54155  0.50082  1.0000
  C   C2375     1.0  0.77688  0.68812  0.84534  1.0000
  C   C2376     1.0  0.74024  0.63825  0.50183  1.0000
  C   C2377     1.0  0.75018  0.52633  0.92802  1.0000
  H   H1905     1.0  0.77387  0.51596  0.74830  1.0000
  C   C2378     1.0  0.86791  0.70133  0.81673  1.0000
  H   H1906     1.0  0.52456  0.51744  0.78795  1.0000
  H   H1907     1.0  0.87253  0.59078  0.50032  1.0000
  S   S334      1.0  0.76144  0.69191  0.52807  1.0000
  H   H1908     1.0  0.96811  0.63962  0.77788  1.0000
  C   C2379     1.0  0.77149  0.54712  0.52810  1.0000
  C   C2380     1.0  0.74970  0.55689  0.53412  1.0000
  C   C2381     1.0  0.52573  0.59692  0.91841  1.0000
  H   H1909     1.0  0.73546  0.64784  0.51760  1.0000
  C   C2382     1.0  0.76218  0.50186  0.65732  1.0000
  H   H1910     1.0  0.79301  0.52090  0.87649  1.0000
  H   H1911     1.0  0.74420  0.60513  0.51988  1.0000
  C   C2383     1.0  0.88779  0.73126  0.97013  1.0000
  P   P78       1.0  0.91732  0.69937  0.81589  1.0000
  C   C2384     1.0  0.97732  0.73140  0.74770  1.0000
  H   H1912     1.0  0.52863  0.71114  0.60038  1.0000
  H   H1913     1.0  0.82243  0.53746  0.73992  1.0000
  C   C2385     1.0  0.86527  0.64615  0.79209  1.0000
  C   C2386     1.0  0.68834  0.49045  0.89268  1.0000
  C   C2387     1.0  0.78331  0.51191  0.86298  1.0000
  C   C2388     1.0  0.92890  0.66991  0.81203  1.0000
  C   C2389     1.0  0.82067  0.53472  0.72119  1.0000
  C   C2390     1.0  0.56927  0.51053  0.87931  1.0000
  H   H1914     1.0  0.92715  0.61496  0.83658  1.0000
  C   C2391     1.0  0.75173  0.58550  0.82812  1.0000
  C   C2392     1.0  0.75825  0.56945  0.81073  1.0000
  C   C2393     1.0  0.78091  0.57011  0.80111  1.0000
  C   C2394     1.0  0.79707  0.58687  0.80887  1.0000
  C   C2395     1.0  0.79054  0.60330  0.82614  1.0000
  C   C2396     1.0  0.76784  0.60223  0.83599  1.0000
  P   P79       1.0  0.81144  0.62510  0.83581  1.0000
  C   C2397     1.0  0.79572  0.64967  0.84868  1.0000
  C   C2398     1.0  0.83113  0.61293  0.85767  1.0000
  C   C2399     1.0  0.84447  0.62813  0.87165  1.0000
  C   C2400     1.0  0.85986  0.61909  0.88856  1.0000
  C   C2401     1.0  0.86190  0.59477  0.89186  1.0000
  C   C2402     1.0  0.84865  0.57948  0.87807  1.0000
  C   C2403     1.0  0.83334  0.58849  0.86097  1.0000
  C   C2404     1.0  0.79014  0.64931  0.87277  1.0000
  C   C2405     1.0  0.82813  0.63520  0.81051  1.0000
  C   C2406     1.0  0.81679  0.63872  0.78884  1.0000
  H   H1915     1.0  0.90209  0.68267  0.76977  1.0000
  H   H1916     1.0  0.67551  0.50271  0.88550  1.0000
  H   H1917     1.0  0.86190  0.63643  0.82829  1.0000
  C   C2407     1.0  0.55647  0.50729  0.85864  1.0000
  H   H1918     1.0  0.73424  0.58467  0.83586  1.0000
  H   H1919     1.0  0.74577  0.55634  0.80485  1.0000
  H   H1920     1.0  0.78584  0.55754  0.78768  1.0000
  H   H1921     1.0  0.81463  0.58702  0.80137  1.0000
  H   H1922     1.0  0.76251  0.61406  0.84991  1.0000
  H   H1923     1.0  0.84283  0.64701  0.86967  1.0000
  H   H1924     1.0  0.86983  0.63101  0.89945  1.0000
  H   H1925     1.0  0.87340  0.58784  0.90543  1.0000
  H   H1926     1.0  0.84989  0.56066  0.88102  1.0000
  H   H1927     1.0  0.82298  0.57637  0.85077  1.0000
  H   H1928     1.0  0.79488  0.63434  0.88366  1.0000
  H   H1929     1.0  0.79804  0.63570  0.78723  1.0000
  C   C2408     1.0  0.86462  0.69259  0.86506  1.0000
  C   C2409     1.0  0.85252  0.63905  0.81198  1.0000
  S   S335      1.0  0.81054  0.64623  0.97758  1.0000
  C   C2410     1.0  0.50427  0.72132  0.73159  1.0000
  H   H1930     1.0  0.81387  0.52283  0.65448  1.0000
  C   C2411     1.0  0.76255  0.52546  0.64988  1.0000
  C   C2412     1.0  0.75513  0.53111  0.62696  1.0000
  P   P80       1.0  0.77159  0.54817  0.67002  1.0000
  C   C2413     1.0  0.74864  0.55396  0.69144  1.0000
  C   C2414     1.0  0.74724  0.57608  0.70235  1.0000
  C   C2415     1.0  0.73069  0.58016  0.72020  1.0000
  C   C2416     1.0  0.71558  0.56215  0.72744  1.0000
  C   C2417     1.0  0.79767  0.53826  0.68533  1.0000
  H   H1931     1.0  0.91044  0.65444  0.84187  1.0000
  C   C2418     1.0  0.77808  0.57457  0.65323  1.0000
  C   C2419     1.0  0.75972  0.58992  0.64667  1.0000
  C   C2420     1.0  0.76428  0.60956  0.63239  1.0000
  C   C2421     1.0  0.78717  0.61398  0.62449  1.0000
  C   C2422     1.0  0.80552  0.59888  0.63100  1.0000
  C   C2423     1.0  0.80104  0.57918  0.64518  1.0000
  C   C2424     1.0  0.74840  0.71298  0.50847  1.0000
  H   H1932     1.0  0.75544  0.54907  0.62053  1.0000
  H   H1933     1.0  0.75930  0.59000  0.69748  1.0000
  H   H1934     1.0  0.72983  0.59712  0.72875  1.0000
  H   H1935     1.0  0.70318  0.56500  0.74171  1.0000
  C   C2425     1.0  0.83860  0.52330  0.70873  1.0000
  C   C2426     1.0  0.81561  0.52643  0.67307  1.0000
  H   H1936     1.0  0.74177  0.58637  0.65207  1.0000
  H   H1937     1.0  0.75001  0.62108  0.62699  1.0000
  H   H1938     1.0  0.79066  0.62873  0.61279  1.0000
  H   H1939     1.0  0.82314  0.60198  0.62427  1.0000
  H   H1940     1.0  0.81550  0.56738  0.64916  1.0000
  C   C2427     1.0  0.90694  0.70099  0.76797  1.0000
  H   H1941     1.0  0.85434  0.51729  0.71770  1.0000
  C   C2428     1.0  0.72782  0.72498  0.51562  1.0000
  C   C2429     1.0  0.74510  0.61415  0.50308  1.0000
  H   H1942     1.0  0.82491  0.54660  0.53861  1.0000
  C   C2430     1.0  0.90542  0.71187  0.74588  1.0000
  H   H1943     1.0  0.78506  0.56400  0.95834  1.0000
  H   H1944     1.0  0.70562  0.52597  0.72285  1.0000
  H   H1945     1.0  0.74227  0.51784  0.59404  1.0000
  C   C2431     1.0  0.64432  0.59043  0.87614  1.0000
  C   C2432     1.0  0.64515  0.58439  0.89994  1.0000
  C   C2433     1.0  0.62473  0.58568  0.91366  1.0000
  C   C2434     1.0  0.60338  0.59279  0.90354  1.0000
  C   C2435     1.0  0.60223  0.59854  0.87946  1.0000
  C   C2436     1.0  0.62307  0.59756  0.86598  1.0000
  P   P81       1.0  0.57459  0.60730  0.86569  1.0000
  C   C2437     1.0  0.57481  0.59190  0.83656  1.0000
  C   C2438     1.0  0.55087  0.59512  0.88359  1.0000
  C   C2439     1.0  0.53967  0.57407  0.87725  1.0000
  H   H1946     1.0  0.73178  0.52404  0.92404  1.0000
  H   H1947     1.0  0.96355  0.72025  0.74099  1.0000
  C   C2440     1.0  0.74686  0.49001  0.61956  1.0000
  C   C2441     1.0  0.54398  0.60617  0.90463  1.0000
  C   C2442     1.0  0.56379  0.59851  0.79206  1.0000
  C   C2443     1.0  0.57147  0.57463  0.77580  1.0000
  C   C2444     1.0  0.58419  0.55059  0.78812  1.0000
  C   C2445     1.0  0.59145  0.54595  0.81678  1.0000
  C   C2446     1.0  0.58756  0.56434  0.83977  1.0000
  C   C2447     1.0  0.57445  0.63936  0.86739  1.0000
  C   C2448     1.0  0.59531  0.65215  0.86361  1.0000
  C   C2449     1.0  0.59524  0.67676  0.86482  1.0000
  C   C2450     1.0  0.57435  0.68891  0.86974  1.0000
  C   C2451     1.0  0.55355  0.67643  0.87350  1.0000
  C   C2452     1.0  0.55363  0.65184  0.87249  1.0000
  H   H1948     1.0  0.66017  0.58926  0.86547  1.0000
  H   H1949     1.0  0.66169  0.57864  0.90763  1.0000
  H   H1950     1.0  0.62546  0.58105  0.93216  1.0000
  H   H1951     1.0  0.58795  0.59350  0.91463  1.0000
  H   H1952     1.0  0.62297  0.60189  0.84743  1.0000
  H   H1953     1.0  0.54475  0.56465  0.86165  1.0000
  H   H1954     1.0  0.78624  0.55046  0.53942  1.0000
  C   C2453     1.0  0.85382  0.64971  0.77065  1.0000
  C   C2454     1.0  0.76758  0.51147  0.91846  1.0000
  H   H1955     1.0  0.55278  0.62192  0.91051  1.0000
  H   H1956     1.0  0.55569  0.61331  0.78262  1.0000
  H   H1957     1.0  0.56837  0.57493  0.75706  1.0000
  H   H1958     1.0  0.58881  0.53655  0.77617  1.0000
  H   H1959     1.0  0.60011  0.52938  0.82071  1.0000
  H   H1960     1.0  0.59342  0.55831  0.85683  1.0000
  H   H1961     1.0  0.61157  0.64323  0.85921  1.0000
  H   H1962     1.0  0.61138  0.68638  0.86172  1.0000
  H   H1963     1.0  0.57420  0.70795  0.87049  1.0000
  H   H1964     1.0  0.53717  0.68572  0.87682  1.0000
  H   H1965     1.0  0.53713  0.64268  0.87490  1.0000
  C   C2455     1.0  0.77181  0.68775  0.86943  1.0000
  C   C2456     1.0  0.91498  0.71365  0.78749  1.0000
  C   C2457     1.0  0.80035  0.54235  0.70953  1.0000
  H   H1966     1.0  0.52033  0.60578  0.93438  1.0000
  C   C2458     1.0  0.89200  0.71868  0.61005  1.0000
  C   C2459     1.0  0.73336  0.53598  0.69888  1.0000
  C   C2460     1.0  0.94534  0.66538  0.79404  1.0000
  C   C2461     1.0  0.95492  0.64283  0.79132  1.0000
  H   H1967     1.0  0.78670  0.55106  0.71958  1.0000
  H   H1968     1.0  0.97148  0.68691  0.96131  1.0000
  C   C2462     1.0  0.71226  0.49612  0.89231  1.0000
  C   C2463     1.0  0.96613  0.67768  0.97719  1.0000
  C   C2464     1.0  0.74757  0.51340  0.61180  1.0000
  H   H1969     1.0  0.95124  0.67939  0.78243  1.0000
  H   H1970     1.0  0.85011  0.51070  0.67493  1.0000
  C   C2465     1.0  0.78014  0.54899  0.94775  1.0000
  H   H1971     1.0  0.90227  0.69081  0.86469  1.0000
  H   H1972     1.0  0.81589  0.53775  0.94216  1.0000
  C   C2466     1.0  0.79754  0.53424  0.93848  1.0000
  H   H1973     1.0  0.82684  0.70939  0.60945  1.0000
  H   H1974     1.0  0.88410  0.64871  0.79330  1.0000
  C   C2467     1.0  0.83615  0.51940  0.68466  1.0000
  C   C2468     1.0  0.83215  0.55210  0.52187  1.0000
  H   H1975     1.0  0.52907  0.71016  0.65889  1.0000
  H   H1976     1.0  0.80013  0.53156  0.83509  1.0000
  C   C2469     1.0  0.51243  0.51955  0.80247  1.0000
  C   C2470     1.0  0.81192  0.71595  0.59945  1.0000
  Fe  Fe167     1.0  0.65847  0.49839  0.82957  1.0000
  H   H1977     1.0  0.82998  0.70291  0.81750  1.0000
  H   H1978     1.0  0.79037  0.48953  0.71745  1.0000
  H   H1979     1.0  0.76273  0.70246  0.87756  1.0000
  H   H1980     1.0  0.57682  0.71198  0.74638  1.0000
  H   H1981     1.0  0.75605  0.70105  0.58465  1.0000
  C   C2471     1.0  0.81905  0.73816  0.49456  1.0000
  H   H1982     1.0  0.82716  0.69533  0.86055  1.0000
  C   C2472     1.0  0.71687  0.54013  0.71671  1.0000
  C   C2473     1.0  0.93170  0.62890  0.82429  1.0000
  C   C2474     1.0  0.88327  0.73521  0.57190  1.0000
  C   C2475     1.0  0.96231  0.71359  0.82894  1.0000
  C   C2476     1.0  0.84583  0.70025  0.82772  1.0000
  H   H1983     1.0  0.85419  0.57805  0.53803  1.0000
  C   C2477     1.0  0.77528  0.72962  0.97912  1.0000
  S   S336      1.0  0.98381  0.63041  0.85743  1.0000
  C   C2478     1.0  0.50021  0.72493  0.57926  1.0000
  C   C2479     1.0  0.50423  0.73430  0.64331  1.0000
  H   H1984     1.0  0.84566  0.50551  0.52663  1.0000
  C   C2480     1.0  0.52143  0.56486  0.89104  1.0000
  H   H1985     1.0  0.79243  0.66982  0.81633  1.0000
  H   H1986     1.0  0.86375  0.65514  0.75523  1.0000
  C   C2481     1.0  0.94811  0.62459  0.80645  1.0000
  C   C2482     1.0  0.78742  0.51805  0.83944  1.0000
  H   H1987     1.0  0.89764  0.72813  0.95405  1.0000
  H   H1988     1.0  0.49139  0.69373  0.75477  1.0000
  C   C2483     1.0  0.77838  0.66830  0.88310  1.0000
  C   C2484     1.0  0.78875  0.66915  0.83496  1.0000
  C   C2485     1.0  0.53336  0.70924  0.79917  1.0000
  C   C2486     1.0  0.53865  0.68888  0.78646  1.0000
  C   C2487     1.0  0.55436  0.68984  0.76753  1.0000
  C   C2488     1.0  0.56489  0.71119  0.76129  1.0000
  H   H1989     1.0  0.52104  0.70794  0.81371  1.0000
  H   H1990     1.0  0.53038  0.67234  0.79121  1.0000
  H   H1991     1.0  0.55823  0.67403  0.75762  1.0000
  C   C2489     1.0  0.82958  0.64603  0.76904  1.0000
  H   H1992     1.0  0.73445  0.51849  0.69157  1.0000
  C   C2490     1.0  0.75387  0.52832  0.49447  1.0000
  C   C2491     1.0  0.79074  0.70358  0.59957  1.0000
  H   H1993     1.0  0.74307  0.55682  0.94931  1.0000
  Fe  Fe168     1.0  0.83618  0.64385  0.50510  1.0000
  C   C2492     1.0  0.52314  0.72474  0.58810  1.0000
  H   H1994     1.0  0.55216  0.52243  0.84779  1.0000
  C   C2493     1.0  0.80812  0.49866  0.52524  1.0000
  H   H1995     1.0  0.78916  0.68751  0.60981  1.0000
  H   H1996     1.0  0.92992  0.67447  0.96632  1.0000
  H   H1997     1.0  0.89961  0.70202  0.73074  1.0000
  C   C2494     1.0  0.73207  0.53825  0.50046  1.0000
  C   C2495     1.0  0.85966  0.57673  0.50057  1.0000
  C   C2496     1.0  0.55973  0.73159  0.77401  1.0000
  C   C2497     1.0  0.51065  0.71478  0.65693  1.0000
  H   H1998     1.0  0.75993  0.73673  0.56041  1.0000
  C   C2498     1.0  0.77206  0.71129  0.58555  1.0000
  C   C2499     1.0  0.75824  0.48988  0.82715  1.0000
  C   C2500     1.0  0.54372  0.73083  0.79292  1.0000
  C   C2501     1.0  0.76629  0.49495  0.86881  1.0000
  C   C2502     1.0  0.77482  0.50710  0.82154  1.0000
  H   H1999     1.0  0.77761  0.51204  0.80329  1.0000
  C   C2503     1.0  0.93019  0.73178  0.85045  1.0000
  C   C2504     1.0  0.91185  0.73545  0.74315  1.0000
  H   H2000     1.0  0.72065  0.72166  0.53298  1.0000
  C   C2505     1.0  0.74112  0.49729  0.75205  1.0000
  H   H2001     1.0  0.58588  0.49355  0.90896  1.0000
  H   H2002     1.0  0.50006  0.56932  0.92210  1.0000
  C   C2506     1.0  0.81426  0.73635  0.58576  1.0000
  H   H2003     1.0  0.91161  0.73448  0.85372  1.0000
  C   C2507     1.0  0.57560  0.49111  0.89317  1.0000
  H   H2004     1.0  0.79737  0.72992  0.52447  1.0000
  C   C2508     1.0  0.49764  0.50850  0.84100  1.0000
  H   H2005     1.0  0.49810  0.49724  0.85646  1.0000
  Fe  Fe169     1.0  0.67935  0.79068  0.45812  1.0000
  S   S337      1.0  0.68576  0.82664  0.47322  1.0000
  C   C2509     1.0  0.59601  0.75678  0.10558  1.0000
  Fe  Fe170     1.0  0.63162  0.80729  0.43600  1.0000
  S   S338      1.0  0.63655  0.84399  0.44943  1.0000
  S   S339      1.0  0.59764  0.79469  0.41799  1.0000
  Fe  Fe171     1.0  0.67477  0.84081  0.43764  1.0000
  S   S340      1.0  0.69238  0.87084  0.41568  1.0000
  H   H2006     1.0  0.50879  0.75432  0.27811  1.0000
  S   S341      1.0  0.66894  0.80492  0.42229  1.0000
  S   S342      1.0  0.64138  0.78936  0.47042  1.0000
  Fe  Fe172     1.0  0.81159  0.92527  0.34012  1.0000
  S   S343      1.0  0.82193  0.91055  0.30465  1.0000
  S   S344      1.0  0.79028  0.89987  0.36444  1.0000
  S   S345      1.0  0.85032  0.95880  0.29375  1.0000
  Fe  Fe173     1.0  0.81285  0.94663  0.29032  1.0000
  S   S346      1.0  0.79227  0.94798  0.25563  1.0000
  Fe  Fe174     1.0  0.85862  0.92405  0.31140  1.0000
  S   S347      1.0  0.89415  0.90846  0.29898  1.0000
  S   S348      1.0  0.80131  0.96097  0.32538  1.0000
  S   S349      1.0  0.84918  0.93683  0.34762  1.0000
  S   S350      1.0  0.64954  0.96044  0.13295  1.0000
  S   S351      1.0  0.97595  0.84492  0.34522  1.0000
  Fe  Fe175     1.0  0.67756  0.84517  0.04843  1.0000
  S   S352      1.0  0.64029  0.84292  0.03576  1.0000
  S   S353      1.0  0.69291  0.87544  0.07081  1.0000
  Fe  Fe176     1.0  0.69098  0.79743  0.02365  1.0000
  S   S354      1.0  0.65395  0.79321  0.00996  1.0000
  S   S355      1.0  0.71655  0.76555  0.02366  1.0000
  Fe  Fe177     1.0  0.65641  0.83226  0.00078  1.0000
  Fe  Fe178     1.0  0.64138  0.80416  0.04611  1.0000
  S   S356      1.0  0.61501  0.78837  0.07335  1.0000
  S   S357      1.0  0.69393  0.83588  0.01311  1.0000
  S   S358      1.0  0.67817  0.80709  0.05995  1.0000
  H   H2007     1.0  0.64835  0.77827  0.11926  1.0000
  C   C2510     1.0  0.97933  0.81736  0.24638  1.0000
  S   S359      1.0  0.52044  0.83813  0.34718  1.0000
  H   H2008     1.0  0.76691  0.78113  0.44644  1.0000
  C   C2511     1.0  0.74569  0.81256  0.44793  1.0000
  C   C2512     1.0  0.93239  0.78793  0.33587  1.0000
  H   H2009     1.0  0.87067  0.86832  0.28145  1.0000
  H   H2010     1.0  0.89399  0.91627  0.36951  1.0000
  H   H2011     1.0  0.57591  0.84176  0.44120  1.0000
  C   C2513     1.0  0.60409  0.75997  0.08228  1.0000
  C   C2514     1.0  0.63707  0.96252  0.29884  1.0000
  H   H2012     1.0  0.79064  0.86989  0.44364  1.0000
  C   C2515     1.0  0.65995  0.94541  0.20218  1.0000
  C   C2516     1.0  0.71181  0.88774  0.47144  1.0000
  H   H2013     1.0  0.86491  0.84168  0.21123  1.0000
  H   H2014     1.0  0.92049  0.93264  0.33938  1.0000
  C   C2517     1.0  0.66194  0.93777  0.11455  1.0000
  C   C2518     1.0  0.68594  0.93662  0.10876  1.0000
  C   C2519     1.0  0.69495  0.91765  0.09524  1.0000
  C   C2520     1.0  0.68018  0.89963  0.08690  1.0000
  C   C2521     1.0  0.65611  0.90105  0.09227  1.0000
  C   C2522     1.0  0.64718  0.91981  0.10609  1.0000
  H   H2015     1.0  0.69766  0.95012  0.11507  1.0000
  H   H2016     1.0  0.71359  0.91688  0.09133  1.0000
  H   H2017     1.0  0.64440  0.88749  0.08610  1.0000
  H   H2018     1.0  0.62860  0.92037  0.11034  1.0000
  C   C2523     1.0  0.91665  0.89081  0.31233  1.0000
  C   C2524     1.0  0.91348  0.87936  0.33397  1.0000
  C   C2525     1.0  0.93177  0.86542  0.34365  1.0000
  C   C2526     1.0  0.95343  0.86250  0.33183  1.0000
  C   C2527     1.0  0.95656  0.87383  0.31010  1.0000
  C   C2528     1.0  0.93833  0.88793  0.30051  1.0000
  H   H2019     1.0  0.89689  0.88112  0.34321  1.0000
  H   H2020     1.0  0.92909  0.85678  0.36046  1.0000
  H   H2021     1.0  0.97310  0.87187  0.30080  1.0000
  H   H2022     1.0  0.94103  0.89675  0.28382  1.0000
  C   C2529     1.0  0.77167  0.96892  0.24425  1.0000
  C   C2530     1.0  0.63272  0.81469  0.29819  1.0000
  C   C2531     1.0  0.76789  0.89469  0.46184  1.0000
  C   C2532     1.0  0.57590  0.80772  0.39915  1.0000
  C   C2533     1.0  0.57802  0.83053  0.38987  1.0000
  C   C2534     1.0  0.56060  0.83971  0.37456  1.0000
  C   C2535     1.0  0.54081  0.82628  0.36820  1.0000
  C   C2536     1.0  0.53842  0.80370  0.37794  1.0000
  C   C2537     1.0  0.55585  0.79452  0.39322  1.0000
  H   H2023     1.0  0.59321  0.84101  0.39426  1.0000
  H   H2024     1.0  0.56267  0.85721  0.36724  1.0000
  H   H2025     1.0  0.52335  0.79312  0.37338  1.0000
  H   H2026     1.0  0.55386  0.77692  0.40033  1.0000
  C   C2538     1.0  0.71977  0.87845  0.40139  1.0000
  C   C2539     1.0  0.72180  0.90044  0.38983  1.0000
  C   C2540     1.0  0.74298  0.90732  0.37840  1.0000
  C   C2541     1.0  0.76263  0.89224  0.37819  1.0000
  C   C2542     1.0  0.76054  0.87025  0.38969  1.0000
  C   C2543     1.0  0.73942  0.86342  0.40112  1.0000
  H   H2027     1.0  0.70689  0.91237  0.38986  1.0000
  H   H2028     1.0  0.74416  0.92444  0.37005  1.0000
  H   H2029     1.0  0.77550  0.85837  0.38984  1.0000
  H   H2030     1.0  0.73843  0.84648  0.40969  1.0000
  C   C2544     1.0  0.91133  0.79476  0.29952  1.0000
  H   H2031     1.0  0.70381  0.98568  0.06671  1.0000
  H   H2032     1.0  0.89725  0.92875  0.41106  1.0000
  C   C2545     1.0  0.61774  0.91913  0.28647  1.0000
  C   C2546     1.0  0.95187  0.94833  0.27276  1.0000
  C   C2547     1.0  0.76086  0.84445  0.47161  1.0000
  C   C2548     1.0  0.91595  0.96796  0.28486  1.0000
  H   H2033     1.0  0.71103  0.77561  0.38294  1.0000
  C   C2549     1.0  0.94780  0.96258  0.31281  1.0000
  C   C2550     1.0  0.96128  0.95159  0.29518  1.0000
  H   H2034     1.0  0.96207  0.93929  0.25943  1.0000
  C   C2551     1.0  0.49828  0.82118  0.20983  1.0000
  P   P82       1.0  0.48891  0.83834  0.44452  1.0000
  H   H2035     1.0  0.61012  0.90241  0.28155  1.0000
  H   H2036     1.0  0.64956  0.81213  0.28954  1.0000
  C   C2552     1.0  0.51762  0.84662  0.45565  1.0000
  C   C2553     1.0  0.92221  0.93845  0.35737  1.0000
  H   H2037     1.0  0.75103  0.91574  0.32646  1.0000
  H   H2038     1.0  0.61415  0.79293  0.27351  1.0000
  H   H2039     1.0  0.50506  0.88469  0.37206  1.0000
  H   H2040     1.0  0.97897  0.94541  0.29861  1.0000
  C   C2554     1.0  0.65875  0.95005  0.22629  1.0000
  C   C2555     1.0  0.76026  0.91826  0.46256  1.0000
  C   C2556     1.0  0.92619  0.95230  0.40430  1.0000
  H   H2041     1.0  0.76192  0.76566  0.05124  1.0000
  H   H2042     1.0  0.68544  0.98534  0.99661  1.0000
  C   C2557     1.0  0.61537  0.95554  0.30824  1.0000
  C   C2558     1.0  0.77877  0.77002  0.04343  1.0000
  H   H2043     1.0  0.52094  0.75718  0.44441  1.0000
  H   H2044     1.0  0.98084  0.79833  0.24648  1.0000
  H   H2045     1.0  0.74565  0.77324  0.19660  1.0000
  Fe  Fe179     1.0  0.64712  0.82618  0.48349  1.0000
  H   H2046     1.0  0.57984  0.86364  0.47856  1.0000
  C   C2559     1.0  0.67030  0.79677  0.34430  1.0000
  H   H2047     1.0  0.49607  0.74420  0.41114  1.0000
  C   C2560     1.0  0.49106  0.80846  0.43401  1.0000
  H   H2048     1.0  0.91452  0.97984  0.32058  1.0000
  H   H2049     1.0  0.53679  0.83086  0.42660  1.0000
  P   P83       1.0  0.95938  0.96687  0.34199  1.0000
  H   H2050     1.0  0.97564  0.88557  0.24747  1.0000
  C   C2561     1.0  0.59311  0.96764  0.99959  1.0000
  C   C2562     1.0  0.86139  0.75232  0.06226  1.0000
  H   H2051     1.0  0.83838  0.96829  0.24068  1.0000
  C   C2563     1.0  0.78122  0.83099  0.47610  1.0000
  C   C2564     1.0  0.49818  0.86510  0.40387  1.0000
  C   C2565     1.0  0.80249  0.79616  0.01951  1.0000
  C   C2566     1.0  0.75999  0.80757  0.18920  1.0000
  C   C2567     1.0  0.93128  0.78565  0.23864  1.0000
  C   C2568     1.0  0.53802  0.84060  0.44287  1.0000
  C   C2569     1.0  0.68126  0.93858  0.19192  1.0000
  H   H2052     1.0  0.56213  0.79061  0.05103  1.0000
  C   C2570     1.0  0.49059  0.81523  0.18735  1.0000
  C   C2571     1.0  0.98616  0.94996  0.34622  1.0000
  H   H2053     1.0  0.89823  0.77656  0.11421  1.0000
  H   H2054     1.0  0.68106  0.94457  0.04510  1.0000
  C   C2572     1.0  0.50606  0.74790  0.14221  1.0000
  H   H2055     1.0  0.83850  0.78568  0.01416  1.0000
  C   C2573     1.0  0.92067  0.76452  0.24597  1.0000
  H   H2056     1.0  0.71624  0.93927  0.24005  1.0000
  H   H2057     1.0  0.91290  0.76285  0.26324  1.0000
  H   H2058     1.0  0.60804  0.74302  0.04877  1.0000
  C   C2574     1.0  0.49446  0.76198  0.41778  1.0000
  C   C2575     1.0  0.68766  0.91571  0.02161  1.0000
  C   C2576     1.0  0.67889  0.94770  0.24046  1.0000
  H   H2059     1.0  0.60591  0.96707  0.32017  1.0000
  C   C2577     1.0  0.56030  0.84678  0.45107  1.0000
  C   C2578     1.0  0.70024  0.94070  0.22997  1.0000
  C   C2579     1.0  0.74343  0.83526  0.45700  1.0000
  C   C2580     1.0  0.64924  0.94784  0.28309  1.0000
  H   H2060     1.0  0.67770  0.92027  0.30926  1.0000
  H   H2061     1.0  0.50081  0.74774  0.06151  1.0000
  C   C2581     1.0  0.50650  0.79234  0.44485  1.0000
  C   C2582     1.0  0.89734  0.84331  0.27109  1.0000
  H   H2062     1.0  0.79013  0.93978  0.41502  1.0000
  H   H2063     1.0  0.71895  0.89230  0.45432  1.0000
  H   H2064     1.0  0.90032  0.81711  0.21732  1.0000
  C   C2583     1.0  0.61274  0.80375  0.28908  1.0000
  H   H2065     1.0  0.56377  0.79841  0.09360  1.0000
  H   H2066     1.0  0.70964  0.90372  0.33358  1.0000
  H   H2067     1.0  0.94898  0.80329  0.20964  1.0000
  H   H2068     1.0  0.88835  0.76797  0.04008  1.0000
  H   H2069     1.0  0.95473  0.97412  0.39248  1.0000
  H   H2070     1.0  0.93240  0.78353  0.35445  1.0000
  H   H2071     1.0  0.57211  0.82222  0.32906  1.0000
  H   H2072     1.0  0.71801  0.93135  0.19774  1.0000
  C   C2584     1.0  0.65966  0.94712  0.01389  1.0000
  H   H2073     1.0  0.89495  0.78389  0.33208  1.0000
  C   C2585     1.0  0.49264  0.75618  0.16126  1.0000
  H   H2074     1.0  0.68221  0.93571  0.17307  1.0000
  C   C2586     1.0  0.82187  0.78108  0.02231  1.0000
  H   H2075     1.0  0.84993  0.86730  0.24332  1.0000
  C   C2587     1.0  0.92914  0.95634  0.26766  1.0000
  H   H2076     1.0  0.53196  0.74653  0.20537  1.0000
  C   C2588     1.0  0.56251  0.85906  0.47212  1.0000
  C   C2589     1.0  0.69553  0.92590  0.30594  1.0000
  C   C2590     1.0  0.87711  0.85697  0.26755  1.0000
  C   C2591     1.0  0.71362  0.91643  0.31982  1.0000
  C   C2592     1.0  0.87387  0.84195  0.22800  1.0000
  H   H2077     1.0  0.79900  0.79778  0.47060  1.0000
  H   H2078     1.0  0.65677  0.79026  0.33277  1.0000
  C   C2593     1.0  0.60202  0.74104  0.06675  1.0000
  S   S360      1.0  0.71005  0.76390  0.45702  1.0000
  C   C2594     1.0  0.76553  0.79892  0.45312  1.0000
  H   H2079     1.0  0.64225  0.95626  0.23367  1.0000
  C   C2595     1.0  0.53341  0.77716  0.10198  1.0000
  C   C2596     1.0  0.60572  0.93385  0.30209  1.0000
  H   H2080     1.0  0.88031  0.97602  0.23119  1.0000
  H   H2081     1.0  0.91177  0.78277  0.07311  1.0000
  C   C2597     1.0  0.54887  0.78313  0.06262  1.0000
  H   H2082     1.0  0.65124  0.96314  0.01981  1.0000
  C   C2598     1.0  0.90569  0.82838  0.25325  1.0000
  C   C2599     1.0  0.94090  0.78717  0.21586  1.0000
  C   C2600     1.0  0.91134  0.78823  0.32328  1.0000
  C   C2601     1.0  0.68760  0.89034  0.47525  1.0000
  H   H2083     1.0  0.83692  0.74083  0.08921  1.0000
  C   C2602     1.0  0.73867  0.76649  0.10396  1.0000
  H   H2084     1.0  0.58495  0.95056  0.99785  1.0000
  P   P84       1.0  0.73363  0.79637  0.11358  1.0000
  C   C2603     1.0  0.70267  0.80372  0.11578  1.0000
  C   C2604     1.0  0.74456  0.80053  0.14296  1.0000
  C   C2605     1.0  0.74072  0.78323  0.16029  1.0000
  C   C2606     1.0  0.74859  0.78668  0.18329  1.0000
  H   H2085     1.0  0.68023  0.76178  0.35555  1.0000
  C   C2607     1.0  0.90904  0.93602  0.39789  1.0000
  C   C2608     1.0  0.75559  0.82168  0.14913  1.0000
  C   C2609     1.0  0.69550  0.82744  0.11658  1.0000
  C   C2610     1.0  0.67157  0.83330  0.11748  1.0000
  C   C2611     1.0  0.65463  0.81555  0.11829  1.0000
  C   C2612     1.0  0.66163  0.79192  0.11879  1.0000
  C   C2613     1.0  0.68556  0.78598  0.11778  1.0000
  C   C2614     1.0  0.74985  0.81464  0.09306  1.0000
  C   C2615     1.0  0.77457  0.81371  0.09292  1.0000
  C   C2616     1.0  0.78746  0.82765  0.07713  1.0000
  C   C2617     1.0  0.77576  0.84250  0.06128  1.0000
  C   C2618     1.0  0.75118  0.84316  0.06101  1.0000
  C   C2619     1.0  0.73829  0.82913  0.07665  1.0000
  C   C2620     1.0  0.51584  0.76235  0.09312  1.0000
  C   C2621     1.0  0.68098  0.98791  0.27305  1.0000
  H   H2086     1.0  0.83317  0.74783  0.98827  1.0000
  H   H2087     1.0  0.92775  0.95762  0.42248  1.0000
  H   H2088     1.0  0.71102  0.76739  0.07780  1.0000
  H   H2089     1.0  0.73149  0.76716  0.15604  1.0000
  C   C2622     1.0  0.68132  0.90489  0.00060  1.0000
  H   H2090     1.0  0.94838  0.76873  0.18361  1.0000
  C   C2623     1.0  0.76339  0.82509  0.17215  1.0000
  H   H2091     1.0  0.75787  0.83569  0.13631  1.0000
  H   H2092     1.0  0.70829  0.84152  0.11577  1.0000
  H   H2093     1.0  0.66618  0.85166  0.11684  1.0000
  H   H2094     1.0  0.63606  0.82008  0.11812  1.0000
  C   C2624     1.0  0.50841  0.76928  0.43653  1.0000
  H   H2095     1.0  0.69051  0.76757  0.11814  1.0000
  H   H2096     1.0  0.78388  0.80222  0.10502  1.0000
  H   H2097     1.0  0.80652  0.82684  0.07706  1.0000
  H   H2098     1.0  0.78568  0.85337  0.04908  1.0000
  H   H2099     1.0  0.74194  0.85459  0.04872  1.0000
  H   H2100     1.0  0.71934  0.82983  0.07578  1.0000
  C   C2625     1.0  0.90715  0.92902  0.37447  1.0000
  H   H2101     1.0  0.58291  0.79028  0.47848  1.0000
  H   H2102     1.0  0.50298  0.81492  0.17282  1.0000
  C   C2626     1.0  0.51446  0.75877  0.06875  1.0000
  C   C2627     1.0  0.67669  0.93669  0.02836  1.0000
  C   C2628     1.0  0.74206  0.94003  0.29862  1.0000
  C   C2629     1.0  0.58907  0.82023  0.32043  1.0000
  C   C2630     1.0  0.53108  0.76893  0.05360  1.0000
  P   P85       1.0  0.84447  0.74033  0.03838  1.0000
  C   C2631     1.0  0.63098  0.82857  0.31851  1.0000
  C   C2632     1.0  0.94138  0.96167  0.38725  1.0000
  H   H2103     1.0  0.77185  0.84148  0.17683  1.0000
  C   C2633     1.0  0.98601  0.92569  0.34144  1.0000
  C   C2634     1.0  0.72511  0.75716  0.08572  1.0000
  C   C2635     1.0  0.93928  0.95503  0.36362  1.0000
  C   C2636     1.0  0.70493  0.81230  0.37523  1.0000
  H   H2104     1.0  0.57541  0.79799  0.29329  1.0000
  C   C2637     1.0  0.76825  0.93449  0.44574  1.0000
  H   H2105     1.0  0.89832  0.97410  0.28096  1.0000
  H   H2106     1.0  0.51741  0.79765  0.45943  1.0000
  C   C2638     1.0  0.86540  0.85637  0.24602  1.0000
  H   H2107     1.0  0.64456  0.94791  0.19115  1.0000
  C   C2639     1.0  0.92991  0.74678  0.20840  1.0000
  H   H2108     1.0  0.89479  0.79525  0.29012  1.0000
  H   H2109     1.0  0.53471  0.78060  0.12061  1.0000
  H   H2110     1.0  0.69435  0.84731  0.36549  1.0000
  C   C2640     1.0  0.54244  0.86458  0.48532  1.0000
  C   C2641     1.0  0.75806  0.75350  0.11239  1.0000
  C   C2642     1.0  0.73692  0.92328  0.31595  1.0000
  C   C2643     1.0  0.85328  0.74986  0.08551  1.0000
  C   C2644     1.0  0.94033  0.76775  0.20090  1.0000
  C   C2645     1.0  0.72399  0.94990  0.28511  1.0000
  C   C2646     1.0  0.92520  0.97110  0.30735  1.0000
  C   C2647     1.0  0.76128  0.96472  0.22224  1.0000
  C   C2648     1.0  0.95345  0.79390  0.32464  1.0000
  C   C2649     1.0  0.65353  0.93661  0.99243  1.0000
  C   C2650     1.0  0.71263  0.86646  0.29057  1.0000
  C   C2651     1.0  0.63783  0.90727  0.35529  1.0000
  C   C2652     1.0  0.63411  0.90288  0.37923  1.0000
  C   C2653     1.0  0.63703  0.88012  0.38826  1.0000
  C   C2654     1.0  0.64396  0.86175  0.37348  1.0000
  C   C2655     1.0  0.64836  0.86613  0.34952  1.0000
  C   C2656     1.0  0.64475  0.88893  0.34044  1.0000
  P   P86       1.0  0.65697  0.84237  0.33031  1.0000
  C   C2657     1.0  0.67467  0.85446  0.30655  1.0000
  C   C2658     1.0  0.70172  0.87446  0.27004  1.0000
  C   C2659     1.0  0.67736  0.87243  0.26761  1.0000
  C   C2660     1.0  0.66384  0.86269  0.28584  1.0000
  H   H2111     1.0  0.63539  0.92489  0.34828  1.0000
  H   H2112     1.0  0.62896  0.91708  0.39084  1.0000
  H   H2113     1.0  0.63429  0.87674  0.40685  1.0000
  H   H2114     1.0  0.64604  0.84423  0.38090  1.0000
  H   H2115     1.0  0.64724  0.89259  0.32194  1.0000
  H   H2116     1.0  0.71215  0.88236  0.25607  1.0000
  H   H2117     1.0  0.66897  0.87850  0.25157  1.0000
  H   H2118     1.0  0.64492  0.86171  0.28381  1.0000
  H   H2119     1.0  0.70816  0.85080  0.32454  1.0000
  H   H2120     1.0  0.80466  0.89870  0.41437  1.0000
  P   P87       1.0  0.67751  0.95634  0.27110  1.0000
  C   C2661     1.0  0.70100  0.78821  0.37259  1.0000
  H   H2121     1.0  0.71796  0.81832  0.38761  1.0000
  H   H2122     1.0  0.92160  0.95332  0.25049  1.0000
  C   C2662     1.0  0.72481  0.74514  0.47771  1.0000
  H   H2123     1.0  0.58883  0.92854  0.30929  1.0000
  H   H2124     1.0  0.76594  0.81031  0.20706  1.0000
  H   H2125     1.0  0.76592  0.94892  0.21271  1.0000
  H   H2126     1.0  0.76193  0.95252  0.44603  1.0000
  C   C2663     1.0  0.52471  0.74696  0.18777  1.0000
  H   H2127     1.0  0.73765  0.97761  0.19513  1.0000
  C   C2664     1.0  0.81957  0.75996  0.03508  1.0000
  C   C2665     1.0  0.70063  0.94264  0.28831  1.0000
  C   C2666     1.0  0.69144  0.82869  0.36263  1.0000
  P   P88       1.0  0.49484  0.74840  0.11260  1.0000
  C   C2667     1.0  0.59092  0.80655  0.30019  1.0000
  H   H2128     1.0  0.60712  0.84133  0.34559  1.0000
  H   H2129     1.0  0.84204  0.75069  0.46707  1.0000
  H   H2130     1.0  0.59745  0.77116  0.11786  1.0000
  C   C2668     1.0  0.86657  0.75851  0.10418  1.0000
  C   C2669     1.0  0.88774  0.77019  0.09973  1.0000
  H   H2131     1.0  0.97005  0.91721  0.33552  1.0000
  C   C2670     1.0  0.88220  0.76490  0.05787  1.0000
  C   C2671     1.0  0.93243  0.80112  0.28817  1.0000
  H   H2132     1.0  0.51644  0.86011  0.40563  1.0000
  H   H2133     1.0  0.70069  0.90756  0.03293  1.0000
  C   C2672     1.0  0.89542  0.77359  0.07658  1.0000
  C   C2673     1.0  0.68363  0.78046  0.35720  1.0000
  H   H2134     1.0  0.94019  0.86214  0.25566  1.0000
  H   H2135     1.0  0.64844  0.91462  0.26478  1.0000
  C   C2674     1.0  0.74517  0.98091  0.21224  1.0000
  P   P89       1.0  0.93198  0.81092  0.25785  1.0000
  C   C2675     1.0  0.63941  0.92609  0.27700  1.0000
  H   H2136     1.0  0.73187  0.80547  0.43700  1.0000
  H   H2137     1.0  0.76009  0.94547  0.29567  1.0000
  C   C2676     1.0  0.95773  0.82843  0.25140  1.0000
  C   C2677     1.0  0.67418  0.82106  0.34680  1.0000
  H   H2138     1.0  0.96966  0.79429  0.33460  1.0000
  H   H2139     1.0  0.72821  0.96325  0.27211  1.0000
  H   H2140     1.0  0.86064  0.75586  0.12213  1.0000
  H   H2141     1.0  0.53036  0.76561  0.03488  1.0000
  C   C2678     1.0  0.73842  0.75195  0.00530  1.0000
  H   H2142     1.0  0.72810  0.84565  0.45237  1.0000
  C   C2679     1.0  0.95355  0.80049  0.30091  1.0000
  C   C2680     1.0  0.69921  0.85654  0.30877  1.0000
  C   C2681     1.0  0.60901  0.83113  0.32967  1.0000
  C   C2682     1.0  0.70136  0.93613  0.20582  1.0000
  H   H2143     1.0  0.67646  0.89690  0.46120  1.0000
  C   C2683     1.0  0.78422  0.92740  0.42837  1.0000
  H   H2144     1.0  0.97007  0.80563  0.29289  1.0000
  C   C2684     1.0  0.79243  0.90418  0.42801  1.0000
  C   C2685     1.0  0.95652  0.85313  0.25159  1.0000
  C   C2686     1.0  0.54982  0.78748  0.08673  1.0000
  Fe  Fe180     1.0  0.83982  0.97120  0.32949  1.0000
  H   H2145     1.0  0.90652  0.84458  0.28772  1.0000
  H   H2146     1.0  0.73152  0.86828  0.29257  1.0000
  C   C2687     1.0  0.89397  0.82803  0.23155  1.0000
  C   C2688     1.0  0.78431  0.88785  0.44462  1.0000
  C   C2689     1.0  0.85146  0.74254  0.98968  1.0000
  H   H2147     1.0  0.61627  0.90488  0.99600  1.0000
  H   H2148     1.0  0.64413  0.97943  0.30378  1.0000
  C   C2690     1.0  0.97661  0.86653  0.24686  1.0000
  C   C2691     1.0  0.58122  0.98527  0.01207  1.0000
  C   C2692     1.0  0.78347  0.80827  0.46691  1.0000
  H   H2149     1.0  0.84956  0.78897  0.48647  1.0000
  C   C2693     1.0  0.79797  0.75474  0.04602  1.0000
  H   H2150     1.0  0.65617  0.75924  0.07486  1.0000
  H   H2151     1.0  0.76955  0.76078  0.12559  1.0000
  C   C2694     1.0  0.78090  0.79050  0.02991  1.0000
  C   C2695     1.0  0.50206  0.75585  0.18397  1.0000
  H   H2152     1.0  0.76563  0.80176  0.02728  1.0000
  C   C2696     1.0  0.52010  0.85821  0.47728  1.0000
  H   H2153     1.0  0.56409  0.98172  0.01975  1.0000
  H   H2154     1.0  0.68928  0.88823  0.99569  1.0000
  H   H2155     1.0  0.80408  0.81202  0.00895  1.0000
  H   H2156     1.0  0.49180  0.76214  0.19881  1.0000
  H   H2157     1.0  0.69341  0.98712  0.30904  1.0000
  C   C2697     1.0  0.61535  0.97213  0.98971  1.0000
  H   H2158     1.0  0.51659  0.82552  0.21277  1.0000
  H   H2159     1.0  0.67277  0.74320  0.03803  1.0000
  H   H2160     1.0  0.55943  0.75364  0.47847  1.0000
  C   C2698     1.0  0.92014  0.74513  0.23093  1.0000
  H   H2161     1.0  0.93439  0.74712  0.29711  1.0000
  C   C2699     1.0  0.50268  0.74256  0.26457  1.0000
  C   C2700     1.0  0.49179  0.87925  0.38469  1.0000
  C   C2701     1.0  0.66032  0.74065  0.07376  1.0000
  H   H2162     1.0  0.97026  0.74600  0.32160  1.0000
  C   C2702     1.0  0.84529  0.98603  0.24177  1.0000
  C   C2703     1.0  0.83389  0.75462  0.48386  1.0000
  H   H2163     1.0  0.74792  0.92403  0.47595  1.0000
  H   H2164     1.0  0.48934  0.76709  0.48715  1.0000
  P   P90       1.0  0.75746  0.87371  0.48351  1.0000
  H   H2165     1.0  0.79539  0.83800  0.48657  1.0000
  H   H2166     1.0  0.48837  0.82596  0.24606  1.0000
  H   H2167     1.0  0.79575  0.73878  0.05626  1.0000
  Fe  Fe181     1.0  0.95890  0.79527  0.69019  1.0000
  S   S361      1.0  0.95929  0.76489  0.71722  1.0000
  Fe  Fe182     1.0  0.93849  0.84376  0.67436  1.0000
  S   S362      1.0  0.95307  0.83952  0.63784  1.0000
  S   S363      1.0  0.92079  0.87732  0.68883  1.0000
  Fe  Fe183     1.0  0.94000  0.80169  0.63978  1.0000
  S   S364      1.0  0.91969  0.78593  0.60808  1.0000
  S   S365      1.0  0.92359  0.80688  0.67559  1.0000
  S   S366      1.0  0.97222  0.83252  0.69247  1.0000
  S   S367      1.0  0.63214  0.84118  0.51808  1.0000
  H   H2168     1.0  0.60556  0.77128  0.88050  1.0000
  S   S368      1.0  0.69603  0.96557  0.84168  1.0000
  Fe  Fe184     1.0  0.63998  0.94024  0.81020  1.0000
  S   S369      1.0  0.67459  0.92124  0.81240  1.0000
  S   S370      1.0  0.60645  0.92361  0.79411  1.0000
  Fe  Fe185     1.0  0.67580  0.93222  0.85051  1.0000
  S   S371      1.0  0.68816  0.90771  0.88082  1.0000
  Fe  Fe186     1.0  0.69142  0.95626  0.80325  1.0000
  S   S372      1.0  0.71768  0.95479  0.77204  1.0000
  S   S373      1.0  0.64045  0.94988  0.84892  1.0000
  S   S374      1.0  0.65640  0.97500  0.79975  1.0000
  Fe  Fe187     1.0  0.52539  0.79030  0.68059  1.0000
  S   S375      1.0  0.51297  0.82642  0.69144  1.0000
  C   C2704     1.0  0.90354  0.73971  0.61666  1.0000
  Fe  Fe188     1.0  0.55101  0.81021  0.63557  1.0000
  S   S376      1.0  0.54017  0.84733  0.64440  1.0000
  S   S377      1.0  0.56915  0.79657  0.60172  1.0000
  Fe  Fe189     1.0  0.54979  0.83884  0.68242  1.0000
  S   S378      1.0  0.57628  0.85958  0.70569  1.0000
  Fe  Fe190     1.0  0.50447  0.83148  0.65263  1.0000
  S   S379      1.0  0.56247  0.80229  0.67284  1.0000
  S   S380      1.0  0.51500  0.79491  0.64259  1.0000
  S   S381      1.0  0.86351  0.96154  0.63863  1.0000
  S   S382      1.0  0.64162  0.84897  0.96653  1.0000
  C   C2705     1.0  0.80465  0.92917  0.69841  1.0000
  H   H2169     1.0  0.77100  0.94794  0.79213  1.0000
  P   P91       1.0  0.50055  0.78312  0.53578  1.0000
  P   P92       1.0  0.79814  0.77133  0.55481  1.0000
  H   H2170     1.0  0.58762  0.96069  0.82588  1.0000
  C   C2706     1.0  0.67464  0.89218  0.90490  1.0000
  C   C2707     1.0  0.68912  0.88065  0.92151  1.0000
  C   C2708     1.0  0.67944  0.86767  0.94055  1.0000
  C   C2709     1.0  0.65500  0.86567  0.94316  1.0000
  C   C2710     1.0  0.64052  0.87727  0.92658  1.0000
  C   C2711     1.0  0.65019  0.89062  0.90780  1.0000
  H   H2171     1.0  0.70804  0.88168  0.91959  1.0000
  H   H2172     1.0  0.69092  0.85893  0.95302  1.0000
  H   H2173     1.0  0.62164  0.87595  0.92831  1.0000
  H   H2174     1.0  0.63872  0.89958  0.89552  1.0000
  C   C2712     1.0  0.73817  0.97420  0.75777  1.0000
  C   C2713     1.0  0.74866  0.96730  0.73633  1.0000
  C   C2714     1.0  0.97050  0.74252  0.85885  1.0000
  H   H2175     1.0  0.74381  0.95063  0.72871  1.0000
  C   C2715     1.0  0.78083  0.92310  0.69590  1.0000
  C   C2716     1.0  0.59879  0.90532  0.76963  1.0000
  C   C2717     1.0  0.57505  0.89882  0.76661  1.0000
  C   C2718     1.0  0.56788  0.88477  0.74743  1.0000
  C   C2719     1.0  0.58437  0.87691  0.73078  1.0000
  C   C2720     1.0  0.60819  0.88305  0.73405  1.0000
  C   C2721     1.0  0.61536  0.89712  0.75324  1.0000
  H   H2176     1.0  0.56201  0.90496  0.77909  1.0000
  H   H2177     1.0  0.54953  0.88035  0.74533  1.0000
  H   H2178     1.0  0.62120  0.87707  0.72145  1.0000
  H   H2179     1.0  0.63368  0.90179  0.75521  1.0000
  C   C2722     1.0  0.61405  0.82845  0.54076  1.0000
  C   C2723     1.0  0.60596  0.84280  0.55931  1.0000
  C   C2724     1.0  0.59207  0.83352  0.57790  1.0000
  C   C2725     1.0  0.58608  0.80962  0.57834  1.0000
  C   C2726     1.0  0.59397  0.79533  0.55965  1.0000
  C   C2727     1.0  0.60777  0.80462  0.54101  1.0000
  H   H2180     1.0  0.61062  0.86124  0.55942  1.0000
  H   H2181     1.0  0.58622  0.84483  0.59203  1.0000
  H   H2182     1.0  0.58959  0.77681  0.55970  1.0000
  H   H2183     1.0  0.61376  0.79326  0.52699  1.0000
  C   C2728     1.0  0.76298  0.78748  0.52405  1.0000
  C   C2729     1.0  0.90577  0.90101  0.67429  1.0000
  C   C2730     1.0  0.89962  0.90006  0.65052  1.0000
  C   C2731     1.0  0.88692  0.91881  0.63999  1.0000
  C   C2732     1.0  0.88019  0.93883  0.65297  1.0000
  C   C2733     1.0  0.88659  0.93992  0.67670  1.0000
  C   C2734     1.0  0.89927  0.92112  0.68724  1.0000
  H   H2184     1.0  0.90439  0.88475  0.64029  1.0000
  H   H2185     1.0  0.88214  0.91773  0.62164  1.0000
  H   H2186     1.0  0.88169  0.95517  0.68696  1.0000
  H   H2187     1.0  0.90400  0.92213  0.70560  1.0000
  C   C2735     1.0  0.90526  0.75870  0.60087  1.0000
  C   C2736     1.0  0.89505  0.75615  0.57842  1.0000
  H   H2188     1.0  0.92534  0.76628  0.76009  1.0000
  C   C2737     1.0  0.52556  0.78616  0.51617  1.0000
  H   H2189     1.0  0.89642  0.77045  0.56585  1.0000
  C   C2738     1.0  0.53929  0.80669  0.51638  1.0000
  H   H2190     1.0  0.78823  0.91079  0.50246  1.0000
  C   C2739     1.0  0.67241  0.95917  0.91511  1.0000
  H   H2191     1.0  0.68397  0.86862  0.53094  1.0000
  H   H2192     1.0  0.76361  0.84200  0.52389  1.0000
  H   H2193     1.0  0.65902  0.90609  0.97039  1.0000
  H   H2194     1.0  0.77535  0.78454  0.50990  1.0000
  C   C2740     1.0  0.96370  0.96320  0.68541  1.0000
  H   H2195     1.0  0.72670  0.86419  0.52470  1.0000
  C   C2741     1.0  0.50463  0.74680  0.84525  1.0000
  H   H2196     1.0  0.86278  0.85008  0.75135  1.0000
  C   C2742     1.0  0.96660  0.91726  0.65148  1.0000
  C   C2743     1.0  0.74938  0.76378  0.98657  1.0000
  H   H2197     1.0  0.59230  0.78811  0.75463  1.0000
  C   C2744     1.0  0.69194  0.87435  0.51451  1.0000
  C   C2745     1.0  0.64415  0.96170  0.94726  1.0000
  H   H2198     1.0  0.54426  0.87349  0.50202  1.0000
  C   C2746     1.0  0.97560  0.90342  0.71097  1.0000
  C   C2747     1.0  0.80888  0.74290  0.51648  1.0000
  H   H2199     1.0  0.48969  0.75918  0.78842  1.0000
  H   H2200     1.0  0.52263  0.76244  0.75997  1.0000
  C   C2748     1.0  0.59852  0.92881  0.94370  1.0000
  H   H2201     1.0  0.56798  0.74798  0.76882  1.0000
  H   H2202     1.0  0.91128  0.74380  0.72593  1.0000
  C   C2749     1.0  0.79958  0.91765  0.74882  1.0000
  C   C2750     1.0  0.50601  0.81518  0.57261  1.0000
  C   C2751     1.0  0.50897  0.76024  0.55644  1.0000
  C   C2752     1.0  0.83309  0.96873  0.73129  1.0000
  C   C2753     1.0  0.98779  0.92486  0.71160  1.0000
  C   C2754     1.0  0.76450  0.91177  0.78335  1.0000
  H   H2203     1.0  0.96720  0.89752  0.69506  1.0000
  C   C2755     1.0  0.95553  0.97253  0.66396  1.0000
  C   C2756     1.0  0.56691  0.78910  0.48894  1.0000
  H   H2204     1.0  0.75077  0.92278  0.67293  1.0000
  H   H2205     1.0  0.76122  0.87651  0.77017  1.0000
  C   C2757     1.0  0.63502  0.98248  0.93711  1.0000
  C   C2758     1.0  0.63948  0.80641  0.90171  1.0000
  C   C2759     1.0  0.81636  0.94015  0.67955  1.0000
  H   H2206     1.0  0.56861  0.79464  0.88070  1.0000
  H   H2207     1.0  0.70137  0.95486  0.97037  1.0000
  C   C2760     1.0  0.81333  0.76431  0.52777  1.0000
  H   H2208     1.0  0.83042  0.79823  0.52433  1.0000
  C   C2761     1.0  0.80474  0.94405  0.65824  1.0000
  C   C2762     1.0  0.76915  0.92744  0.67469  1.0000
  H   H2209     1.0  0.94886  0.89547  0.62637  1.0000
  C   C2763     1.0  0.84813  0.98681  0.73812  1.0000
  C   C2764     1.0  0.71857  0.97962  0.94724  1.0000
  H   H2210     1.0  0.98310  0.75274  0.86870  1.0000
  H   H2211     1.0  0.84914  0.77671  0.56149  1.0000
  H   H2212     1.0  0.66650  0.78717  0.88328  1.0000
  C   C2765     1.0  0.49506  0.81043  0.55106  1.0000
  H   H2213     1.0  0.58919  0.87385  0.98354  1.0000
  C   C2766     1.0  0.84347  0.88078  0.73965  1.0000
  C   C2767     1.0  0.70525  0.97325  0.96697  1.0000
  H   H2214     1.0  0.60471  0.76862  0.79183  1.0000
  C   C2768     1.0  0.97953  0.75458  0.73896  1.0000
  H   H2215     1.0  0.53464  0.82144  0.52746  1.0000
  H   H2216     1.0  0.66943  0.93329  0.94224  1.0000
  H   H2217     1.0  0.80965  0.83589  0.61210  1.0000
  H   H2218     1.0  0.94026  0.75706  0.87662  1.0000
  C   C2769     1.0  0.58272  0.91130  0.93699  1.0000
  C   C2770     1.0  0.57941  0.74800  0.83218  1.0000
  C   C2771     1.0  0.76915  0.78282  0.54758  1.0000
  C   C2772     1.0  0.72344  0.79829  0.53606  1.0000
  H   H2219     1.0  0.54712  0.97243  0.74327  1.0000
  H   H2220     1.0  0.66243  0.97005  0.70240  1.0000
  H   H2221     1.0  0.53686  0.83496  0.74471  1.0000
  H   H2222     1.0  0.81531  0.97310  0.72603  1.0000
  H   H2223     1.0  0.85326  0.83264  0.61141  1.0000
  H   H2224     1.0  0.57334  0.91295  0.92051  1.0000
  C   C2773     1.0  0.66258  0.94982  0.93569  1.0000
  H   H2225     1.0  0.79185  0.88154  0.73961  1.0000
  C   C2774     1.0  0.57161  0.78164  0.86711  1.0000
  H   H2226     1.0  0.60105  0.94393  0.93229  1.0000
  C   C2775     1.0  0.96572  0.90171  0.63257  1.0000
  H   H2227     1.0  0.96389  0.96776  0.64752  1.0000
  C   C2776     1.0  0.67161  0.98482  0.70996  1.0000
  S   S383      1.0  0.52154  0.75564  0.70167  1.0000
  H   H2228     1.0  0.58960  0.92204  0.70639  1.0000
  C   C2777     1.0  0.58799  0.93878  0.71536  1.0000
  H   H2229     1.0  0.75045  0.90992  0.79619  1.0000
  H   H2230     1.0  0.55105  0.93460  0.72240  1.0000
  H   H2231     1.0  0.50926  0.83954  0.60126  1.0000
  C   C2778     1.0  0.59245  0.76847  0.86702  1.0000
  H   H2232     1.0  0.67000  0.97096  0.74537  1.0000
  C   C2779     1.0  0.59631  0.75160  0.84962  1.0000
  H   H2233     1.0  0.81408  0.95207  0.64360  1.0000
  C   C2780     1.0  0.85369  0.80473  0.58604  1.0000
  H   H2234     1.0  0.77225  0.94081  0.63924  1.0000
  H   H2235     1.0  0.84174  0.90010  0.68269  1.0000
  H   H2236     1.0  0.87727  0.83998  0.71139  1.0000
  C   C2781     1.0  0.71614  0.74099  0.50042  1.0000
  H   H2237     1.0  0.87274  0.80301  0.58623  1.0000
  C   C2782     1.0  0.50012  0.74367  0.72147  1.0000
  C   C2783     1.0  0.52872  0.79832  0.75014  1.0000
  C   C2784     1.0  0.59951  0.82300  0.76708  1.0000
  C   C2785     1.0  0.86568  0.85500  0.71391  1.0000
  Fe  Fe191     1.0  0.98627  0.82699  0.65593  1.0000
  H   H2238     1.0  0.87084  0.92234  0.73839  1.0000
  H   H2239     1.0  0.77350  0.97586  0.70847  1.0000
  C   C2786     1.0  0.76556  0.98159  0.72480  1.0000
  H   H2240     1.0  0.86640  0.86494  0.67735  1.0000
  C   C2787     1.0  0.84020  0.78990  0.57198  1.0000
  H   H2241     1.0  0.96422  0.87287  0.73035  1.0000
  H   H2242     1.0  0.76020  0.98136  0.66163  1.0000
  P   P93       1.0  0.63105  0.94948  0.97376  1.0000
  C   C2788     1.0  0.55850  0.76135  0.83198  1.0000
  H   H2243     1.0  0.59413  0.83145  0.75077  1.0000
  C   C2789     1.0  0.50765  0.75365  0.82161  1.0000
  C   C2790     1.0  0.53639  0.82045  0.75725  1.0000
  C   C2791     1.0  0.54368  0.82376  0.78040  1.0000
  C   C2792     1.0  0.54390  0.80478  0.79629  1.0000
  C   C2793     1.0  0.53662  0.78229  0.78911  1.0000
  C   C2794     1.0  0.52863  0.77942  0.76598  1.0000
  C   C2795     1.0  0.86418  0.94021  0.73817  1.0000
  C   C2796     1.0  0.81815  0.82319  0.60069  1.0000
  H   H2244     1.0  0.83796  0.88542  0.75728  1.0000
  C   C2797     1.0  0.83813  0.77614  0.49482  1.0000
  H   H2245     1.0  0.71602  0.79539  0.57311  1.0000
  H   H2246     1.0  0.75589  0.78113  0.58332  1.0000
  H   H2247     1.0  0.64395  0.79908  0.91881  1.0000
  H   H2248     1.0  0.72494  0.96620  0.93528  1.0000
  H   H2249     1.0  0.78567  0.80976  0.58772  1.0000
  C   C2798     1.0  0.71620  0.87180  0.51080  1.0000
  C   C2799     1.0  0.56407  0.96742  0.73605  1.0000
  C   C2800     1.0  0.66425  0.91519  0.98617  1.0000
  P   P94       1.0  0.53676  0.75729  0.80917  1.0000
  H   H2250     1.0  0.52303  0.79567  0.73222  1.0000
  C   C2801     1.0  0.86461  0.73959  0.96903  1.0000
  C   C2802     1.0  0.93620  0.98788  0.66354  1.0000
  C   C2803     1.0  0.87137  0.98174  0.74434  1.0000
  H   H2251     1.0  0.54970  0.84098  0.78576  1.0000
  H   H2252     1.0  0.55016  0.80782  0.81386  1.0000
  H   H2253     1.0  0.80163  0.95335  0.76219  1.0000
  C   C2804     1.0  0.95245  0.96982  0.70642  1.0000
  C   C2805     1.0  0.58377  0.98205  0.73868  1.0000
  C   C2806     1.0  0.79357  0.93625  0.76391  1.0000
  C   C2807     1.0  0.78119  0.93763  0.65576  1.0000
  H   H2254     1.0  0.62478  0.94684  0.71217  1.0000
  H   H2255     1.0  0.65878  0.88498  0.49951  1.0000
  C   C2808     1.0  0.50114  0.83616  0.58441  1.0000
  C   C2809     1.0  0.60574  0.97446  0.73010  1.0000
  S   S384      1.0  0.97476  0.78887  0.65436  1.0000
  C   C2810     1.0  0.83715  0.89504  0.72035  1.0000
  H   H2256     1.0  0.68678  0.95007  0.90640  1.0000
  P   P95       1.0  0.82047  0.92186  0.72502  1.0000
  C   C2811     1.0  0.84082  0.94524  0.73170  1.0000
  C   C2812     1.0  0.62141  0.82308  0.89985  1.0000
  C   C2813     1.0  0.79533  0.74465  0.57213  1.0000
  C   C2814     1.0  0.65220  0.79978  0.88170  1.0000
  C   C2815     1.0  0.64722  0.81024  0.85991  1.0000
  C   C2816     1.0  0.62938  0.82736  0.85793  1.0000
  C   C2817     1.0  0.61624  0.83343  0.87806  1.0000
  P   P96       1.0  0.62603  0.84365  0.83061  1.0000
  C   C2818     1.0  0.60637  0.86821  0.83587  1.0000
  C   C2819     1.0  0.65509  0.85446  0.82298  1.0000
  C   C2820     1.0  0.67115  0.86001  0.84086  1.0000
  C   C2821     1.0  0.69421  0.86654  0.83525  1.0000
  C   C2822     1.0  0.70142  0.86798  0.81178  1.0000
  C   C2823     1.0  0.68550  0.86301  0.79386  1.0000
  C   C2824     1.0  0.66245  0.85628  0.79938  1.0000
  C   C2825     1.0  0.58262  0.86707  0.82912  1.0000
  C   C2826     1.0  0.56703  0.88537  0.83466  1.0000
  C   C2827     1.0  0.57480  0.90453  0.84772  1.0000
  C   C2828     1.0  0.59817  0.90544  0.85516  1.0000
  C   C2829     1.0  0.61405  0.88760  0.84890  1.0000
  C   C2830     1.0  0.61467  0.82578  0.80695  1.0000
  C   C2831     1.0  0.61343  0.80115  0.80907  1.0000
  C   C2832     1.0  0.84269  0.82140  0.60034  1.0000
  H   H2257     1.0  0.78635  0.84523  0.56046  1.0000
  C   C2833     1.0  0.72929  0.79352  0.55947  1.0000
  C   C2834     1.0  0.60731  0.83659  0.78589  1.0000
  H   H2258     1.0  0.61208  0.82866  0.91557  1.0000
  H   H2259     1.0  0.98589  0.88092  0.60805  1.0000
  H   H2260     1.0  0.89751  0.95447  0.74883  1.0000
  H   H2261     1.0  0.65797  0.80574  0.84478  1.0000
  H   H2262     1.0  0.60265  0.84683  0.87734  1.0000
  H   H2263     1.0  0.66597  0.85941  0.85922  1.0000
  H   H2264     1.0  0.70632  0.87105  0.84918  1.0000
  H   H2265     1.0  0.71912  0.87362  0.80751  1.0000
  H   H2266     1.0  0.69089  0.86475  0.77563  1.0000
  H   H2267     1.0  0.65063  0.85267  0.78509  1.0000
  H   H2268     1.0  0.57601  0.85208  0.81965  1.0000
  H   H2269     1.0  0.54894  0.88475  0.82878  1.0000
  H   H2270     1.0  0.56279  0.91879  0.85192  1.0000
  H   H2271     1.0  0.60405  0.92015  0.86555  1.0000
  H   H2272     1.0  0.63219  0.88886  0.85447  1.0000
  H   H2273     1.0  0.61877  0.79233  0.82507  1.0000
  H   H2274     1.0  0.54442  0.77348  0.56066  1.0000
  H   H2275     1.0  0.81104  0.91345  0.53903  1.0000
  H   H2276     1.0  0.81035  0.88073  0.56814  1.0000
  H   H2277     1.0  0.60787  0.85559  0.78387  1.0000
  C   C2835     1.0  0.53191  0.75993  0.56554  1.0000
  C   C2836     1.0  0.81548  0.79162  0.57206  1.0000
  C   C2837     1.0  0.60539  0.78761  0.79026  1.0000
  H   H2278     1.0  0.57115  0.82332  0.50419  1.0000
  C   C2838     1.0  0.59851  0.79852  0.76926  1.0000
  H   H2279     1.0  0.92778  0.74753  0.79923  1.0000
  C   C2839     1.0  0.56620  0.94595  0.72430  1.0000
  C   C2840     1.0  0.57923  0.89156  0.95139  1.0000
  C   C2841     1.0  0.78792  0.89598  0.75137  1.0000
  Fe  Fe192     1.0  0.66029  0.98280  0.83870  1.0000
  C   C2842     1.0  0.80458  0.80828  0.58675  1.0000
  C   C2843     1.0  0.77415  0.87615  0.51037  1.0000
  C   C2844     1.0  0.77387  0.85770  0.52697  1.0000
  C   C2845     1.0  0.78682  0.85942  0.54772  1.0000
  C   C2846     1.0  0.80025  0.87945  0.55206  1.0000
  C   C2847     1.0  0.80064  0.89788  0.53565  1.0000
  C   C2848     1.0  0.78763  0.89628  0.51488  1.0000
  H   H2280     1.0  0.77625  0.76225  0.95954  1.0000
  C   C2849     1.0  0.72638  0.87849  0.48920  1.0000
  H   H2281     1.0  0.70570  0.80385  0.53154  1.0000
  H   H2282     1.0  0.56728  0.87780  0.94606  1.0000
  H   H2283     1.0  0.51820  0.80284  0.58057  1.0000
  H   H2284     1.0  0.74405  0.78159  0.98225  1.0000
  C   C2850     1.0  0.77616  0.93325  0.78111  1.0000
  C   C2851     1.0  0.82752  0.78118  0.51646  1.0000
  C   C2852     1.0  0.77048  0.89307  0.76859  1.0000
  H   H2285     1.0  0.95022  0.92265  0.65973  1.0000
  C   C2853     1.0  0.84542  0.88908  0.69782  1.0000
  H   H2286     1.0  0.83465  0.94523  0.68108  1.0000
  H   H2287     1.0  0.53846  0.78823  0.85020  1.0000
  C   C2854     1.0  0.85947  0.86906  0.69465  1.0000
  C   C2855     1.0  0.76776  0.75274  0.97375  1.0000
  H   H2288     1.0  0.51775  0.74459  0.63461  1.0000
  C   C2856     1.0  0.67765  0.88362  0.49676  1.0000
  C   C2857     1.0  0.58849  0.97836  0.81860  1.0000
  C   C2858     1.0  0.60780  0.95288  0.71849  1.0000
  C   C2859     1.0  0.98653  0.89357  0.62223  1.0000
  C   C2860     1.0  0.66367  0.98010  0.90555  1.0000
  C   C2861     1.0  0.91974  0.74818  0.76249  1.0000
  C   C2862     1.0  0.74025  0.79516  0.51836  1.0000
  C   C2863     1.0  0.75197  0.78564  0.56521  1.0000
  H   H2289     1.0  0.85641  0.74278  0.95212  1.0000
  C   C2864     1.0  0.85762  0.86081  0.73639  1.0000
  H   H2290     1.0  0.77115  0.91501  0.71020  1.0000
  C   C2865     1.0  0.61105  0.92661  0.96486  1.0000
  C   C2866     1.0  0.55462  0.77800  0.84978  1.0000
  H   H2291     1.0  0.95841  0.96298  0.72318  1.0000
  C   C2867     1.0  0.87945  0.95845  0.74421  1.0000
  C   C2868     1.0  0.58383  0.98213  0.79473  1.0000
  H   H2292     1.0  0.57922  0.96717  0.78403  1.0000
  H   H2293     1.0  0.73542  0.79802  0.50010  1.0000
  H   H2294     1.0  0.83105  0.74521  0.58570  1.0000
  H   H2295     1.0  0.67125  0.98715  0.88949  1.0000
  C   C2869     1.0  0.67580  0.98535  0.73414  1.0000
  C   C2870     1.0  0.56001  0.80795  0.50306  1.0000
  H   H2296     1.0  0.55653  0.74275  0.58868  1.0000
  H   H2297     1.0  0.52390  0.75028  0.50359  1.0000
  C   C2871     1.0  0.59144  0.88938  0.97258  1.0000
  H   H2298     1.0  0.98294  0.88537  0.76764  1.0000
  C   C2872     1.0  0.94640  0.74491  0.86330  1.0000
  C   C2873     1.0  0.97393  0.88926  0.73110  1.0000
  C   C2874     1.0  0.53330  0.76681  0.50285  1.0000
  C   C2875     1.0  0.60708  0.90694  0.97945  1.0000
  C   C2876     1.0  0.98437  0.89637  0.75205  1.0000
  H   H2299     1.0  0.61243  0.74129  0.84963  1.0000
  H   H2300     1.0  0.70019  0.74975  0.50616  1.0000
  H   H2301     1.0  0.62133  0.98497  0.73258  1.0000
  H   H2302     1.0  0.51961  0.74418  0.85666  1.0000
  C   C2877     1.0  0.55360  0.76849  0.48889  1.0000
  C   C2878     1.0  0.93329  0.98544  0.70592  1.0000
  C   C2879     1.0  0.53890  0.74238  0.58141  1.0000
  H   H2303     1.0  0.50507  0.86215  0.48823  1.0000
  C   C2880     1.0  0.49308  0.74266  0.56357  1.0000
  H   H2304     1.0  0.91122  0.74117  0.63396  1.0000
