data_image0
_chemical_formula_structural       H2CFeS2FeSCFeSFeS3FeH2FeS2FeS2CH2CSC7H6C6H4C2HCHC2HC3HC2H2CSC2PCHCH2CHCH2CH2CH2C3PCH3C3HC7HC7H2CH4C2HCH6CHC2SC2H3C2HCHC2H2SHC5H3SC2HPHSC2H4C2HCHC2H2CPHC9PC3H4CHCHCHCS2H2C3H2C2H2CH2CH3C6PC17H9C2H7C2HC3HCHC2H3CHCHCHCH4CH2CH2CHC2HC5HCHCHC6HC3HCSCSHFeSCH2Fe2SCFeSC2FeS2FeSHCHCHC6HCHC12H4CH4PH4CH4C2HC5HPH2CHC2H3C2HCH5CHC4HCH2CFeC4H2CH3C3H2C2H4CSC2HC5H3CH5SH3CPC4SC8HC2HPC2HC2H4C2HC2H2FeH3C2HSH3C4HSCH2CH2SHC3HFeS2FeS2FeSFeS3HSH2SCS4HFeSCSFeSFeSCHC5H2C6HCH2C3HC2HC7H4CHPHCH2C6H4C2H2C2SCHFeH2C4HC2HCHFeHC2HCH3C2HCH2C2HPC3HCPH2C6HPCH2C5HCFeC3H6C4H2CHCH2C3HCH2C2H2C6H2C4HCFeCH5C5HPC3HC3HSPC7HC2HCHCH2C2H5C9H6CH3SCHC4HPC2H4CHCHC4FeC2H3C4HFeHC2HCH2C5HC2H2C3HC2HC6HC5H4C2H2C6HCHCHPSHC2H3C2H4CHC4HSH2CHC3H2SC2H4C4H2C3HFeCHCH2FeH2CHC2HC2H2CHSHCH5C3H2FeCHCH2C2H2CHCFeS4FeCH4CHSCHCSCFeSCSFeS2FeSFeS2FeS2FeSFeSFeS2HFeCSC2HC8H4C3H2C8H2CHCHCSC6H7C2PCHC7H4C2H2C2H2C2HSH2C4H3CH6C4FeH2FeHCH2C4SH2C2H2C6PC18HCH4CH4CH7PSC3HC5HSCHC3H2CHCH2CH4SC2HC2HC3SCFeC2HC8H6CHPHC2H2CHC2FeCHC3HSC2SC2HCHSCHCH6CHCHPC3HC3HCHCHCHC3HCHC3HCHCH2CHCH2C3HC3HC2HCHCH3CHSCHPCH3C4HSCH4CH3CH5C2HCHC3H2SHC2H2C2H4CHCH2C2H2C2HC4SH2SH2CSHCHC2S2FeS2FeS2FeSFeCS2CHC12H5PHCHC2H2C8H2C2HCHCHCHCH2C4H4CHC2HCH5C2H2C9H4CH2C2HCHCH4C2H2C4HC2HC4PC3FeHC3HCHC5H3CH5CHPH2CHC2FeHCH2SCH4CSHCH2CH8FeS2HSFeHSFeSH2CSC2SCH2FeC2HFeC2H2C7H3CHC4H2C3HCH2CH2CH3CHC2PC3SH2C4H2C2HCH4C2HC3HC2HCSCH2CH3CHCHC4HSHCHC3SCS2CH3CHCSH2C2HFeC2H2C3HPHCFeH2PCH2CS2FeS2FeCSCHFeS3FeH3C2HC3HCPC5HCH3C6H5CH2C2H2C2FeC3HCHC3HCSC4PCH3CHCH2C9HC2H3CHC2H5CH4C3H4SCHC2H2CH2C2HC5HCH2C2HC8H2S2CHC2FeH4C3H2CHC2HC2HCHSC2FeH2C2H2C3H2C2HCH2CHC3HC4HCHCH2CHC3HCHC2H2C2HCH4C2H2CHCH5C2HFeSH2C2HFeH2CPC2HC2HC5HC5H3CHPH3CFeC4HCHC2H2C3FeHC2HC2HC2HC2H4C3HCHPC2HC2H2C2H2CH2CSH3CHPH2C2H2CH2CHCSC2H2CH2SHC5HCHCHFeSHC3FeCSHSCHFeHSC2S2CSHC2SC2HC2SC2HC2SCHCHSFeSC5FeHSFeS2FeSHFeSFeS3FeHSFeHFeSCSCHSCHSH2C3H2C6H7C6H5CHC2H3CHC2HCHSC2SH2CHCH4C4H2CH2C2HCHCH3C2H3CS2CHCHC7PC3HC10HC3H3C2H6CHCFeH2C2H3CH6C7PC4HC11PC2H2CHC6H4C3H2C3SH2C2HC2HC2HC3H2CH4CHCH2CH2CSCHCFeS2FeSHCHC2FeS2HSHFeSFeS2HC4FeH5CHC2HFeCPHC7H3C6H5CPCHC2SHCHCHC6PHC2HCHCSH6CPCHC2H2C3HCHCSC3H2C7FeC4SH4CH3FeCH4C4HCH2SH2CH3C2HC3HSH2CH3C2HC3HCHCHC2HCHCHCHC3SC2HCHC2H2C2H3C3H2CHPHSHC2HCHCHCHPCH2CHC2FeC3H3C3HCHC2HC2HCHCHCHC2SC2H2C3H3C3HCH2CH2C2HCH3CHCH2SHFeCH2C2PCH2CH3CH2CHC2SCHCHC4FeSC3SH4FeS2FeCSC2FeCS2C3HPH3CH3C2PSC12H2CH2C8H2CHC2HC3SHC3H5CHCHC2HC2HC2HC7H2CH3CH2C2HCH3CPC4HC7PSCHC2HCH4CHC2HCH6CHCHPHC5H2C2H2C2H3CH2C2HFeH4SHFeS2CSFe2SFeS2FeS2FeSFeS3HCSC3S2FeS2FeSFeSFeS3HC2H3C8H4C2HC6H4C6H4C3SC7H4C6HCHSC2HCH2C5H3C2HC8PC3H2C3HC9H7CH12CHC4HCH4CHCHC6HC2H3C2H3C2H4C2H2C6H3CH3C2FeHCH4C2H3CH2CH2C5H2CH2CH2CHCFeC3H3CH2C2HC4H2SC2H2CH3CH2CHPH3C3HCHCH3C9HC3H3CHC5PHPC3H2C8H2CHCHCH2C3HCH4C2HCFeC4HCH4C2HC3H2C2H2CHC2H2CH2CH2CPCHC2HC3HCPHCHCHCHCSCSHCH3PCH2C6HC2FeSCHC3SH3FeCS2FeS2FeSFeSFeSH2CHFeS2H5FeHCFeS2FeS2FeSFeS3HSCSCH3CHC6H5SH2C3SC2HC2H2C6H4C7H3C4H2CHCH3CSCHC3H3CHFeC2SC4H2CPC4HC2FeHCHSHCH2CH3C7HC4HCHCH2CHCHCSCH5CPC2SCH5C4PC7SC6H11CH4C12H7C5SCHC3HCHC5H2C7PC14H2C2H10C2H2CHCH2C2H2C2H2CHSHCPH2FeHC4HC2H2CHCHFeSC7HC3HCHSFeH2FeH2C4HCHCH3SC2HC5PH3CH3C2HCHC3FeSC4H4C2HCHSCHCHC4HC3H2C2H3FeCSHCH2CH2SC2H2FeSFeSHCHC3HCH3C3HSC6H4PC4H2C3H2CHC8H5CHC2HCH3C2H2C2PSH2CH2C4H5C2HCSCHCH2C3PC14H15CHC3HC3HCPHCHCH2CH2C3HC6HSH2C5HCHCHCHC3FeSHCH2CHC3SH2CSC2H2CHCHFe2S3FeS2FeS2FeSFeS3HSCH4C4H3C6H5SHC7H6C3HC6PC18H12C2H6C2HPC2SC2HC2HCH2C3H4C10HC3H2PHC2HCH4CH2CHC2HC6H3CHC2H3CH2C2HCH4FeH2C6HC4H7CHC2H5C2SHC6HC3HC2HCHCHCH2CHFeC2H3SH2CH3C5H5CH2CH2C2PHC
_chemical_formula_sum              "H1728 C2160 Fe144 S288 P72"
_cell_length_a       62.0545
_cell_length_b       70.6193
_cell_length_c       32.684
_cell_angle_alpha    84.8869
_cell_angle_beta     87.7165
_cell_angle_gamma    107.552

_space_group_name_H-M_alt    "P 1"
_space_group_IT_number       1

loop_
  _space_group_symop_operation_xyz
  'x, y, z'

loop_
  _atom_site_type_symbol
  _atom_site_label
  _atom_site_symmetry_multiplicity
  _atom_site_fract_x
  _atom_site_fract_y
  _atom_site_fract_z
  _atom_site_occupancy
  H   H1        1.0  0.33635  0.12326  0.19452  1.0000
  H   H2        1.0  0.99654  0.22563  0.33490  1.0000
  C   C1        1.0  0.19677  0.23788  0.49144  1.0000
  Fe  Fe1       1.0  0.27193  0.04786  0.30808  1.0000
  S   S1        1.0  0.29612  0.06795  0.34667  1.0000
  S   S2        1.0  0.28677  0.05293  0.24183  1.0000
  Fe  Fe2       1.0  0.24249  0.02385  0.38448  1.0000
  S   S3        1.0  0.26468  0.04219  0.42774  1.0000
  C   C2        1.0  0.37087  0.09618  0.29306  1.0000
  Fe  Fe3       1.0  0.26550  0.06879  0.38389  1.0000
  S   S4        1.0  0.26745  0.09656  0.41506  1.0000
  Fe  Fe4       1.0  0.29359  0.04013  0.38715  1.0000
  S   S5        1.0  0.32444  0.03533  0.41464  1.0000
  S   S6        1.0  0.24096  0.05082  0.34242  1.0000
  S   S7        1.0  0.27151  0.01958  0.34663  1.0000
  Fe  Fe5       1.0  0.31312  0.22801  0.40029  1.0000
  H   H3        1.0  0.21630  0.05837  0.48011  1.0000
  H   H4        1.0  0.29835  0.11471  0.16897  1.0000
  Fe  Fe6       1.0  0.33623  0.22215  0.31808  1.0000
  S   S8        1.0  0.30728  0.22487  0.28215  1.0000
  S   S9        1.0  0.36694  0.21649  0.28829  1.0000
  Fe  Fe7       1.0  0.28563  0.20498  0.33565  1.0000
  S   S10       1.0  0.25795  0.17691  0.32448  1.0000
  S   S11       1.0  0.31471  0.20106  0.36981  1.0000
  C   C3        1.0  0.39471  0.99710  0.47871  1.0000
  H   H5        1.0  0.34630  0.07238  0.52156  1.0000
  H   H6        1.0  0.29274  0.10745  0.09686  1.0000
  C   C4        1.0  0.32793  0.11102  0.08193  1.0000
  S   S12       1.0  0.20976  0.99943  0.40777  1.0000
  C   C5        1.0  0.39447  0.05352  0.49159  1.0000
  C   C6        1.0  0.26467  0.11851  0.38858  1.0000
  C   C7        1.0  0.27335  0.13656  0.40561  1.0000
  C   C8        1.0  0.27138  0.15442  0.38614  1.0000
  C   C9        1.0  0.26011  0.15438  0.34993  1.0000
  C   C10       1.0  0.25070  0.13617  0.33350  1.0000
  C   C11       1.0  0.25334  0.11831  0.35234  1.0000
  H   H7        1.0  0.28168  0.13674  0.43406  1.0000
  H   H8        1.0  0.27823  0.16811  0.39984  1.0000
  H   H9        1.0  0.24183  0.13596  0.30565  1.0000
  H   H10       1.0  0.24633  0.10439  0.33928  1.0000
  H   H11       1.0  0.00402  0.21165  0.51000  1.0000
  H   H12       1.0  0.36882  0.08906  0.32437  1.0000
  C   C12       1.0  0.27808  0.06544  0.10376  1.0000
  C   C13       1.0  0.29815  0.06337  0.11848  1.0000
  C   C14       1.0  0.30009  0.05949  0.16067  1.0000
  C   C15       1.0  0.28209  0.05764  0.18933  1.0000
  C   C16       1.0  0.26178  0.05969  0.17524  1.0000
  C   C17       1.0  0.25982  0.06360  0.13247  1.0000
  H   H13       1.0  0.31246  0.06506  0.09764  1.0000
  H   H14       1.0  0.31575  0.05793  0.17128  1.0000
  H   H15       1.0  0.24768  0.05822  0.19709  1.0000
  H   H16       1.0  0.24416  0.06513  0.12156  1.0000
  C   C18       1.0  0.34414  0.03344  0.37651  1.0000
  C   C19       1.0  0.35960  0.02312  0.38623  1.0000
  H   H17       1.0  0.36030  0.01731  0.41780  1.0000
  C   C20       1.0  0.97433  0.23248  0.19139  1.0000
  H   H18       1.0  0.40016  0.01293  0.46874  1.0000
  C   C21       1.0  0.37968  0.10240  0.40510  1.0000
  C   C22       1.0  0.31268  0.11529  0.14851  1.0000
  H   H19       1.0  0.38355  0.19434  0.11760  1.0000
  C   C23       1.0  0.37621  0.11403  0.21150  1.0000
  C   C24       1.0  0.28697  0.16620  0.13729  1.0000
  C   C25       1.0  0.17424  0.23835  0.49378  1.0000
  H   H20       1.0  0.26307  0.04306  0.52060  1.0000
  C   C26       1.0  0.30956  0.11121  0.10785  1.0000
  C   C27       1.0  0.29161  0.06955  0.50677  1.0000
  H   H21       1.0  0.04028  0.19860  0.51130  1.0000
  H   H22       1.0  0.34763  0.08843  0.20171  1.0000
  C   C28       1.0  0.42152  0.11165  0.07018  1.0000
  S   S13       1.0  0.38616  0.01884  0.27352  1.0000
  C   C29       1.0  0.42737  0.01257  0.20228  1.0000
  C   C30       1.0  0.42827  0.17920  0.14655  1.0000
  P   P1        1.0  0.38035  0.12417  0.15798  1.0000
  C   C31       1.0  0.02594  0.23462  0.05217  1.0000
  H   H23       1.0  0.35596  0.22949  0.13978  1.0000
  C   C32       1.0  0.40585  0.23204  0.18109  1.0000
  H   H24       1.0  0.24882  0.01688  0.21142  1.0000
  H   H25       1.0  0.17987  0.18908  0.43515  1.0000
  C   C33       1.0  0.37146  0.04453  0.50319  1.0000
  H   H26       1.0  0.26654  0.11943  0.04897  1.0000
  C   C34       1.0  0.31509  0.07772  0.50720  1.0000
  H   H27       1.0  0.33697  0.19292  0.47382  1.0000
  H   H28       1.0  0.24938  0.18262  0.41441  1.0000
  C   C35       1.0  0.05850  0.22996  0.49822  1.0000
  H   H29       1.0  0.38901  0.04593  0.06035  1.0000
  H   H30       1.0  0.03045  0.23414  0.08384  1.0000
  C   C36       1.0  0.16095  0.22631  0.36135  1.0000
  H   H31       1.0  0.36126  0.07257  0.43222  1.0000
  H   H32       1.0  0.40247  0.13220  0.07480  1.0000
  C   C37       1.0  0.99811  0.14934  0.12508  1.0000
  C   C38       1.0  0.38815  0.11409  0.28138  1.0000
  C   C39       1.0  0.23194  0.20340  0.42942  1.0000
  P   P2        1.0  0.26952  0.15306  0.09931  1.0000
  C   C40       1.0  0.29009  0.18382  0.19855  1.0000
  H   H33       1.0  0.31117  0.17939  0.05402  1.0000
  H   H34       1.0  0.34252  0.22240  0.21427  1.0000
  H   H35       1.0  0.33119  0.04862  0.32821  1.0000
  C   C41       1.0  0.31196  0.18257  0.20247  1.0000
  C   C42       1.0  0.32139  0.17314  0.17411  1.0000
  C   C43       1.0  0.21777  0.20044  0.50056  1.0000
  H   H36       1.0  0.23375  0.21007  0.39789  1.0000
  C   C44       1.0  0.39889  0.11299  0.13171  1.0000
  C   C45       1.0  0.35897  0.09599  0.22358  1.0000
  C   C46       1.0  0.25171  0.12919  0.12393  1.0000
  C   C47       1.0  0.39286  0.18436  0.12863  1.0000
  C   C48       1.0  0.38306  0.99823  0.02902  1.0000
  C   C49       1.0  0.39393  0.15087  0.15098  1.0000
  C   C50       1.0  0.98188  0.20422  0.16376  1.0000
  H   H37       1.0  0.35658  0.04305  0.27286  1.0000
  C   C51       1.0  0.25763  0.18015  0.04370  1.0000
  C   C52       1.0  0.25601  0.12182  0.16308  1.0000
  C   C53       1.0  0.24234  0.10326  0.18175  1.0000
  C   C54       1.0  0.22409  0.09203  0.16169  1.0000
  C   C55       1.0  0.21946  0.09937  0.12300  1.0000
  C   C56       1.0  0.23312  0.11794  0.10426  1.0000
  C   C57       1.0  0.41729  0.15869  0.15529  1.0000
  H   H38       1.0  0.39987  0.09170  0.18348  1.0000
  H   H39       1.0  0.38386  0.00985  0.36185  1.0000
  C   C58       1.0  0.35273  0.11886  0.13774  1.0000
  H   H40       1.0  0.33835  0.17221  0.17745  1.0000
  H   H41       1.0  0.42536  0.07724  0.14699  1.0000
  H   H42       1.0  0.16331  0.23394  0.46913  1.0000
  H   H43       1.0  0.28270  0.19088  0.22110  1.0000
  C   C59       1.0  0.37290  0.01885  0.35466  1.0000
  C   C60       1.0  0.42814  0.09624  0.09037  1.0000
  H   H44       1.0  0.38797  0.22715  0.46985  1.0000
  C   C61       1.0  0.00151  0.18267  0.09309  1.0000
  H   H45       1.0  0.21209  0.19745  0.03962  1.0000
  H   H46       1.0  0.24596  0.09748  0.21169  1.0000
  H   H47       1.0  0.21368  0.07754  0.17601  1.0000
  H   H48       1.0  0.20539  0.09058  0.10736  1.0000
  H   H49       1.0  0.22936  0.12342  0.07420  1.0000
  H   H50       1.0  0.98783  0.13525  0.14132  1.0000
  C   C62       1.0  0.41778  0.02129  0.04839  1.0000
  H   H51       1.0  0.20071  0.17464  0.10442  1.0000
  C   C63       1.0  0.36775  0.22917  0.16296  1.0000
  C   C64       1.0  0.02114  0.15254  0.11527  1.0000
  S   S14       1.0  0.33602  0.06625  0.02825  1.0000
  C   C65       1.0  0.30664  0.16520  0.04111  1.0000
  C   C66       1.0  0.22674  0.18472  0.50976  1.0000
  H   H52       1.0  0.31249  0.22624  0.10748  1.0000
  H   H53       1.0  0.02872  0.14093  0.12389  1.0000
  H   H54       1.0  0.39966  0.12093  0.30368  1.0000
  C   C67       1.0  0.28342  0.01747  0.09673  1.0000
  C   C68       1.0  0.15735  0.19245  0.38892  1.0000
  H   H55       1.0  0.32537  0.10751  0.05050  1.0000
  C   C69       1.0  0.32813  0.06579  0.52172  1.0000
  H   H56       1.0  0.40433  0.13682  0.23234  1.0000
  C   C70       1.0  0.35762  0.03769  0.30454  1.0000
  C   C71       1.0  0.34335  0.04093  0.33576  1.0000
  H   H57       1.0  0.35975  0.01738  0.18087  1.0000
  H   H58       1.0  0.34249  0.07361  0.27308  1.0000
  S   S15       1.0  0.27594  0.07118  0.05004  1.0000
  H   H59       1.0  0.42460  0.20785  0.12540  1.0000
  C   C72       1.0  0.38179  0.16391  0.13753  1.0000
  C   C73       1.0  0.17837  0.23358  0.38712  1.0000
  C   C74       1.0  0.29370  0.23271  0.15838  1.0000
  C   C75       1.0  0.30888  0.16474  0.14195  1.0000
  C   C76       1.0  0.29686  0.23785  0.49805  1.0000
  H   H60       1.0  0.30002  0.02562  0.08212  1.0000
  H   H61       1.0  0.26556  0.02847  0.04973  1.0000
  H   H62       1.0  0.27947  0.21935  0.15798  1.0000
  S   S16       1.0  0.40188  0.23952  0.09899  1.0000
  C   C77       1.0  0.24076  0.18765  0.43867  1.0000
  C   C78       1.0  0.21650  0.17601  0.08725  1.0000
  H   H63       1.0  0.43909  0.08957  0.07416  1.0000
  P   P3        1.0  0.98846  0.20180  0.07901  1.0000
  H   H64       1.0  0.30643  0.01227  0.49053  1.0000
  S   S17       1.0  0.31864  0.23359  0.46697  1.0000
  C   C79       1.0  0.23067  0.16522  0.10198  1.0000
  C   C80       1.0  0.98065  0.22642  0.48681  1.0000
  H   H65       1.0  0.05760  0.22945  0.46539  1.0000
  H   H66       1.0  0.05223  0.17316  0.08657  1.0000
  H   H67       1.0  0.32144  0.18862  0.22801  1.0000
  H   H68       1.0  0.26039  0.22182  0.07372  1.0000
  C   C81       1.0  0.34943  0.11463  0.09688  1.0000
  C   C82       1.0  0.37170  0.02594  0.31374  1.0000
  H   H69       1.0  0.39613  0.10063  0.41031  1.0000
  C   C83       1.0  0.17481  0.19966  0.41466  1.0000
  H   H70       1.0  0.36394  0.15841  0.13274  1.0000
  C   C84       1.0  0.39814  0.22679  0.22267  1.0000
  C   C85       1.0  0.35613  0.08732  0.26421  1.0000
  H   H71       1.0  0.36321  0.11400  0.07639  1.0000
  H   H72       1.0  0.26061  0.17657  0.16409  1.0000
  C   C86       1.0  0.43819  0.99842  0.19459  1.0000
  P   P4        1.0  0.20825  0.22975  0.44667  1.0000
  H   H73       1.0  0.24529  0.16621  0.48584  1.0000
  C   C87       1.0  0.27765  0.17572  0.16607  1.0000
  C   C88       1.0  0.22283  0.18877  0.05066  1.0000
  C   C89       1.0  0.33424  0.11963  0.16312  1.0000
  C   C90       1.0  0.35643  0.04638  0.16392  1.0000
  C   C91       1.0  0.36092  0.06251  0.13341  1.0000
  C   C92       1.0  0.37315  0.06242  0.09665  1.0000
  C   C93       1.0  0.38035  0.04597  0.08970  1.0000
  C   C94       1.0  0.37571  0.02963  0.12002  1.0000
  C   C95       1.0  0.36371  0.02996  0.15720  1.0000
  P   P5        1.0  0.38308  0.00748  0.11061  1.0000
  C   C96       1.0  0.32693  0.99134  0.25343  1.0000
  C   C97       1.0  0.40721  0.12015  0.09090  1.0000
  C   C98       1.0  0.25137  0.16718  0.08026  1.0000
  H   H74       1.0  0.35993  0.03876  0.47996  1.0000
  H   H75       1.0  0.31667  0.15652  0.47980  1.0000
  H   H76       1.0  0.22553  0.15548  0.13050  1.0000
  H   H77       1.0  0.36427  0.20863  0.41405  1.0000
  C   C99       1.0  0.22061  0.21012  0.46032  1.0000
  H   H78       1.0  0.42717  0.11691  0.03820  1.0000
  C   C100      1.0  0.39532  0.00934  0.05874  1.0000
  H   H79       1.0  0.97482  0.20595  0.22842  1.0000
  C   C101      1.0  0.42042  0.08932  0.13135  1.0000
  H   H80       1.0  0.31625  0.15690  0.12119  1.0000
  C   C102      1.0  0.41056  0.01529  0.17723  1.0000
  S   S18       1.0  0.28262  0.23081  0.36902  1.0000
  S   S19       1.0  0.97395  0.21189  0.44489  1.0000
  H   H81       1.0  0.34707  0.04639  0.19265  1.0000
  H   H82       1.0  0.35490  0.07508  0.13804  1.0000
  C   C103      1.0  0.28149  0.00545  0.13384  1.0000
  C   C104      1.0  0.18560  0.22028  0.41365  1.0000
  C   C105      1.0  0.28137  0.13175  0.03815  1.0000
  H   H83       1.0  0.42711  0.14888  0.16450  1.0000
  H   H84       1.0  0.33562  0.00531  0.10001  1.0000
  C   C106      1.0  0.03438  0.17071  0.09429  1.0000
  C   C107      1.0  0.39078  0.12307  0.24077  1.0000
  H   H85       1.0  0.42750  0.02994  0.07094  1.0000
  H   H86       1.0  0.14926  0.17650  0.38955  1.0000
  C   C108      1.0  0.31224  0.23666  0.12976  1.0000
  H   H87       1.0  0.37685  0.07508  0.07325  1.0000
  H   H88       1.0  0.44634  0.18517  0.14943  1.0000
  C   C109      1.0  0.15047  0.20575  0.36221  1.0000
  H   H89       1.0  0.40242  0.02623  0.18439  1.0000
  H   H90       1.0  0.43145  0.02100  0.22861  1.0000
  H   H91       1.0  0.13706  0.20010  0.34207  1.0000
  C   C110      1.0  0.30057  0.14908  0.28578  1.0000
  C   C111      1.0  0.29423  0.13102  0.26834  1.0000
  C   C112      1.0  0.30613  0.11729  0.27588  1.0000
  C   C113      1.0  0.32420  0.12156  0.30133  1.0000
  C   C114      1.0  0.33001  0.13931  0.32045  1.0000
  C   C115      1.0  0.31838  0.15324  0.31176  1.0000
  P   P6        1.0  0.35410  0.14537  0.35152  1.0000
  C   C116      1.0  0.34897  0.16045  0.39057  1.0000
  C   C117      1.0  0.35672  0.12254  0.37796  1.0000
  C   C118      1.0  0.37803  0.12029  0.38533  1.0000
  C   C119      1.0  0.36010  0.08661  0.41765  1.0000
  C   C120      1.0  0.33888  0.08882  0.41104  1.0000
  C   C121      1.0  0.33713  0.10670  0.39169  1.0000
  C   C122      1.0  0.36006  0.18114  0.38713  1.0000
  C   C123      1.0  0.35617  0.19263  0.41764  1.0000
  C   C124      1.0  0.34066  0.18377  0.45118  1.0000
  C   C125      1.0  0.32915  0.16332  0.45439  1.0000
  C   C126      1.0  0.33327  0.15169  0.42426  1.0000
  C   C127      1.0  0.37899  0.15945  0.31851  1.0000
  C   C128      1.0  0.37744  0.16328  0.27592  1.0000
  C   C129      1.0  0.39609  0.17572  0.25113  1.0000
  C   C130      1.0  0.41655  0.18422  0.26834  1.0000
  C   C131      1.0  0.41834  0.18047  0.31056  1.0000
  C   C132      1.0  0.39959  0.16831  0.33563  1.0000
  H   H92       1.0  0.29127  0.15969  0.28013  1.0000
  H   H93       1.0  0.27983  0.12756  0.24968  1.0000
  H   H94       1.0  0.30118  0.10318  0.26258  1.0000
  H   H95       1.0  0.33334  0.11084  0.30651  1.0000
  H   H96       1.0  0.32297  0.16732  0.32504  1.0000
  H   H97       1.0  0.39346  0.13209  0.37557  1.0000
  H   H98       1.0  0.32369  0.07651  0.42072  1.0000
  H   H99       1.0  0.32038  0.10796  0.38707  1.0000
  H   H100      1.0  0.37119  0.18865  0.36039  1.0000
  C   C133      1.0  0.40583  0.09761  0.15198  1.0000
  C   C134      1.0  0.28704  0.14973  0.05646  1.0000
  H   H101      1.0  0.34319  0.99406  0.26629  1.0000
  H   H102      1.0  0.32378  0.13598  0.42695  1.0000
  H   H103      1.0  0.36171  0.15729  0.26171  1.0000
  H   H104      1.0  0.39443  0.17933  0.21876  1.0000
  H   H105      1.0  0.43081  0.19419  0.24909  1.0000
  H   H106      1.0  0.43404  0.18753  0.32408  1.0000
  H   H107      1.0  0.40091  0.16647  0.36859  1.0000
  C   C135      1.0  0.23830  0.17836  0.47884  1.0000
  C   C136      1.0  0.41608  0.19200  0.13303  1.0000
  H   H108      1.0  0.22602  0.02708  0.26330  1.0000
  C   C137      1.0  0.37532  0.22327  0.23512  1.0000
  C   C138      1.0  0.31341  0.00147  0.50575  1.0000
  C   C139      1.0  0.98135  0.23296  0.11805  1.0000
  H   H109      1.0  0.20162  0.02152  0.48113  1.0000
  C   C140      1.0  0.02463  0.18573  0.08317  1.0000
  H   H110      1.0  0.26990  0.13032  0.17931  1.0000
  C   C141      1.0  0.36011  0.22473  0.20514  1.0000
  C   C142      1.0  0.26399  0.01909  0.07847  1.0000
  H   H111      1.0  0.40057  0.05444  0.45973  1.0000
  H   H112      1.0  0.98349  0.18943  0.16928  1.0000
  H   H113      1.0  0.28159  0.07857  0.49402  1.0000
  C   C143      1.0  0.98415  0.21395  0.12366  1.0000
  H   H114      1.0  0.32322  0.09319  0.49547  1.0000
  C   C144      1.0  0.26707  0.23756  0.06350  1.0000
  H   H115      1.0  0.31891  0.99599  0.35719  1.0000
  C   C145      1.0  0.39076  0.23317  0.15093  1.0000
  H   H116      1.0  0.22419  0.23731  0.35919  1.0000
  C   C146      1.0  0.40428  0.00375  0.14427  1.0000
  H   H117      1.0  0.45062  0.99582  0.21496  1.0000
  H   H118      1.0  0.22758  0.01020  0.08323  1.0000
  H   H119      1.0  0.97221  0.16754  0.03150  1.0000
  H   H120      1.0  0.28108  0.00787  0.25543  1.0000
  C   C147      1.0  0.98831  0.16431  0.11398  1.0000
  H   H121      1.0  0.03523  0.19958  0.06676  1.0000
  H   H122      1.0  0.41004  0.22581  0.24544  1.0000
  C   C148      1.0  0.24257  0.00876  0.09734  1.0000
  H   H123      1.0  0.42366  0.23516  0.17224  1.0000
  H   H124      1.0  0.31788  0.01389  0.28419  1.0000
  C   C149      1.0  0.28112  0.04960  0.52194  1.0000
  H   H125      1.0  0.29679  0.00464  0.14760  1.0000
  C   C150      1.0  0.28069  0.22162  0.52045  1.0000
  C   C151      1.0  0.24333  0.19076  0.02883  1.0000
  H   H126      1.0  0.27975  0.20659  0.51444  1.0000
  C   C152      1.0  0.00634  0.22064  0.04067  1.0000
  C   C153      1.0  0.99620  0.22311  0.51458  1.0000
  C   C154      1.0  0.23832  0.00567  0.23472  1.0000
  C   C155      1.0  0.97712  0.21356  0.19751  1.0000
  C   C156      1.0  0.21262  0.99764  0.29585  1.0000
  H   H127      1.0  0.15570  0.23661  0.34046  1.0000
  C   C157      1.0  0.22550  0.01158  0.26430  1.0000
  H   H128      1.0  0.42758  0.06686  0.51254  1.0000
  C   C158      1.0  0.31270  0.00245  0.26364  1.0000
  H   H129      1.0  0.20302  0.00229  0.31930  1.0000
  C   C159      1.0  0.24056  0.99663  0.13436  1.0000
  C   C160      1.0  0.20923  0.02811  0.50792  1.0000
  C   C161      1.0  0.40966  0.06050  0.52132  1.0000
  C   C162      1.0  0.21739  0.04885  0.50743  1.0000
  C   C163      1.0  0.29156  0.99878  0.24754  1.0000
  C   C164      1.0  0.26001  0.99477  0.15266  1.0000
  H   H130      1.0  0.27368  0.18248  0.02687  1.0000
  C   C165      1.0  0.33641  0.99034  0.10813  1.0000
  C   C166      1.0  0.04864  0.21233  0.52423  1.0000
  C   C167      1.0  0.39249  0.99053  0.52100  1.0000
  H   H131      1.0  0.20857  0.20481  0.52490  1.0000
  C   C168      1.0  0.30155  0.19817  0.93339  1.0000
  S   S20       1.0  0.36400  0.00906  0.66085  1.0000
  C   C169      1.0  0.37109  0.02156  0.88684  1.0000
  S   S21       1.0  0.41830  0.01753  0.66668  1.0000
  H   H132      1.0  0.33583  0.17433  0.99743  1.0000
  Fe  Fe8       1.0  0.38968  0.02236  0.70459  1.0000
  S   S22       1.0  0.39219  0.05188  0.72924  1.0000
  C   C170      1.0  0.41564  0.01058  0.97987  1.0000
  H   H133      1.0  0.45940  0.01321  0.53192  1.0000
  H   H134      1.0  0.30610  0.02041  0.72911  1.0000
  Fe  Fe9       1.0  0.30417  0.06980  0.00407  1.0000
  Fe  Fe10      1.0  0.33340  0.04349  0.98392  1.0000
  S   S23       1.0  0.30061  0.04574  0.96194  1.0000
  C   C171      1.0  0.44977  0.11752  0.92577  1.0000
  Fe  Fe11      1.0  0.35366  0.08917  0.97620  1.0000
  S   S24       1.0  0.32190  0.09379  0.95289  1.0000
  C   C172      1.0  0.45008  0.06937  0.72034  1.0000
  C   C173      1.0  0.36345  0.04248  0.54464  1.0000
  Fe  Fe12      1.0  0.32247  0.06893  0.91410  1.0000
  S   S25       1.0  0.31465  0.06341  0.84839  1.0000
  S   S26       1.0  0.35541  0.06593  0.93450  1.0000
  Fe  Fe13      1.0  0.37222  0.22222  0.96144  1.0000
  S   S27       1.0  0.37320  0.19881  0.91925  1.0000
  H   H135      1.0  0.32513  0.00051  0.81186  1.0000
  C   C174      1.0  0.39322  0.99884  0.98980  1.0000
  H   H136      1.0  0.44475  0.03146  0.58078  1.0000
  C   C175      1.0  0.37054  0.14061  0.93437  1.0000
  H   H137      1.0  0.37783  0.03069  0.94728  1.0000
  C   C176      1.0  0.00057  0.22191  0.99958  1.0000
  C   C177      1.0  0.46411  0.05370  0.85132  1.0000
  C   C178      1.0  0.22691  0.05730  0.54214  1.0000
  C   C179      1.0  0.31149  0.99331  0.00842  1.0000
  C   C180      1.0  0.31508  0.14438  0.99164  1.0000
  C   C181      1.0  0.30552  0.00591  0.67396  1.0000
  H   H138      1.0  0.25470  0.21196  0.57023  1.0000
  C   C182      1.0  0.37863  0.13845  0.97327  1.0000
  H   H139      1.0  0.45022  0.04806  0.77112  1.0000
  C   C183      1.0  0.36903  0.15923  0.91813  1.0000
  C   C184      1.0  0.37506  0.17568  0.94106  1.0000
  C   C185      1.0  0.38262  0.17343  0.98043  1.0000
  C   C186      1.0  0.38467  0.15490  0.99629  1.0000
  C   C187      1.0  0.98208  0.23137  0.81488  1.0000
  C   C188      1.0  0.19629  0.99244  0.63757  1.0000
  C   C189      1.0  0.37092  0.05385  0.76481  1.0000
  C   C190      1.0  0.37558  0.07013  0.78830  1.0000
  C   C191      1.0  0.35874  0.07255  0.81565  1.0000
  C   C192      1.0  0.33682  0.05908  0.81860  1.0000
  C   C193      1.0  0.33218  0.04270  0.79535  1.0000
  C   C194      1.0  0.34934  0.03982  0.76931  1.0000
  H   H140      1.0  0.39221  0.08102  0.78510  1.0000
  H   H141      1.0  0.36246  0.08530  0.83320  1.0000
  H   H142      1.0  0.31527  0.03226  0.79760  1.0000
  H   H143      1.0  0.34584  0.02705  0.75187  1.0000
  C   C195      1.0  0.46975  0.01917  0.55648  1.0000
  H   H144      1.0  0.30770  0.99526  0.61541  1.0000
  H   H145      1.0  0.24866  0.20116  0.00119  1.0000
  H   H146      1.0  0.01245  0.23105  0.57088  1.0000
  H   H147      1.0  0.41071  0.08639  0.87259  1.0000
  P   P7        1.0  0.44199  0.06536  0.84604  1.0000
  H   H148      1.0  0.00961  0.23798  0.93897  1.0000
  H   H149      1.0  0.29036  0.01222  0.01125  1.0000
  H   H150      1.0  0.41456  0.11368  0.91658  1.0000
  H   H151      1.0  0.37448  0.22158  0.83909  1.0000
  C   C196      1.0  0.40181  0.05852  0.56267  1.0000
  H   H152      1.0  0.35893  0.23211  0.71400  1.0000
  H   H153      1.0  0.98524  0.21176  0.98994  1.0000
  H   H154      1.0  0.19465  0.21558  0.77984  1.0000
  H   H155      1.0  0.31475  0.22026  0.81901  1.0000
  C   C197      1.0  0.32737  0.00625  0.53847  1.0000
  C   C198      1.0  0.42789  0.02193  0.00902  1.0000
  H   H156      1.0  0.04098  0.19891  0.58708  1.0000
  C   C199      1.0  0.38452  0.03209  0.91563  1.0000
  C   C200      1.0  0.44333  0.07412  0.79200  1.0000
  C   C201      1.0  0.29178  0.21254  0.91795  1.0000
  C   C202      1.0  0.25149  0.00337  0.87797  1.0000
  C   C203      1.0  0.41459  0.04754  0.86206  1.0000
  H   H157      1.0  0.22479  0.17749  0.54092  1.0000
  P   P8        1.0  0.22476  0.00773  0.62069  1.0000
  H   H158      1.0  0.05923  0.23050  0.61677  1.0000
  H   H159      1.0  0.35401  0.01208  0.89628  1.0000
  C   C204      1.0  0.31065  0.21399  0.85087  1.0000
  H   H160      1.0  0.40770  0.03741  0.80196  1.0000
  C   C205      1.0  0.42905  0.10859  0.90970  1.0000
  C   C206      1.0  0.01435  0.23680  0.97045  1.0000
  H   H161      1.0  0.43646  0.10186  0.80121  1.0000
  H   H162      1.0  0.23103  0.02360  0.76530  1.0000
  H   H163      1.0  0.36599  0.12806  0.91628  1.0000
  C   C207      1.0  0.05911  0.23029  0.58363  1.0000
  C   C208      1.0  0.17956  0.00160  0.64519  1.0000
  H   H164      1.0  0.24285  0.19338  0.76197  1.0000
  C   C209      1.0  0.46311  0.99032  0.73287  1.0000
  H   H165      1.0  0.14420  0.99711  0.66131  1.0000
  H   H166      1.0  0.44272  0.02635  0.88520  1.0000
  H   H167      1.0  0.41621  0.05312  0.92627  1.0000
  H   H168      1.0  0.29114  0.11496  0.99290  1.0000
  H   H169      1.0  0.45193  0.01622  0.73626  1.0000
  C   C210      1.0  0.26202  0.21377  0.80225  1.0000
  H   H170      1.0  0.26073  0.00176  0.85048  1.0000
  C   C211      1.0  0.32062  0.16246  0.00896  1.0000
  C   C212      1.0  0.46620  0.01045  0.73756  1.0000
  C   C213      1.0  0.22787  0.00877  0.94843  1.0000
  C   C214      1.0  0.32021  0.19949  0.86641  1.0000
  H   H171      1.0  0.36320  0.16089  0.88765  1.0000
  C   C215      1.0  0.16790  0.22547  0.80581  1.0000
  H   H172      1.0  0.24357  0.99908  0.54166  1.0000
  H   H173      1.0  0.36277  0.20898  0.77239  1.0000
  C   C216      1.0  0.97762  0.22448  0.85664  1.0000
  Fe  Fe14      1.0  0.33745  0.23695  0.00483  1.0000
  C   C217      1.0  0.44209  0.09935  0.73723  1.0000
  C   C218      1.0  0.44819  0.06254  0.76218  1.0000
  C   C219      1.0  0.25618  0.22324  0.73146  1.0000
  C   C220      1.0  0.42693  0.09306  0.88494  1.0000
  H   H174      1.0  0.41317  0.00000  0.85889  1.0000
  H   H175      1.0  0.28097  0.21727  0.93876  1.0000
  C   C221      1.0  0.25989  0.03520  0.65452  1.0000
  H   H176      1.0  0.28573  0.02247  0.54934  1.0000
  H   H177      1.0  0.18379  0.01774  0.64171  1.0000
  H   H178      1.0  0.34875  0.99580  0.57976  1.0000
  C   C222      1.0  0.04893  0.21249  0.56691  1.0000
  C   C223      1.0  0.22177  0.02412  0.57687  1.0000
  C   C224      1.0  0.40147  0.03615  0.83375  1.0000
  H   H179      1.0  0.20434  0.99973  0.54268  1.0000
  H   H180      1.0  0.23629  0.05196  0.60334  1.0000
  C   C225      1.0  0.24688  0.02402  0.93096  1.0000
  C   C226      1.0  0.25868  0.02132  0.89576  1.0000
  H   H181      1.0  0.32608  0.14220  0.96709  1.0000
  H   H182      1.0  0.38737  0.18607  0.99826  1.0000
  H   H183      1.0  0.21151  0.00605  0.70902  1.0000
  H   H184      1.0  0.44776  0.09273  0.67536  1.0000
  C   C227      1.0  0.46838  0.11086  0.91719  1.0000
  S   S28       1.0  0.39895  0.00847  0.55694  1.0000
  C   C228      1.0  0.44694  0.08773  0.70784  1.0000
  C   C229      1.0  0.44549  0.08613  0.87649  1.0000
  H   H185      1.0  0.24886  0.21943  0.70252  1.0000
  C   C230      1.0  0.23894  0.02704  0.73425  1.0000
  C   C231      1.0  0.18948  0.22829  0.78725  1.0000
  C   C232      1.0  0.27065  0.04544  0.68645  1.0000
  C   C233      1.0  0.29644  0.22075  0.87660  1.0000
  C   C234      1.0  0.45929  0.03416  0.87051  1.0000
  H   H186      1.0  0.98477  0.21330  0.86985  1.0000
  H   H187      1.0  0.17276  0.99838  0.79744  1.0000
  H   H188      1.0  0.33158  0.19462  0.84687  1.0000
  C   C235      1.0  0.29078  0.99717  0.01228  1.0000
  H   H189      1.0  0.25246  0.03795  0.94469  1.0000
  H   H190      1.0  0.27347  0.03318  0.88229  1.0000
  H   H191      1.0  0.45325  0.06010  0.69761  1.0000
  H   H192      1.0  0.36945  0.01517  0.82354  1.0000
  H   H193      1.0  0.29388  0.22815  0.66825  1.0000
  S   S29       1.0  0.30004  0.22757  0.02198  1.0000
  H   H194      1.0  0.42340  0.01095  0.94949  1.0000
  H   H195      1.0  0.26889  0.04896  0.75123  1.0000
  H   H196      1.0  0.41365  0.06330  0.58594  1.0000
  C   C236      1.0  0.40625  0.04489  0.90347  1.0000
  P   P9        1.0  0.28502  0.24006  0.85587  1.0000
  C   C237      1.0  0.32538  0.02702  0.61262  1.0000
  C   C238      1.0  0.29402  0.03780  0.53729  1.0000
  C   C239      1.0  0.31063  0.23771  0.65710  1.0000
  C   C240      1.0  0.36586  0.22465  0.77603  1.0000
  S   S30       1.0  0.38186  0.11542  0.99269  1.0000
  C   C241      1.0  0.21105  0.01580  0.54271  1.0000
  C   C242      1.0  0.33714  0.99216  0.55574  1.0000
  C   C243      1.0  0.33066  0.04354  0.63547  1.0000
  C   C244      1.0  0.32398  0.04112  0.67749  1.0000
  C   C245      1.0  0.31126  0.02233  0.69661  1.0000
  C   C246      1.0  0.31772  0.23890  0.61563  1.0000
  C   C247      1.0  0.31235  0.00825  0.63208  1.0000
  C   C248      1.0  0.37972  0.02335  0.84603  1.0000
  H   H197      1.0  0.30654  0.23025  0.59481  1.0000
  C   C249      1.0  0.22898  0.04501  0.57689  1.0000
  C   C250      1.0  0.26028  0.04127  0.72637  1.0000
  H   H198      1.0  0.32356  0.18073  0.91983  1.0000
  P   P10       1.0  0.33371  0.03030  0.55819  1.0000
  C   C251      1.0  0.22787  0.01716  0.70215  1.0000
  C   C252      1.0  0.00099  0.23406  0.54901  1.0000
  H   H199      1.0  0.37335  0.04742  0.60670  1.0000
  C   C253      1.0  0.37879  0.04946  0.57439  1.0000
  C   C254      1.0  0.25279  0.20864  0.76490  1.0000
  H   H200      1.0  0.26853  0.03808  0.62405  1.0000
  H   H201      1.0  0.28718  0.05646  0.68036  1.0000
  H   H202      1.0  0.34022  0.05824  0.62095  1.0000
  H   H203      1.0  0.32885  0.05377  0.69538  1.0000
  C   C255      1.0  0.23815  0.02135  0.66191  1.0000
  C   C256      1.0  0.44038  0.09264  0.77918  1.0000
  H   H204      1.0  0.25891  0.20237  0.82816  1.0000
  C   C257      1.0  0.31569  0.19162  0.90766  1.0000
  C   C258      1.0  0.26664  0.22469  0.55233  1.0000
  H   H205      1.0  0.29858  0.19246  0.96562  1.0000
  H   H206      1.0  0.99322  0.22599  0.79589  1.0000
  Fe  Fe15      1.0  0.39178  0.00131  0.62630  1.0000
  H   H207      1.0  0.23765  0.23818  0.84162  1.0000
  H   H208      1.0  0.45133  0.12961  0.94481  1.0000
  H   H209      1.0  0.43928  0.11343  0.72746  1.0000
  C   C259      1.0  0.46132  0.02959  0.58428  1.0000
  C   C260      1.0  0.46626  0.09517  0.89274  1.0000
  H   H210      1.0  0.15625  0.21051  0.81278  1.0000
  S   S31       1.0  0.33726  0.01299  0.00026  1.0000
  H   H211      1.0  0.29942  0.00292  0.87004  1.0000
  H   H212      1.0  0.23298  0.07341  0.54176  1.0000
  H   H213      1.0  0.46714  0.04478  0.63900  1.0000
  C   C261      1.0  0.29540  0.12908  0.00608  1.0000
  C   C262      1.0  0.36357  0.23784  0.74309  1.0000
  C   C263      1.0  0.27495  0.23354  0.80628  1.0000
  C   C264      1.0  0.31763  0.04562  0.53637  1.0000
  H   H214      1.0  0.44524  0.03113  0.00124  1.0000
  S   S32       1.0  0.38381  0.99414  0.74647  1.0000
  C   C265      1.0  0.37254  0.23173  0.81356  1.0000
  H   H215      1.0  0.21881  0.01086  0.97583  1.0000
  H   H216      1.0  0.19586  0.99324  0.85468  1.0000
  C   C266      1.0  0.24227  0.99243  0.60803  1.0000
  H   H217      1.0  0.29625  0.99123  0.68903  1.0000
  H   H218      1.0  0.14447  0.23948  0.82948  1.0000
  S   S33       1.0  0.35495  0.21449  0.02487  1.0000
  H   H219      1.0  0.38353  0.99037  0.96700  1.0000
  C   C267      1.0  0.30711  0.99102  0.87151  1.0000
  C   C268      1.0  0.22050  0.99087  0.93050  1.0000
  C   C269      1.0  0.24852  0.99084  0.56705  1.0000
  H   H220      1.0  0.39089  0.15339  0.02640  1.0000
  Fe  Fe16      1.0  0.40891  0.42650  0.29514  1.0000
  S   S34       1.0  0.37817  0.43181  0.32462  1.0000
  S   S35       1.0  0.44165  0.44904  0.26713  1.0000
  Fe  Fe17      1.0  0.38869  0.38134  0.31265  1.0000
  S   S36       1.0  0.35679  0.38310  0.34390  1.0000
  S   S37       1.0  0.39485  0.35199  0.30725  1.0000
  Fe  Fe18      1.0  0.35799  0.40623  0.29133  1.0000
  S   S38       1.0  0.32557  0.40511  0.26012  1.0000
  Fe  Fe19      1.0  0.37989  0.40796  0.37403  1.0000
  S   S39       1.0  0.37533  0.41024  0.44218  1.0000
  S   S40       1.0  0.38863  0.40279  0.25828  1.0000
  S   S41       1.0  0.41189  0.40446  0.34662  1.0000
  H   H221      1.0  0.39107  0.32212  0.18005  1.0000
  S   S42       1.0  0.30561  0.28031  0.29357  1.0000
  H   H222      1.0  0.39110  0.27798  0.13604  1.0000
  H   H223      1.0  0.12408  0.36390  0.23625  1.0000
  S   S43       1.0  0.98964  0.38623  0.22768  1.0000
  C   C270      1.0  0.17830  0.39537  0.20513  1.0000
  S   S44       1.0  0.06391  0.37572  0.09934  1.0000
  S   S45       1.0  0.05239  0.31918  0.09727  1.0000
  S   S46       1.0  0.25082  0.34013  0.08839  1.0000
  S   S47       1.0  0.31494  0.37731  0.08007  1.0000
  H   H224      1.0  0.42268  0.31832  0.50961  1.0000
  Fe  Fe20      1.0  0.99779  0.39405  0.29215  1.0000
  S   S48       1.0  0.03159  0.39517  0.31518  1.0000
  C   C271      1.0  0.09896  0.25629  0.35163  1.0000
  S   S49       1.0  0.01115  0.40007  0.40641  1.0000
  Fe  Fe21      1.0  0.02765  0.42037  0.34947  1.0000
  S   S50       1.0  0.05384  0.44997  0.35632  1.0000
  Fe  Fe22      1.0  0.01091  0.37482  0.36916  1.0000
  S   S51       1.0  0.01652  0.34575  0.39303  1.0000
  C   C272      1.0  0.04767  0.47080  0.33095  1.0000
  H   H225      1.0  0.41403  0.47196  0.29907  1.0000
  C   C273      1.0  0.45552  0.47047  0.39343  1.0000
  C   C274      1.0  0.33002  0.26793  0.15764  1.0000
  C   C275      1.0  0.21792  0.39990  0.18653  1.0000
  C   C276      1.0  0.24364  0.26614  0.43642  1.0000
  C   C277      1.0  0.07688  0.25569  0.36367  1.0000
  H   H226      1.0  0.41440  0.29012  0.27749  1.0000
  H   H227      1.0  0.23543  0.40388  0.19438  1.0000
  C   C278      1.0  0.04363  0.37737  0.13746  1.0000
  C   C279      1.0  0.02259  0.36263  0.14549  1.0000
  C   C280      1.0  0.00623  0.36525  0.17376  1.0000
  C   C281      1.0  0.01112  0.38219  0.19548  1.0000
  C   C282      1.0  0.03254  0.39645  0.18879  1.0000
  C   C283      1.0  0.04860  0.39413  0.15959  1.0000
  H   H228      1.0  0.01867  0.34946  0.12919  1.0000
  C   C284      1.0  0.99036  0.32643  0.39812  1.0000
  H   H229      1.0  0.03637  0.40967  0.20492  1.0000
  H   H230      1.0  0.06475  0.40561  0.15337  1.0000
  C   C285      1.0  0.97423  0.27251  0.05103  1.0000
  C   C286      1.0  0.07183  0.25998  0.40320  1.0000
  C   C287      1.0  0.43017  0.38944  0.21120  1.0000
  H   H231      1.0  0.05459  0.25922  0.41232  1.0000
  C   C288      1.0  0.31937  0.32940  0.49832  1.0000
  C   C289      1.0  0.41309  0.37263  0.20199  1.0000
  H   H232      1.0  0.08410  0.40144  0.26732  1.0000
  C   C290      1.0  0.00537  0.25329  0.29498  1.0000
  C   C291      1.0  0.36982  0.33260  0.30239  1.0000
  C   C292      1.0  0.34960  0.33636  0.29260  1.0000
  C   C293      1.0  0.32991  0.32031  0.28920  1.0000
  C   C294      1.0  0.33051  0.30055  0.29516  1.0000
  C   C295      1.0  0.35095  0.29711  0.30343  1.0000
  C   C296      1.0  0.37037  0.31296  0.30786  1.0000
  H   H233      1.0  0.34910  0.35154  0.28754  1.0000
  H   H234      1.0  0.31421  0.32320  0.28226  1.0000
  H   H235      1.0  0.35204  0.28227  0.30557  1.0000
  H   H236      1.0  0.38591  0.30998  0.31542  1.0000
  C   C297      1.0  0.39023  0.39810  0.47464  1.0000
  H   H237      1.0  0.11235  0.29653  0.15411  1.0000
  P   P11       1.0  0.41936  0.43434  0.13384  1.0000
  H   H238      1.0  0.16544  0.39609  0.22774  1.0000
  C   C298      1.0  0.40204  0.38596  0.45919  1.0000
  H   H239      1.0  0.42369  0.36784  0.47302  1.0000
  H   H240      1.0  0.40152  0.38330  0.42718  1.0000
  C   C299      1.0  0.31650  0.38362  0.13122  1.0000
  C   C300      1.0  0.33692  0.38581  0.14981  1.0000
  C   C301      1.0  0.33955  0.39164  0.18975  1.0000
  C   C302      1.0  0.32191  0.39584  0.21130  1.0000
  C   C303      1.0  0.30126  0.39338  0.19290  1.0000
  C   C304      1.0  0.29846  0.38709  0.15310  1.0000
  H   H241      1.0  0.35070  0.38283  0.13322  1.0000
  H   H242      1.0  0.35547  0.39339  0.20324  1.0000
  H   H243      1.0  0.28746  0.39652  0.20932  1.0000
  H   H244      1.0  0.28259  0.38540  0.13903  1.0000
  C   C305      1.0  0.13096  0.31768  0.05447  1.0000
  C   C306      1.0  0.12514  0.38806  0.18974  1.0000
  H   H245      1.0  0.11001  0.37109  0.09041  1.0000
  H   H246      1.0  0.27344  0.34573  0.49078  1.0000
  C   C307      1.0  0.26324  0.27081  0.06115  1.0000
  C   C308      1.0  0.38857  0.30867  0.20073  1.0000
  S   S52       1.0  0.33839  0.24854  0.35292  1.0000
  C   C309      1.0  0.45051  0.34838  0.42465  1.0000
  H   H247      1.0  0.40069  0.45302  0.40544  1.0000
  Fe  Fe23      1.0  0.97867  0.39907  0.37820  1.0000
  H   H248      1.0  0.43082  0.43608  0.47507  1.0000
  H   H249      1.0  0.98037  0.30076  0.47859  1.0000
  C   C310      1.0  0.27116  0.38102  0.52235  1.0000
  C   C311      1.0  0.42041  0.43393  0.07865  1.0000
  C   C312      1.0  0.00416  0.24170  0.33252  1.0000
  C   C313      1.0  0.97765  0.47487  0.38379  1.0000
  H   H250      1.0  0.98972  0.35415  0.17877  1.0000
  C   C314      1.0  0.40106  0.39318  0.15007  1.0000
  C   C315      1.0  0.39842  0.37452  0.17166  1.0000
  H   H251      1.0  0.98038  0.33954  0.04309  1.0000
  C   C316      1.0  0.33006  0.36513  0.50161  1.0000
  H   H252      1.0  0.09614  0.42168  0.19985  1.0000
  Fe  Fe24      1.0  0.07575  0.31500  0.04714  1.0000
  H   H253      1.0  0.46795  0.42912  0.36762  1.0000
  C   C317      1.0  0.39144  0.44432  0.19153  1.0000
  C   C318      1.0  0.43121  0.48169  0.29266  1.0000
  H   H254      1.0  0.08048  0.46729  0.43065  1.0000
  C   C319      1.0  0.98691  0.45918  0.39125  1.0000
  H   H255      1.0  0.43102  0.40734  0.07870  1.0000
  H   H256      1.0  0.41066  0.35829  0.21960  1.0000
  H   H257      1.0  0.38947  0.39452  0.12693  1.0000
  C   C320      1.0  0.08884  0.26499  0.43098  1.0000
  C   C321      1.0  0.35436  0.43736  0.14288  1.0000
  H   H258      1.0  0.33929  0.42347  0.47965  1.0000
  C   C322      1.0  0.07659  0.48203  0.48438  1.0000
  H   H259      1.0  0.36966  0.45112  0.23717  1.0000
  H   H260      1.0  0.40539  0.44647  0.21133  1.0000
  C   C323      1.0  0.03248  0.28085  0.20773  1.0000
  C   C324      1.0  0.44796  0.47420  0.27718  1.0000
  H   H261      1.0  0.16716  0.35043  0.15084  1.0000
  P   P12       1.0  0.29980  0.38727  0.49924  1.0000
  C   C325      1.0  0.30739  0.39796  0.37312  1.0000
  C   C326      1.0  0.02742  0.39547  0.51920  1.0000
  C   C327      1.0  0.13641  0.31714  0.50790  1.0000
  H   H262      1.0  0.44077  0.38809  0.23617  1.0000
  C   C328      1.0  0.01173  0.25090  0.36761  1.0000
  P   P13       1.0  0.43121  0.47841  0.46019  1.0000
  H   H263      1.0  0.15344  0.31421  0.15155  1.0000
  H   H264      1.0  0.20536  0.40559  0.24505  1.0000
  C   C329      1.0  0.40173  0.47389  0.45072  1.0000
  C   C330      1.0  0.35562  0.46696  0.43823  1.0000
  C   C331      1.0  0.30310  0.42774  0.39901  1.0000
  C   C332      1.0  0.14984  0.31062  0.05483  1.0000
  C   C333      1.0  0.06914  0.24788  0.51478  1.0000
  C   C334      1.0  0.44442  0.45377  0.14466  1.0000
  H   H265      1.0  0.31551  0.29728  0.10780  1.0000
  P   P14       1.0  0.08201  0.27085  0.48164  1.0000
  C   C335      1.0  0.06242  0.28524  0.47598  1.0000
  H   H266      1.0  0.43576  0.35206  0.36684  1.0000
  H   H267      1.0  0.29855  0.42674  0.46482  1.0000
  C   C336      1.0  0.10251  0.40922  0.20789  1.0000
  C   C337      1.0  0.06604  0.30037  0.44308  1.0000
  C   C338      1.0  0.05092  0.31149  0.43823  1.0000
  C   C339      1.0  0.03194  0.30741  0.46574  1.0000
  C   C340      1.0  0.29341  0.24616  0.18709  1.0000
  H   H268      1.0  0.41886  0.28574  0.07641  1.0000
  C   C341      1.0  0.26051  0.28156  0.41323  1.0000
  Fe  Fe25      1.0  0.28260  0.35988  0.05322  1.0000
  C   C342      1.0  0.04317  0.28117  0.50335  1.0000
  C   C343      1.0  0.23385  0.24972  0.37473  1.0000
  C   C344      1.0  0.30745  0.36462  0.49849  1.0000
  H   H269      1.0  0.44635  0.41519  0.43469  1.0000
  H   H270      1.0  0.01045  0.27845  0.15746  1.0000
  H   H271      1.0  0.23891  0.24438  0.09208  1.0000
  H   H272      1.0  0.08051  0.30357  0.42108  1.0000
  H   H273      1.0  0.05369  0.32322  0.41297  1.0000
  H   H274      1.0  0.02032  0.31609  0.46175  1.0000
  C   C345      1.0  0.02795  0.29217  0.49808  1.0000
  C   C346      1.0  0.17523  0.34470  0.04834  1.0000
  C   C347      1.0  0.02611  0.27692  0.16791  1.0000
  C   C348      1.0  0.25501  0.25039  0.07426  1.0000
  H   H275      1.0  0.34431  0.25723  0.10660  1.0000
  H   H276      1.0  0.98000  0.44290  0.24370  1.0000
  C   C349      1.0  0.25542  0.38981  0.50591  1.0000
  H   H277      1.0  0.00512  0.30338  0.38712  1.0000
  C   C350      1.0  0.01407  0.27421  0.29234  1.0000
  H   H278      1.0  0.09801  0.37250  0.28539  1.0000
  H   H279      1.0  0.31094  0.27412  0.20884  1.0000
  C   C351      1.0  0.10357  0.38151  0.25607  1.0000
  C   C352      1.0  0.40304  0.30474  0.04192  1.0000
  C   C353      1.0  0.38928  0.28789  0.11000  1.0000
  H   H280      1.0  0.27118  0.29373  0.42817  1.0000
  C   C354      1.0  0.40451  0.30812  0.22950  1.0000
  H   H281      1.0  0.44475  0.42120  0.20015  1.0000
  H   H282      1.0  0.18568  0.38359  0.10763  1.0000
  C   C355      1.0  0.41591  0.44930  0.05358  1.0000
  C   C356      1.0  0.98957  0.30676  0.39310  1.0000
  H   H283      1.0  0.35323  0.26104  0.22267  1.0000
  H   H284      1.0  0.27909  0.24318  0.20940  1.0000
  C   C357      1.0  0.07578  0.39898  0.47283  1.0000
  C   C358      1.0  0.09307  0.41637  0.45702  1.0000
  C   C359      1.0  0.09586  0.42237  0.41464  1.0000
  C   C360      1.0  0.08209  0.41064  0.38773  1.0000
  C   C361      1.0  0.06583  0.39270  0.40311  1.0000
  C   C362      1.0  0.06253  0.38696  0.44545  1.0000
  H   H285      1.0  0.30831  0.42450  0.33451  1.0000
  H   H286      1.0  0.13309  0.26157  0.36989  1.0000
  C   C363      1.0  0.38450  0.26969  0.50727  1.0000
  C   C364      1.0  0.33695  0.30972  0.15583  1.0000
  C   C365      1.0  0.12132  0.39427  0.04057  1.0000
  C   C366      1.0  0.97611  0.24202  0.15170  1.0000
  H   H287      1.0  0.32389  0.31577  0.49877  1.0000
  C   C367      1.0  0.29689  0.32883  0.49427  1.0000
  Fe  Fe26      1.0  0.30803  0.25026  0.31966  1.0000
  C   C368      1.0  0.36737  0.27432  0.22426  1.0000
  H   H288      1.0  0.14256  0.33322  0.50088  1.0000
  H   H289      1.0  0.10859  0.43619  0.40254  1.0000
  H   H290      1.0  0.08394  0.41550  0.35501  1.0000
  H   H291      1.0  0.05544  0.38331  0.38238  1.0000
  H   H292      1.0  0.46021  0.34177  0.48563  1.0000
  C   C369      1.0  0.36598  0.48017  0.46613  1.0000
  C   C370      1.0  0.18975  0.38851  0.13768  1.0000
  C   C371      1.0  0.37123  0.44700  0.20630  1.0000
  C   C372      1.0  0.38337  0.27228  0.43299  1.0000
  C   C373      1.0  0.38230  0.28048  0.47033  1.0000
  H   H293      1.0  0.12012  0.34387  0.05234  1.0000
  P   P15       1.0  0.37994  0.30530  0.47003  1.0000
  C   C374      1.0  0.23329  0.38451  0.52406  1.0000
  C   C375      1.0  0.40750  0.32224  0.45219  1.0000
  C   C376      1.0  0.29822  0.25728  0.50698  1.0000
  H   H294      1.0  0.37497  0.42882  0.09859  1.0000
  C   C377      1.0  0.43298  0.34467  0.39802  1.0000
  C   C378      1.0  0.41163  0.33148  0.41153  1.0000
  C   C379      1.0  0.25067  0.26518  0.35170  1.0000
  H   H295      1.0  0.02954  0.29931  0.32641  1.0000
  S   S53       1.0  0.99507  0.42061  0.32298  1.0000
  P   P16       1.0  0.01484  0.28879  0.24358  1.0000
  C   C380      1.0  0.11826  0.37666  0.22813  1.0000
  C   C381      1.0  0.35843  0.30865  0.43715  1.0000
  C   C382      1.0  0.34152  0.29216  0.42550  1.0000
  C   C383      1.0  0.32420  0.29505  0.40212  1.0000
  C   C384      1.0  0.32341  0.31437  0.39084  1.0000
  C   C385      1.0  0.34003  0.33079  0.40257  1.0000
  C   C386      1.0  0.35750  0.32799  0.42560  1.0000
  H   H296      1.0  0.35364  0.32464  0.20645  1.0000
  C   C387      1.0  0.37023  0.30950  0.52033  1.0000
  C   C388      1.0  0.36984  0.29178  0.19792  1.0000
  H   H297      1.0  0.38233  0.28062  0.40402  1.0000
  C   C389      1.0  0.09570  0.39779  0.24594  1.0000
  H   H298      1.0  0.99898  0.24598  0.26825  1.0000
  C   C390      1.0  0.42537  0.32558  0.47839  1.0000
  H   H299      1.0  0.39848  0.32864  0.39000  1.0000
  H   H300      1.0  0.38146  0.26024  0.27292  1.0000
  C   C391      1.0  0.98355  0.29622  0.19037  1.0000
  C   C392      1.0  0.14137  0.32246  0.15409  1.0000
  H   H301      1.0  0.34142  0.27703  0.43464  1.0000
  H   H302      1.0  0.31154  0.28229  0.39231  1.0000
  H   H303      1.0  0.31020  0.31670  0.37229  1.0000
  H   H304      1.0  0.33935  0.34572  0.39391  1.0000
  H   H305      1.0  0.37011  0.34095  0.43478  1.0000
  C   C393      1.0  0.02626  0.31519  0.24750  1.0000
  C   C394      1.0  0.01512  0.32421  0.27439  1.0000
  C   C395      1.0  0.02286  0.34482  0.27615  1.0000
  C   C396      1.0  0.04156  0.35662  0.25068  1.0000
  C   C397      1.0  0.05250  0.34785  0.22327  1.0000
  C   C398      1.0  0.04487  0.32719  0.22155  1.0000
  C   C399      1.0  0.06088  0.26930  0.15253  1.0000
  C   C400      1.0  0.06715  0.27270  0.19251  1.0000
  C   C401      1.0  0.05310  0.27860  0.21991  1.0000
  H   H306      1.0  0.00020  0.31537  0.29363  1.0000
  H   H307      1.0  0.01391  0.35167  0.29653  1.0000
  H   H308      1.0  0.04702  0.37266  0.25106  1.0000
  H   H309      1.0  0.06629  0.35722  0.20220  1.0000
  H   H310      1.0  0.99799  0.30585  0.17104  1.0000
  H   H311      1.0  0.46697  0.35876  0.41426  1.0000
  C   C402      1.0  0.28764  0.24495  0.03979  1.0000
  H   H312      1.0  0.08307  0.27111  0.20202  1.0000
  H   H313      1.0  0.05836  0.28157  0.25052  1.0000
  H   H314      1.0  0.05303  0.32082  0.19903  1.0000
  S   S54       1.0  0.99139  0.28841  0.08302  1.0000
  C   C403      1.0  0.37453  0.43460  0.12805  1.0000
  H   H315      1.0  0.33961  0.43373  0.12494  1.0000
  C   C404      1.0  0.44673  0.33875  0.46476  1.0000
  C   C405      1.0  0.46474  0.45844  0.37100  1.0000
  C   C406      1.0  0.15640  0.35171  0.04792  1.0000
  C   C407      1.0  0.34087  0.32381  0.18456  1.0000
  H   H316      1.0  0.18642  0.31859  0.05235  1.0000
  P   P17       1.0  0.35209  0.29154  0.15542  1.0000
  C   C408      1.0  0.29094  0.34641  0.49395  1.0000
  C   C409      1.0  0.21230  0.39377  0.14782  1.0000
  H   H317      1.0  0.36009  0.44666  0.39564  1.0000
  H   H318      1.0  0.04938  0.37323  0.45675  1.0000
  H   H319      1.0  0.30658  0.37378  0.41797  1.0000
  H   H320      1.0  0.29890  0.34426  0.16302  1.0000
  C   C410      1.0  0.98660  0.28590  0.22742  1.0000
  H   H321      1.0  0.25391  0.26465  0.31901  1.0000
  C   C411      1.0  0.17252  0.38906  0.16638  1.0000
  H   H322      1.0  0.02645  0.27870  0.39250  1.0000
  C   C412      1.0  0.44337  0.46278  0.43162  1.0000
  C   C413      1.0  0.11096  0.26540  0.41881  1.0000
  C   C414      1.0  0.22986  0.25020  0.41726  1.0000
  C   C415      1.0  0.13440  0.33826  0.05110  1.0000
  Fe  Fe27      1.0  0.05648  0.34893  0.06288  1.0000
  C   C416      1.0  0.97879  0.35440  0.03728  1.0000
  C   C417      1.0  0.30532  0.38876  0.41339  1.0000
  H   H323      1.0  0.45763  0.48562  0.38032  1.0000
  H   H324      1.0  0.97861  0.44458  0.38185  1.0000
  H   H325      1.0  0.35888  0.35302  0.09587  1.0000
  C   C418      1.0  0.32739  0.33645  0.18665  1.0000
  C   C419      1.0  0.36825  0.45726  0.41654  1.0000
  C   C420      1.0  0.30976  0.33489  0.16056  1.0000
  C   C421      1.0  0.30091  0.41855  0.43939  1.0000
  H   H326      1.0  0.00407  0.40181  0.05983  1.0000
  Fe  Fe28      1.0  0.02496  0.30797  0.05489  1.0000
  H   H327      1.0  0.39565  0.33804  0.52281  1.0000
  C   C422      1.0  0.99211  0.38953  0.04709  1.0000
  C   C423      1.0  0.37110  0.29591  0.10981  1.0000
  H   H328      1.0  0.12436  0.26907  0.43970  1.0000
  C   C424      1.0  0.38529  0.25307  0.43286  1.0000
  H   H329      1.0  0.30234  0.44285  0.39328  1.0000
  H   H330      1.0  0.09798  0.35211  0.15666  1.0000
  C   C425      1.0  0.20095  0.40079  0.21508  1.0000
  C   C426      1.0  0.11597  0.26111  0.37921  1.0000
  C   C427      1.0  0.17196  0.32411  0.05154  1.0000
  C   C428      1.0  0.38475  0.31241  0.04111  1.0000
  C   C429      1.0  0.11712  0.40438  0.17980  1.0000
  H   H331      1.0  0.03054  0.45481  0.28257  1.0000
  C   C430      1.0  0.28441  0.27856  0.03889  1.0000
  C   C431      1.0  0.39129  0.46081  0.42244  1.0000
  H   H332      1.0  0.04657  0.43832  0.45027  1.0000
  H   H333      1.0  0.29203  0.31970  0.11176  1.0000
  C   C432      1.0  0.03561  0.46893  0.29547  1.0000
  C   C433      1.0  0.36915  0.35710  0.06689  1.0000
  C   C434      1.0  0.11819  0.31248  0.15584  1.0000
  H   H334      1.0  0.06359  0.25185  0.34248  1.0000
  C   C435      1.0  0.14909  0.34323  0.15329  1.0000
  C   C436      1.0  0.43102  0.47217  0.51531  1.0000
  H   H335      1.0  0.33017  0.34710  0.20930  1.0000
  C   C437      1.0  0.44036  0.44276  0.44640  1.0000
  C   C438      1.0  0.30586  0.32102  0.13172  1.0000
  C   C439      1.0  0.02237  0.28329  0.32748  1.0000
  C   C440      1.0  0.05490  0.48950  0.34627  1.0000
  C   C441      1.0  0.31153  0.26367  0.18681  1.0000
  C   C442      1.0  0.15786  0.41095  0.08686  1.0000
  H   H336      1.0  0.10287  0.25299  0.32095  1.0000
  C   C443      1.0  0.12319  0.38467  0.07896  1.0000
  C   C444      1.0  0.31933  0.30844  0.12942  1.0000
  C   C445      1.0  0.41451  0.37708  0.48531  1.0000
  C   C446      1.0  0.10266  0.32321  0.15719  1.0000
  C   C447      1.0  0.13362  0.35423  0.15444  1.0000
  H   H337      1.0  0.15882  0.36760  0.04571  1.0000
  H   H338      1.0  0.99512  0.40097  0.51611  1.0000
  H   H339      1.0  0.22121  0.39128  0.51121  1.0000
  H   H340      1.0  0.98342  0.46593  0.29724  1.0000
  C   C448      1.0  0.33026  0.25430  0.12918  1.0000
  C   C449      1.0  0.11029  0.34401  0.15643  1.0000
  H   H341      1.0  0.08474  0.31544  0.15741  1.0000
  H   H342      1.0  0.12179  0.41325  0.15021  1.0000
  C   C450      1.0  0.39250  0.36019  0.06600  1.0000
  C   C451      1.0  0.43249  0.40823  0.19033  1.0000
  C   C452      1.0  0.99435  0.37041  0.05287  1.0000
  C   C453      1.0  0.46578  0.45095  0.13962  1.0000
  C   C454      1.0  0.36880  0.30801  0.07483  1.0000
  C   C455      1.0  0.44928  0.43073  0.42349  1.0000
  H   H343      1.0  0.27699  0.29295  0.35271  1.0000
  C   C456      1.0  0.26387  0.28114  0.37085  1.0000
  H   H344      1.0  0.35475  0.31402  0.07323  1.0000
  C   C457      1.0  0.40209  0.29058  0.25518  1.0000
  H   H345      1.0  0.40047  0.35825  0.09426  1.0000
  P   P18       1.0  0.14333  0.38117  0.15311  1.0000
  S   S55       1.0  0.10325  0.30064  0.05931  1.0000
  H   H346      1.0  0.07212  0.26547  0.13071  1.0000
  C   C458      1.0  0.35273  0.44361  0.18193  1.0000
  C   C459      1.0  0.38349  0.27375  0.25266  1.0000
  H   H347      1.0  0.41873  0.32127  0.23197  1.0000
  H   H348      1.0  0.41156  0.46122  0.06726  1.0000
  H   H349      1.0  0.01444  0.45020  0.41546  1.0000
  C   C460      1.0  0.15612  0.42035  0.04819  1.0000
  C   C461      1.0  0.03077  0.48553  0.27561  1.0000
  H   H350      1.0  0.24166  0.26682  0.46913  1.0000
  H   H351      1.0  0.25998  0.40059  0.47899  1.0000
  H   H352      1.0  0.35345  0.34818  0.50448  1.0000
  H   H353      1.0  0.01316  0.28897  0.51943  1.0000
  C   C462      1.0  0.02097  0.27164  0.36503  1.0000
  H   H354      1.0  0.10700  0.31403  0.47401  1.0000
  C   C463      1.0  0.44303  0.47199  0.15679  1.0000
  C   C464      1.0  0.05146  0.45007  0.47048  1.0000
  C   C465      1.0  0.10791  0.28528  0.50208  1.0000
  C   C466      1.0  0.14157  0.39283  0.10233  1.0000
  H   H355      1.0  0.34048  0.35557  0.03127  1.0000
  S   S56       1.0  0.20246  0.36214  0.04631  1.0000
  H   H356      1.0  0.17183  0.41799  0.10470  1.0000
  H   H357      1.0  0.00706  0.48186  0.50844  1.0000
  C   C467      1.0  0.00706  0.46225  0.41095  1.0000
  H   H358      1.0  0.02180  0.48398  0.24778  1.0000
  C   C468      1.0  0.35874  0.35869  0.03015  1.0000
  C   C469      1.0  0.04027  0.27125  0.14042  1.0000
  C   C470      1.0  0.42674  0.41900  0.06018  1.0000
  H   H359      1.0  0.03365  0.40342  0.48919  1.0000
  H   H360      1.0  0.22535  0.39285  0.12563  1.0000
  S   S57       1.0  0.24563  0.28544  0.07198  1.0000
  C   C471      1.0  0.30641  0.41744  0.36590  1.0000
  C   C472      1.0  0.30202  0.39897  0.44694  1.0000
  H   H361      1.0  0.28406  0.31472  0.49202  1.0000
  H   H362      1.0  0.02285  0.43684  0.51396  1.0000
  H   H363      1.0  0.03537  0.26892  0.10934  1.0000
  H   H364      1.0  0.14736  0.29472  0.05793  1.0000
  C   C473      1.0  0.33661  0.42017  0.51272  1.0000
  C   C474      1.0  0.40522  0.29239  0.07630  1.0000
  C   C475      1.0  0.03815  0.44928  0.50653  1.0000
  C   C476      1.0  0.39343  0.43851  0.15194  1.0000
  H   H365      1.0  0.30999  0.39003  0.34734  1.0000
  H   H366      1.0  0.33780  0.46412  0.43357  1.0000
  C   C477      1.0  0.11616  0.30613  0.49270  1.0000
  C   C478      1.0  0.41808  0.41018  0.15921  1.0000
  C   C479      1.0  0.39049  0.40079  0.51664  1.0000
  H   H367      1.0  0.33680  0.44492  0.19413  1.0000
  Fe  Fe29      1.0  0.25354  0.31750  0.04582  1.0000
  C   C480      1.0  0.46148  0.43856  0.38583  1.0000
  H   H368      1.0  0.00817  0.36802  0.06956  1.0000
  C   C481      1.0  0.33598  0.34758  0.50151  1.0000
  H   H369      1.0  0.31053  0.26992  0.48982  1.0000
  H   H370      1.0  0.38459  0.36164  0.16583  1.0000
  Fe  Fe30      1.0  0.23250  0.35087  0.03768  1.0000
  H   H371      1.0  0.01001  0.24196  0.39701  1.0000
  H   H372      1.0  0.10440  0.42536  0.47702  1.0000
  C   C482      1.0  0.38893  0.48356  0.47252  1.0000
  H   H373      1.0  0.38549  0.24666  0.40397  1.0000
  C   C483      1.0  0.38644  0.25047  0.50707  1.0000
  C   C484      1.0  0.07066  0.46645  0.45937  1.0000
  H   H374      1.0  0.18633  0.24956  0.38620  1.0000
  C   C485      1.0  0.38667  0.24210  0.46992  1.0000
  C   C486      1.0  0.40545  0.36503  0.02839  1.0000
  H   H375      1.0  0.42698  0.47496  0.15973  1.0000
  H   H376      1.0  0.98264  0.24054  0.08746  1.0000
  C   C487      1.0  0.01802  0.48096  0.42346  1.0000
  H   H377      1.0  0.00195  0.32690  0.52063  1.0000
  S   S58       1.0  0.97727  0.37255  0.34425  1.0000
  H   H378      1.0  0.05480  0.26023  0.03205  1.0000
  C   C488      1.0  0.29677  0.26558  0.02864  1.0000
  H   H379      1.0  0.42341  0.36674  0.02764  1.0000
  H   H380      1.0  0.29106  0.29438  0.02915  1.0000
  H   H381      1.0  0.34308  0.37900  0.50470  1.0000
  H   H382      1.0  0.03401  0.48351  0.43751  1.0000
  H   H383      1.0  0.35620  0.48768  0.48300  1.0000
  C   C489      1.0  0.46253  0.48663  0.16607  1.0000
  C   C490      1.0  0.06334  0.48126  0.52057  1.0000
  C   C491      1.0  0.47023  0.48703  0.26902  1.0000
  H   H384      1.0  0.97299  0.25632  0.14706  1.0000
  H   H385      1.0  0.46728  0.43719  0.12945  1.0000
  Fe  Fe31      1.0  0.38244  0.24078  0.04183  1.0000
  C   C492      1.0  0.97225  0.30414  0.50563  1.0000
  H   H386      1.0  0.16882  0.43423  0.03637  1.0000
  C   C493      1.0  0.97165  0.46554  0.50995  1.0000
  H   H387      1.0  0.36532  0.44495  0.52289  1.0000
  H   H388      1.0  0.40490  0.44379  0.51532  1.0000
  C   C494      1.0  0.12053  0.27567  0.52637  1.0000
  C   C495      1.0  0.99337  0.46967  0.52416  1.0000
  H   H389      1.0  0.22730  0.24274  0.52442  1.0000
  H   H390      1.0  0.08044  0.43488  0.52318  1.0000
  C   C496      1.0  0.47116  0.42323  0.52040  1.0000
  H   H391      1.0  0.45922  0.40846  0.51992  1.0000
  C   C497      1.0  0.21009  0.24342  0.52478  1.0000
  Fe  Fe32      1.0  0.41093  0.38677  0.70035  1.0000
  S   S59       1.0  0.40688  0.35715  0.67669  1.0000
  S   S60       1.0  0.37836  0.39107  0.72329  1.0000
  S   S61       1.0  0.43915  0.38560  0.74074  1.0000
  S   S62       1.0  0.43367  0.40480  0.64629  1.0000
  Fe  Fe33      1.0  0.38074  0.26702  0.96248  1.0000
  C   C498      1.0  0.04409  0.46476  0.53211  1.0000
  H   H392      1.0  0.30989  0.34576  0.92969  1.0000
  H   H393      1.0  0.07456  0.26800  0.79007  1.0000
  H   H394      1.0  0.15804  0.30377  0.74242  1.0000
  H   H395      1.0  0.36356  0.28513  0.85776  1.0000
  C   C499      1.0  0.98440  0.31867  0.52947  1.0000
  H   H396      1.0  0.42924  0.45735  0.63349  1.0000
  S   S63       1.0  0.43697  0.32776  0.74882  1.0000
  C   C500      1.0  0.02558  0.34252  0.67801  1.0000
  H   H397      1.0  0.14032  0.26490  0.75325  1.0000
  C   C501      1.0  0.01724  0.44591  0.65698  1.0000
  S   S64       1.0  0.46151  0.37192  0.66032  1.0000
  C   C502      1.0  0.41466  0.33185  0.82120  1.0000
  Fe  Fe34      1.0  0.05222  0.33157  0.97919  1.0000
  S   S65       1.0  0.05407  0.33900  0.91007  1.0000
  C   C503      1.0  0.41565  0.44852  0.57608  1.0000
  S   S66       1.0  0.05788  0.28829  0.61195  1.0000
  Fe  Fe35      1.0  0.03830  0.27519  0.72831  1.0000
  S   S67       1.0  0.07356  0.29369  0.70655  1.0000
  S   S68       1.0  0.02908  0.26809  0.79663  1.0000
  Fe  Fe36      1.0  0.05670  0.30870  0.66023  1.0000
  S   S69       1.0  0.06789  0.34220  0.65016  1.0000
  Fe  Fe37      1.0  0.07109  0.27134  0.66120  1.0000
  S   S70       1.0  0.09902  0.25753  0.65207  1.0000
  S   S71       1.0  0.02142  0.29170  0.68522  1.0000
  Fe  Fe38      1.0  0.27920  0.32039  0.63132  1.0000
  S   S72       1.0  0.28303  0.29266  0.66475  1.0000
  S   S73       1.0  0.30970  0.34441  0.60251  1.0000
  Fe  Fe39      1.0  0.22816  0.30617  0.64177  1.0000
  S   S74       1.0  0.19841  0.31736  0.62813  1.0000
  Fe  Fe40      1.0  0.25615  0.29565  0.70953  1.0000
  S   S75       1.0  0.25629  0.28777  0.77799  1.0000
  Fe  Fe41      1.0  0.43203  0.37495  0.62583  1.0000
  S   S76       1.0  0.25471  0.32484  0.67884  1.0000
  S   S77       1.0  0.25272  0.30418  0.59108  1.0000
  H   H398      1.0  0.38861  0.31305  0.73706  1.0000
  Fe  Fe42      1.0  0.26516  0.34728  0.96939  1.0000
  C   C504      1.0  0.08675  0.42984  0.55115  1.0000
  S   S78       1.0  0.27256  0.35483  0.90024  1.0000
  C   C505      1.0  0.17436  0.27166  0.94243  1.0000
  C   C506      1.0  0.16956  0.26917  0.90140  1.0000
  H   H399      1.0  0.34367  0.32153  0.62102  1.0000
  C   C507      1.0  0.01081  0.37595  0.59749  1.0000
  C   C508      1.0  0.99006  0.24828  0.55593  1.0000
  C   C509      1.0  0.26014  0.30672  0.81112  1.0000
  C   C510      1.0  0.25179  0.30159  0.85248  1.0000
  C   C511      1.0  0.25516  0.31623  0.88002  1.0000
  C   C512      1.0  0.26734  0.33607  0.86649  1.0000
  C   C513      1.0  0.27566  0.34121  0.82509  1.0000
  C   C514      1.0  0.27207  0.32658  0.79743  1.0000
  H   H400      1.0  0.24258  0.28625  0.86321  1.0000
  H   H401      1.0  0.24849  0.31216  0.91176  1.0000
  H   H402      1.0  0.28511  0.35655  0.81446  1.0000
  H   H403      1.0  0.27879  0.33066  0.76572  1.0000
  C   C515      1.0  0.04908  0.35084  0.67920  1.0000
  C   C516      1.0  0.05771  0.36610  0.70406  1.0000
  C   C517      1.0  0.04294  0.37238  0.72922  1.0000
  H   H404      1.0  0.07581  0.37271  0.70463  1.0000
  H   H405      1.0  0.04969  0.38379  0.74934  1.0000
  C   C518      1.0  0.12649  0.27439  0.64973  1.0000
  C   C519      1.0  0.13014  0.29497  0.64264  1.0000
  C   C520      1.0  0.15234  0.30810  0.63716  1.0000
  C   C521      1.0  0.17093  0.30073  0.63932  1.0000
  C   C522      1.0  0.16725  0.28024  0.64833  1.0000
  C   C523      1.0  0.14505  0.26707  0.65315  1.0000
  C   C524      1.0  0.42415  0.30118  0.81855  1.0000
  C   C525      1.0  0.34078  0.30030  0.57640  1.0000
  H   H406      1.0  0.18149  0.27449  0.65030  1.0000
  H   H407      1.0  0.01057  0.43221  0.71962  1.0000
  C   C526      1.0  0.10091  0.36989  0.54105  1.0000
  H   H408      1.0  0.41020  0.26863  0.71157  1.0000
  C   C527      1.0  0.09116  0.40324  0.59894  1.0000
  H   H409      1.0  0.35284  0.31592  0.84422  1.0000
  C   C528      1.0  0.37740  0.37566  0.90078  1.0000
  S   S79       1.0  0.39342  0.29915  0.93225  1.0000
  C   C529      1.0  0.04648  0.31922  0.87872  1.0000
  C   C530      1.0  0.03441  0.29974  0.89525  1.0000
  C   C531      1.0  0.02906  0.28421  0.86971  1.0000
  C   C532      1.0  0.03573  0.28803  0.82750  1.0000
  C   C533      1.0  0.04763  0.30752  0.81085  1.0000
  C   C534      1.0  0.05293  0.32306  0.83641  1.0000
  H   H410      1.0  0.02899  0.29665  0.92761  1.0000
  H   H411      1.0  0.01955  0.26922  0.88258  1.0000
  H   H412      1.0  0.05264  0.31067  0.77826  1.0000
  H   H413      1.0  0.06200  0.33812  0.82333  1.0000
  H   H414      1.0  0.99408  0.29652  0.79263  1.0000
  H   H415      1.0  0.30703  0.30772  0.73947  1.0000
  H   H416      1.0  0.41395  0.40183  0.80046  1.0000
  C   C535      1.0  0.37072  0.31160  0.73724  1.0000
  C   C536      1.0  0.24224  0.36159  0.57510  1.0000
  P   P19       1.0  0.02547  0.46405  0.57661  1.0000
  C   C537      1.0  0.39514  0.36709  0.99164  1.0000
  H   H417      1.0  0.01881  0.33109  0.65799  1.0000
  C   C538      1.0  0.40418  0.39442  0.82874  1.0000
  C   C539      1.0  0.35829  0.37956  0.68958  1.0000
  C   C540      1.0  0.33566  0.36990  0.70360  1.0000
  C   C541      1.0  0.32051  0.35881  0.67722  1.0000
  C   C542      1.0  0.32785  0.35815  0.63643  1.0000
  C   C543      1.0  0.35012  0.36871  0.62199  1.0000
  C   C544      1.0  0.36538  0.37908  0.64870  1.0000
  H   H418      1.0  0.33007  0.37038  0.73516  1.0000
  H   H419      1.0  0.30324  0.35084  0.68840  1.0000
  H   H420      1.0  0.35571  0.36855  0.59025  1.0000
  H   H421      1.0  0.38273  0.38671  0.63775  1.0000
  C   C545      1.0  0.35125  0.31797  0.59340  1.0000
  C   C546      1.0  0.41463  0.29457  0.85911  1.0000
  H   H422      1.0  0.41507  0.28036  0.87379  1.0000
  H   H423      1.0  0.43165  0.29186  0.80200  1.0000
  C   C547      1.0  0.37713  0.25200  0.81804  1.0000
  C   C548      1.0  0.17471  0.31173  0.75095  1.0000
  H   H424      1.0  0.40329  0.39426  0.57489  1.0000
  H   H425      1.0  0.18667  0.29279  0.98640  1.0000
  C   C549      1.0  0.35171  0.43233  0.53726  1.0000
  C   C550      1.0  0.99738  0.45821  0.55868  1.0000
  H   H426      1.0  0.37949  0.34502  0.58742  1.0000
  S   S80       1.0  0.43058  0.36837  0.55927  1.0000
  H   H427      1.0  0.33478  0.33754  0.76170  1.0000
  H   H428      1.0  0.21911  0.36287  0.82354  1.0000
  C   C551      1.0  0.20622  0.31526  0.79407  1.0000
  C   C552      1.0  0.21879  0.33231  0.76861  1.0000
  C   C553      1.0  0.20931  0.33914  0.73452  1.0000
  C   C554      1.0  0.09573  0.44366  0.57890  1.0000
  H   H429      1.0  0.36308  0.35142  0.86391  1.0000
  H   H430      1.0  0.16331  0.25420  0.89259  1.0000
  H   H431      1.0  0.39813  0.33475  0.87864  1.0000
  C   C555      1.0  0.26628  0.24905  0.92782  1.0000
  H   H432      1.0  0.37555  0.34015  0.75992  1.0000
  H   H433      1.0  0.21400  0.31004  0.82000  1.0000
  H   H434      1.0  0.23602  0.34009  0.77499  1.0000
  H   H435      1.0  0.21923  0.35208  0.71422  1.0000
  H   H436      1.0  0.12970  0.28967  0.86595  1.0000
  H   H437      1.0  0.00437  0.36869  0.62802  1.0000
  C   C556      1.0  0.18269  0.29082  0.95472  1.0000
  C   C557      1.0  0.97946  0.44250  0.57865  1.0000
  C   C558      1.0  0.03391  0.25053  0.98209  1.0000
  C   C559      1.0  0.12347  0.28271  0.83875  1.0000
  Fe  Fe43      1.0  0.46181  0.40093  0.68407  1.0000
  H   H438      1.0  0.41478  0.34629  0.80689  1.0000
  H   H439      1.0  0.99262  0.34296  0.70120  1.0000
  Fe  Fe44      1.0  0.43640  0.35687  0.71374  1.0000
  H   H440      1.0  0.98336  0.28838  0.91118  1.0000
  C   C560      1.0  0.34611  0.28409  0.85307  1.0000
  H   H441      1.0  0.28599  0.27536  0.54677  1.0000
  H   H442      1.0  0.28333  0.28074  0.84204  1.0000
  C   C561      1.0  0.35031  0.29603  0.54016  1.0000
  C   C562      1.0  0.38073  0.32710  0.53789  1.0000
  C   C563      1.0  0.01848  0.43213  0.68946  1.0000
  C   C564      1.0  0.98835  0.31660  0.93567  1.0000
  S   S81       1.0  0.40168  0.24686  0.97939  1.0000
  H   H443      1.0  0.40533  0.37023  0.96275  1.0000
  H   H444      1.0  0.31975  0.28083  0.71434  1.0000
  C   C565      1.0  0.31734  0.30022  0.84138  1.0000
  C   C566      1.0  0.34002  0.30149  0.84572  1.0000
  H   H445      1.0  0.32502  0.29013  0.59090  1.0000
  H   H446      1.0  0.34180  0.28252  0.52682  1.0000
  C   C567      1.0  0.12428  0.32886  0.76875  1.0000
  C   C568      1.0  0.11046  0.33965  0.75265  1.0000
  C   C569      1.0  0.10652  0.35476  0.77372  1.0000
  C   C570      1.0  0.11631  0.35910  0.81093  1.0000
  C   C571      1.0  0.13039  0.34844  0.82730  1.0000
  C   C572      1.0  0.13423  0.33323  0.80591  1.0000
  P   P20       1.0  0.13989  0.35151  0.87868  1.0000
  C   C573      1.0  0.12516  0.32816  0.90921  1.0000
  C   C574      1.0  0.17024  0.35762  0.88143  1.0000
  C   C575      1.0  0.18461  0.35811  0.84675  1.0000
  C   C576      1.0  0.20800  0.36263  0.85012  1.0000
  C   C577      1.0  0.21719  0.36687  0.88784  1.0000
  C   C578      1.0  0.20308  0.36689  0.92218  1.0000
  C   C579      1.0  0.17975  0.36251  0.91891  1.0000
  C   C580      1.0  0.13612  0.31918  0.93829  1.0000
  C   C581      1.0  0.12462  0.30069  0.96006  1.0000
  C   C582      1.0  0.10188  0.29133  0.95423  1.0000
  C   C583      1.0  0.09078  0.30023  0.92574  1.0000
  C   C584      1.0  0.10243  0.31838  0.90288  1.0000
  C   C585      1.0  0.13184  0.37186  0.89763  1.0000
  C   C586      1.0  0.14575  0.39163  0.88741  1.0000
  C   C587      1.0  0.13869  0.40758  0.89886  1.0000
  C   C588      1.0  0.11757  0.40389  0.92005  1.0000
  C   C589      1.0  0.10372  0.38427  0.93042  1.0000
  C   C590      1.0  0.11090  0.36833  0.91955  1.0000
  H   H447      1.0  0.12669  0.31675  0.75288  1.0000
  C   C591      1.0  0.33926  0.25117  0.60094  1.0000
  H   H448      1.0  0.09521  0.36267  0.76188  1.0000
  H   H449      1.0  0.11208  0.37030  0.82732  1.0000
  H   H450      1.0  0.14438  0.32439  0.81859  1.0000
  H   H451      1.0  0.17795  0.35506  0.81715  1.0000
  C   C592      1.0  0.33218  0.29343  0.72459  1.0000
  H   H452      1.0  0.21022  0.37024  0.95148  1.0000
  H   H453      1.0  0.16907  0.36268  0.94594  1.0000
  H   H454      1.0  0.15339  0.32631  0.94481  1.0000
  H   H455      1.0  0.12417  0.35325  0.55479  1.0000
  C   C593      1.0  0.32971  0.26538  0.85513  1.0000
  H   H456      1.0  0.07310  0.29313  0.92139  1.0000
  H   H457      1.0  0.09355  0.32498  0.88070  1.0000
  H   H458      1.0  0.16187  0.39476  0.86998  1.0000
  H   H459      1.0  0.14941  0.42280  0.89066  1.0000
  H   H460      1.0  0.11182  0.41620  0.92819  1.0000
  H   H461      1.0  0.08715  0.38129  0.94630  1.0000
  H   H462      1.0  0.09980  0.35331  0.92751  1.0000
  P   P21       1.0  0.07043  0.39137  0.52741  1.0000
  S   S82       1.0  0.22749  0.27712  0.67645  1.0000
  C   C594      1.0  0.33283  0.41081  0.59811  1.0000
  C   C595      1.0  0.34986  0.42764  0.57994  1.0000
  C   C596      1.0  0.03976  0.24940  0.02292  1.0000
  H   H463      1.0  0.14999  0.27936  0.56137  1.0000
  C   C597      1.0  0.44365  0.48016  0.58302  1.0000
  C   C598      1.0  0.31745  0.39885  0.57371  1.0000
  C   C599      1.0  0.31894  0.40358  0.53080  1.0000
  C   C600      1.0  0.35369  0.26259  0.62757  1.0000
  C   C601      1.0  0.13799  0.27739  0.81102  1.0000
  H   H464      1.0  0.10239  0.33608  0.72424  1.0000
  S   S83       1.0  0.03665  0.25135  0.68603  1.0000
  C   C602      1.0  0.37492  0.26525  0.78515  1.0000
  H   H465      1.0  0.40457  0.43413  0.58973  1.0000
  C   C603      1.0  0.40303  0.39195  0.54273  1.0000
  C   C604      1.0  0.98316  0.33403  0.83950  1.0000
  C   C605      1.0  0.07824  0.36882  0.53575  1.0000
  H   H466      1.0  0.41497  0.30771  0.01520  1.0000
  H   H467      1.0  0.99162  0.34915  0.84617  1.0000
  C   C606      1.0  0.41503  0.38001  0.52717  1.0000
  H   H468      1.0  0.05505  0.31831  0.54604  1.0000
  C   C607      1.0  0.34666  0.26163  0.66935  1.0000
  H   H469      1.0  0.33184  0.40668  0.63107  1.0000
  H   H470      1.0  0.36190  0.43674  0.59889  1.0000
  C   C608      1.0  0.98447  0.30424  0.80943  1.0000
  H   H471      1.0  0.98846  0.34349  0.96116  1.0000
  H   H472      1.0  0.30488  0.38562  0.58851  1.0000
  H   H473      1.0  0.11588  0.30071  0.63994  1.0000
  H   H474      1.0  0.37026  0.27205  0.61534  1.0000
  S   S84       1.0  0.25248  0.24662  0.60622  1.0000
  C   C609      1.0  0.27834  0.24809  0.77247  1.0000
  C   C610      1.0  0.30690  0.26395  0.85078  1.0000
  H   H475      1.0  0.20939  0.27887  0.77877  1.0000
  C   C611      1.0  0.00569  0.39436  0.53453  1.0000
  C   C612      1.0  0.39658  0.30472  0.65123  1.0000
  H   H476      1.0  0.23720  0.35058  0.60179  1.0000
  C   C613      1.0  0.26879  0.24400  0.56267  1.0000
  C   C614      1.0  0.43667  0.30875  0.64283  1.0000
  C   C615      1.0  0.04105  0.38688  0.54314  1.0000
  S   S85       1.0  0.23222  0.32647  0.99820  1.0000
  C   C616      1.0  0.42952  0.46159  0.60069  1.0000
  Fe  Fe45      1.0  0.02343  0.26994  0.63981  1.0000
  C   C617      1.0  0.17619  0.26142  0.80586  1.0000
  C   C618      1.0  0.09221  0.27056  0.79599  1.0000
  H   H477      1.0  0.10452  0.41196  0.65654  1.0000
  C   C619      1.0  0.33912  0.30472  0.94605  1.0000
  C   C620      1.0  0.31600  0.29961  0.94039  1.0000
  C   C621      1.0  0.30568  0.31452  0.93386  1.0000
  C   C622      1.0  0.31841  0.33458  0.93362  1.0000
  C   C623      1.0  0.34152  0.33985  0.94033  1.0000
  C   C624      1.0  0.35194  0.32479  0.94542  1.0000
  C   C625      1.0  0.40638  0.40412  0.86447  1.0000
  C   C626      1.0  0.39292  0.39484  0.90034  1.0000
  H   H478      1.0  0.34708  0.29308  0.95081  1.0000
  H   H479      1.0  0.30614  0.28411  0.94062  1.0000
  H   H480      1.0  0.28772  0.31053  0.92977  1.0000
  H   H481      1.0  0.36991  0.32854  0.94936  1.0000
  H   H482      1.0  0.41807  0.41905  0.86393  1.0000
  H   H483      1.0  0.39405  0.40280  0.92739  1.0000
  C   C627      1.0  0.40528  0.32529  0.86185  1.0000
  H   H484      1.0  0.31241  0.31368  0.83648  1.0000
  P   P22       1.0  0.35781  0.36538  0.94509  1.0000
  H   H485      1.0  0.27129  0.25418  0.70945  1.0000
  C   C628      1.0  0.12936  0.26872  0.77563  1.0000
  C   C629      1.0  0.19771  0.26408  0.78687  1.0000
  H   H486      1.0  0.00849  0.45670  0.66269  1.0000
  H   H487      1.0  0.15511  0.32396  0.63032  1.0000
  C   C630      1.0  0.41812  0.31510  0.63277  1.0000
  H   H488      1.0  0.00612  0.32227  0.92541  1.0000
  C   C631      1.0  0.18396  0.30488  0.78570  1.0000
  C   C632      1.0  0.18054  0.30507  0.88537  1.0000
  Fe  Fe46      1.0  0.25444  0.27654  0.62869  1.0000
  C   C633      1.0  0.97822  0.32861  0.95617  1.0000
  H   H489      1.0  0.33496  0.25220  0.86083  1.0000
  C   C634      1.0  0.01946  0.36413  0.72806  1.0000
  C   C635      1.0  0.01075  0.34933  0.70214  1.0000
  C   C636      1.0  0.37138  0.33123  0.57441  1.0000
  H   H490      1.0  0.14223  0.25115  0.65893  1.0000
  S   S86       1.0  0.35257  0.24282  0.93990  1.0000
  C   C637      1.0  0.17291  0.28588  0.87231  1.0000
  C   C638      1.0  0.31545  0.39751  0.91000  1.0000
  S   S87       1.0  0.00144  0.37270  0.75913  1.0000
  C   C639      1.0  0.32485  0.30879  0.73849  1.0000
  C   C640      1.0  0.40520  0.30663  0.88096  1.0000
  H   H491      1.0  0.04281  0.37034  0.60133  1.0000
  C   C641      1.0  0.10064  0.27931  0.83105  1.0000
  H   H492      1.0  0.38090  0.40964  0.52917  1.0000
  S   S88       1.0  0.99326  0.26118  0.60047  1.0000
  C   C642      1.0  0.42432  0.31987  0.79948  1.0000
  H   H493      1.0  0.33020  0.37718  0.88362  1.0000
  C   C643      1.0  0.30086  0.28153  0.84439  1.0000
  H   H494      1.0  0.38274  0.32143  0.01392  1.0000
  H   H495      1.0  0.98196  0.43332  0.60526  1.0000
  H   H496      1.0  0.28263  0.25074  0.94014  1.0000
  H   H497      1.0  0.01311  0.33070  0.80966  1.0000
  H   H498      1.0  0.38254  0.31026  0.64447  1.0000
  H   H499      1.0  0.06492  0.48552  0.61776  1.0000
  C   C644      1.0  0.36760  0.25820  0.74772  1.0000
  H   H500      1.0  0.08935  0.28360  0.85186  1.0000
  C   C645      1.0  0.03248  0.37687  0.58217  1.0000
  H   H501      1.0  0.21556  0.25539  0.95449  1.0000
  P   P23       1.0  0.36556  0.27543  0.70477  1.0000
  C   C646      1.0  0.41667  0.44924  0.01077  1.0000
  C   C647      1.0  0.03722  0.43089  0.61084  1.0000
  C   C648      1.0  0.36338  0.32702  0.75051  1.0000
  H   H502      1.0  0.03030  0.40731  0.70820  1.0000
  C   C649      1.0  0.34031  0.38176  0.94562  1.0000
  C   C650      1.0  0.32903  0.38491  0.91044  1.0000
  C   C651      1.0  0.37174  0.36430  0.99235  1.0000
  H   H503      1.0  0.42054  0.32846  0.61170  1.0000
  C   C652      1.0  0.02943  0.41797  0.68289  1.0000
  H   H504      1.0  0.28782  0.26351  0.77477  1.0000
  C   C653      1.0  0.33870  0.39232  0.97949  1.0000
  H   H505      1.0  0.17179  0.25875  0.96474  1.0000
  C   C654      1.0  0.06187  0.35009  0.53627  1.0000
  H   H506      1.0  0.37918  0.28100  0.78890  1.0000
  C   C655      1.0  0.03879  0.41731  0.64366  1.0000
  C   C656      1.0  0.18587  0.30751  0.92614  1.0000
  C   C657      1.0  0.02670  0.44549  0.61744  1.0000
  H   H507      1.0  0.44814  0.28733  0.67959  1.0000
  C   C658      1.0  0.10688  0.35240  0.54894  1.0000
  H   H508      1.0  0.03973  0.26953  0.52881  1.0000
  C   C659      1.0  0.31321  0.40729  0.94447  1.0000
  C   C660      1.0  0.32495  0.40479  0.97909  1.0000
  C   C661      1.0  0.10246  0.43728  0.61664  1.0000
  H   H509      1.0  0.00018  0.27652  0.00240  1.0000
  C   C662      1.0  0.37541  0.36593  0.86484  1.0000
  H   H510      1.0  0.30605  0.39912  0.88335  1.0000
  C   C663      1.0  0.08505  0.40961  0.56034  1.0000
  H   H511      1.0  0.23530  0.37028  0.89045  1.0000
  H   H512      1.0  0.98118  0.38476  0.58648  1.0000
  C   C664      1.0  0.46738  0.43579  0.54861  1.0000
  H   H513      1.0  0.18270  0.31821  0.86411  1.0000
  C   C665      1.0  0.97548  0.29756  0.92746  1.0000
  H   H514      1.0  0.30211  0.41655  0.94458  1.0000
  H   H515      1.0  0.04410  0.42984  0.58062  1.0000
  C   C666      1.0  0.18726  0.32891  0.72585  1.0000
  C   C667      1.0  0.43363  0.29186  0.67091  1.0000
  C   C668      1.0  0.38881  0.37532  0.82900  1.0000
  H   H516      1.0  0.04430  0.26225  0.95958  1.0000
  C   C669      1.0  0.44442  0.48548  0.54054  1.0000
  C   C670      1.0  0.39335  0.28777  0.67950  1.0000
  C   C671      1.0  0.06793  0.33267  0.54392  1.0000
  H   H517      1.0  0.38687  0.36808  0.80092  1.0000
  C   C672      1.0  0.97496  0.25180  0.52764  1.0000
  C   C673      1.0  0.10004  0.41706  0.62674  1.0000
  H   H518      1.0  0.10906  0.44792  0.63847  1.0000
  C   C674      1.0  0.20436  0.24760  0.77780  1.0000
  H   H519      1.0  0.18013  0.33393  0.69878  1.0000
  C   C675      1.0  0.99534  0.32357  0.81902  1.0000
  H   H520      1.0  0.09278  0.27745  0.97252  1.0000
  H   H521      1.0  0.07689  0.26153  0.57137  1.0000
  H   H522      1.0  0.19245  0.32237  0.93570  1.0000
  C   C676      1.0  0.34046  0.32563  0.75114  1.0000
  H   H523      1.0  0.09999  0.25871  0.74082  1.0000
  S   S89       1.0  0.02738  0.33810  0.02347  1.0000
  C   C677      1.0  0.41204  0.28134  0.68916  1.0000
  H   H524      1.0  0.13311  0.29391  0.98264  1.0000
  P   P24       1.0  0.16781  0.28271  0.81872  1.0000
  C   C678      1.0  0.22837  0.25171  0.93613  1.0000
  H   H525      1.0  0.34461  0.25186  0.56872  1.0000
  H   H526      1.0  0.04698  0.40608  0.63882  1.0000
  H   H527      1.0  0.43234  0.40744  0.00318  1.0000
  C   C679      1.0  0.24939  0.25321  0.95168  1.0000
  C   C680      1.0  0.35525  0.29471  0.72374  1.0000
  C   C681      1.0  0.17882  0.25002  0.56129  1.0000
  C   C682      1.0  0.98280  0.26889  0.01324  1.0000
  H   H528      1.0  0.97824  0.25203  0.76606  1.0000
  S   S90       1.0  0.26417  0.37261  0.00566  1.0000
  C   C683      1.0  0.99763  0.38497  0.57396  1.0000
  H   H529      1.0  0.08842  0.38751  0.60831  1.0000
  H   H530      1.0  0.38254  0.25741  0.84709  1.0000
  H   H531      1.0  0.09694  0.45923  0.57157  1.0000
  H   H532      1.0  0.04434  0.34886  0.53162  1.0000
  C   C684      1.0  0.41616  0.45391  0.53377  1.0000
  H   H533      1.0  0.41278  0.46097  0.99166  1.0000
  H   H534      1.0  0.27577  0.35937  0.56978  1.0000
  H   H535      1.0  0.42301  0.43405  0.95946  1.0000
  C   C685      1.0  0.09034  0.33379  0.55074  1.0000
  H   H536      1.0  0.46827  0.44538  0.71460  1.0000
  H   H537      1.0  0.45349  0.31725  0.62970  1.0000
  H   H538      1.0  0.09477  0.32026  0.55837  1.0000
  H   H539      1.0  0.20957  0.36611  0.57270  1.0000
  H   H540      1.0  0.46315  0.43260  0.80169  1.0000
  C   C686      1.0  0.26426  0.36677  0.55697  1.0000
  C   C687      1.0  0.42242  0.43407  0.99264  1.0000
  H   H541      1.0  0.25272  0.25793  0.98206  1.0000
  C   C688      1.0  0.06906  0.24792  0.55774  1.0000
  H   H542      1.0  0.98014  0.47878  0.66917  1.0000
  C   C689      1.0  0.22671  0.37040  0.55866  1.0000
  C   C690      1.0  0.03235  0.48727  0.59968  1.0000
  C   C691      1.0  0.10655  0.26528  0.76829  1.0000
  H   H543      1.0  0.11383  0.38423  0.54009  1.0000
  H   H544      1.0  0.97516  0.25297  0.95967  1.0000
  S   S91       1.0  0.28657  0.33635  0.01411  1.0000
  H   H545      1.0  0.31298  0.27138  0.01125  1.0000
  C   C692      1.0  0.32513  0.24880  0.68401  1.0000
  C   C693      1.0  0.97328  0.24612  0.79786  1.0000
  H   H546      1.0  0.22109  0.24989  0.76321  1.0000
  H   H547      1.0  0.98312  0.33390  0.58333  1.0000
  C   C694      1.0  0.26220  0.24310  0.88824  1.0000
  C   C695      1.0  0.28428  0.26038  0.53926  1.0000
  H   H548      1.0  0.31959  0.24729  0.71632  1.0000
  H   H549      1.0  0.17192  0.25458  0.58833  1.0000
  H   H550      1.0  0.38470  0.27606  0.53621  1.0000
  H   H551      1.0  0.45249  0.43069  0.56987  1.0000
  C   C696      1.0  0.20117  0.24962  0.55932  1.0000
  H   H552      1.0  0.34774  0.39096  0.00657  1.0000
  C   C697      1.0  0.16126  0.24195  0.81512  1.0000
  H   H553      1.0  0.16413  0.31597  0.54495  1.0000
  H   H554      1.0  0.32301  0.41212  0.00615  1.0000
  C   C698      1.0  0.97381  0.32260  0.56477  1.0000
  C   C699      1.0  0.42760  0.41905  0.01731  1.0000
  H   H555      1.0  0.13632  0.41944  0.99540  1.0000
  H   H556      1.0  0.14789  0.24439  0.53050  1.0000
  C   C700      1.0  0.26894  0.24291  0.73530  1.0000
  C   C701      1.0  0.14861  0.30746  0.53252  1.0000
  H   H557      1.0  0.20810  0.24532  0.88409  1.0000
  C   C702      1.0  0.22416  0.24594  0.89667  1.0000
  C   C703      1.0  0.24103  0.24177  0.87269  1.0000
  C   C704      1.0  0.16533  0.24432  0.52863  1.0000
  C   C705      1.0  0.14068  0.28675  0.54167  1.0000
  S   S92       1.0  0.04767  0.30056  0.00815  1.0000
  H   H558      1.0  0.21156  0.25398  0.58483  1.0000
  H   H559      1.0  0.38771  0.24203  0.53572  1.0000
  S   S93       1.0  0.08195  0.34571  0.01509  1.0000
  H   H560      1.0  0.10679  0.38808  0.02325  1.0000
  H   H561      1.0  0.11477  0.25963  0.53397  1.0000
  C   C706      1.0  0.13784  0.41202  0.02506  1.0000
  S   S94       1.0  0.36356  0.26272  0.02623  1.0000
  H   H562      1.0  0.97241  0.40749  0.02146  1.0000
  C   C707      1.0  0.97432  0.39270  0.02542  1.0000
  H   H563      1.0  0.97249  0.65146  0.43493  1.0000
  C   C708      1.0  0.13965  0.71012  0.13538  1.0000
  C   C709      1.0  0.02457  0.71531  0.50172  1.0000
  S   S95       1.0  0.08540  0.66058  0.08984  1.0000
  S   S96       1.0  0.09679  0.72195  0.07573  1.0000
  Fe  Fe47      1.0  0.04524  0.59593  0.30519  1.0000
  S   S97       1.0  0.01876  0.57531  0.27142  1.0000
  S   S98       1.0  0.06553  0.62797  0.28054  1.0000
  Fe  Fe48      1.0  0.03397  0.56645  0.38391  1.0000
  S   S99       1.0  0.00628  0.54420  0.35603  1.0000
  S   S100      1.0  0.04512  0.55587  0.44445  1.0000
  Fe  Fe49      1.0  0.03065  0.55054  0.30069  1.0000
  S   S101      1.0  0.03108  0.52457  0.26532  1.0000
  Fe  Fe50      1.0  0.99665  0.57055  0.32960  1.0000
  C   C710      1.0  0.02353  0.70872  0.13065  1.0000
  S   S102      1.0  0.05932  0.57149  0.32953  1.0000
  S   S103      1.0  0.02219  0.59256  0.36245  1.0000
  C   C711      1.0  0.04051  0.56144  0.49499  1.0000
  H   H564      1.0  0.44084  0.54468  0.38382  1.0000
  C   C712      1.0  0.14026  0.72959  0.14169  1.0000
  C   C713      1.0  0.98731  0.64818  0.42269  1.0000
  C   C714      1.0  0.03740  0.50406  0.29155  1.0000
  C   C715      1.0  0.10717  0.64090  0.40640  1.0000
  C   C716      1.0  0.02536  0.64601  0.43007  1.0000
  C   C717      1.0  0.07365  0.67685  0.31726  1.0000
  C   C718      1.0  0.08020  0.65209  0.14306  1.0000
  C   C719      1.0  0.08411  0.66516  0.17357  1.0000
  C   C720      1.0  0.08008  0.65750  0.21545  1.0000
  C   C721      1.0  0.07129  0.63682  0.22733  1.0000
  C   C722      1.0  0.06731  0.62380  0.19674  1.0000
  C   C723      1.0  0.07221  0.63142  0.15491  1.0000
  H   H565      1.0  0.09039  0.68110  0.16492  1.0000
  H   H566      1.0  0.08374  0.66769  0.23868  1.0000
  H   H567      1.0  0.06097  0.60785  0.20535  1.0000
  H   H568      1.0  0.06999  0.62126  0.13146  1.0000
  H   H569      1.0  0.08252  0.68029  0.50355  1.0000
  P   P25       1.0  0.05099  0.65168  0.45722  1.0000
  H   H570      1.0  0.09942  0.66604  0.42748  1.0000
  C   C724      1.0  0.01948  0.58814  0.13208  1.0000
  H   H571      1.0  0.01257  0.72319  0.36290  1.0000
  C   C725      1.0  0.01696  0.70253  0.47122  1.0000
  C   C726      1.0  0.98899  0.72392  0.31688  1.0000
  H   H572      1.0  0.06442  0.49118  0.37341  1.0000
  H   H573      1.0  0.03807  0.66377  0.18528  1.0000
  C   C727      1.0  0.07684  0.60963  0.41438  1.0000
  C   C728      1.0  0.07016  0.63941  0.43675  1.0000
  C   C729      1.0  0.07918  0.68836  0.47600  1.0000
  C   C730      1.0  0.06238  0.61892  0.43215  1.0000
  C   C731      1.0  0.97954  0.65473  0.11300  1.0000
  C   C732      1.0  0.04408  0.64452  0.51194  1.0000
  C   C733      1.0  0.98442  0.55199  0.14141  1.0000
  C   C734      1.0  0.98436  0.52008  0.52063  1.0000
  H   H574      1.0  0.02463  0.69103  0.46655  1.0000
  H   H575      1.0  0.03367  0.57539  0.18265  1.0000
  C   C735      1.0  0.02298  0.56889  0.50726  1.0000
  C   C736      1.0  0.07039  0.71001  0.40613  1.0000
  H   H576      1.0  0.97771  0.57626  0.51097  1.0000
  C   C737      1.0  0.00859  0.49653  0.41709  1.0000
  H   H577      1.0  0.06663  0.71844  0.37953  1.0000
  C   C738      1.0  0.98938  0.71941  0.45281  1.0000
  H   H578      1.0  0.03303  0.60213  0.12901  1.0000
  C   C739      1.0  0.01978  0.57309  0.16265  1.0000
  H   H579      1.0  0.13913  0.68130  0.16387  1.0000
  C   C740      1.0  0.01488  0.73049  0.50693  1.0000
  H   H580      1.0  0.10191  0.72048  0.25997  1.0000
  H   H581      1.0  0.14368  0.72629  0.24581  1.0000
  C   C741      1.0  0.46950  0.51206  0.44991  1.0000
  C   C742      1.0  0.98800  0.63783  0.05603  1.0000
  C   C743      1.0  0.14017  0.69653  0.16879  1.0000
  C   C744      1.0  0.00599  0.63667  0.36829  1.0000
  H   H582      1.0  0.99437  0.53270  0.45780  1.0000
  H   H583      1.0  0.41905  0.51024  0.41001  1.0000
  H   H584      1.0  0.46118  0.50027  0.17721  1.0000
  H   H585      1.0  0.00266  0.54334  0.19106  1.0000
  C   C745      1.0  0.14170  0.70251  0.20847  1.0000
  H   H586      1.0  0.42344  0.50783  0.30989  1.0000
  C   C746      1.0  0.43627  0.51613  0.41857  1.0000
  C   C747      1.0  0.00613  0.65020  0.44601  1.0000
  H   H587      1.0  0.99319  0.69414  0.42442  1.0000
  C   C748      1.0  0.06019  0.68933  0.41282  1.0000
  H   H588      1.0  0.00558  0.63082  0.33874  1.0000
  H   H589      1.0  0.01664  0.71637  0.19052  1.0000
  H   H590      1.0  0.12451  0.64936  0.39635  1.0000
  H   H591      1.0  0.01728  0.51111  0.42639  1.0000
  H   H592      1.0  0.97359  0.66633  0.12451  1.0000
  C   C749      1.0  0.14257  0.72207  0.21482  1.0000
  C   C750      1.0  0.09279  0.65029  0.42413  1.0000
  H   H593      1.0  0.14199  0.69187  0.23430  1.0000
  H   H594      1.0  0.09214  0.73597  0.43018  1.0000
  C   C751      1.0  0.98223  0.53082  0.48382  1.0000
  C   C752      1.0  0.98589  0.64138  0.14045  1.0000
  C   C753      1.0  0.97528  0.61805  0.26050  1.0000
  C   C754      1.0  0.45880  0.51486  0.29039  1.0000
  C   C755      1.0  0.09145  0.69390  0.30273  1.0000
  C   C756      1.0  0.98086  0.71711  0.27996  1.0000
  C   C757      1.0  0.03612  0.67963  0.12790  1.0000
  C   C758      1.0  0.04497  0.60069  0.03888  1.0000
  C   C759      1.0  0.04936  0.50598  0.32718  1.0000
  H   H595      1.0  0.03902  0.66013  0.31234  1.0000
  H   H596      1.0  0.99748  0.72072  0.05306  1.0000
  H   H597      1.0  0.98083  0.50539  0.39385  1.0000
  H   H598      1.0  0.03973  0.63619  0.37726  1.0000
  C   C760      1.0  0.44857  0.53574  0.40348  1.0000
  H   H599      1.0  0.97556  0.66326  0.04954  1.0000
  H   H600      1.0  0.11016  0.61330  0.38721  1.0000
  C   C761      1.0  0.03155  0.61356  0.04016  1.0000
  C   C762      1.0  0.44648  0.50427  0.44294  1.0000
  H   H601      1.0  0.07072  0.59391  0.41037  1.0000
  C   C763      1.0  0.98741  0.64169  0.38360  1.0000
  H   H602      1.0  0.03850  0.58534  0.05247  1.0000
  C   C764      1.0  0.06427  0.67839  0.44814  1.0000
  H   H603      1.0  0.00571  0.65540  0.47599  1.0000
  H   H604      1.0  0.03216  0.69786  0.07453  1.0000
  H   H605      1.0  0.04873  0.68206  0.39089  1.0000
  H   H606      1.0  0.05291  0.61692  0.51395  1.0000
  C   C765      1.0  0.00194  0.58510  0.10525  1.0000
  C   C766      1.0  0.02511  0.63923  0.39092  1.0000
  H   H607      1.0  0.13847  0.70549  0.10457  1.0000
  H   H608      1.0  0.99819  0.61616  0.14776  1.0000
  C   C767      1.0  0.08486  0.71988  0.43446  1.0000
  C   C768      1.0  0.99347  0.62631  0.12576  1.0000
  C   C769      1.0  0.08940  0.70903  0.46915  1.0000
  C   C770      1.0  0.43658  0.50200  0.29882  1.0000
  H   H609      1.0  0.04504  0.61015  0.44172  1.0000
  C   C771      1.0  0.99915  0.70429  0.44734  1.0000
  C   C772      1.0  0.99449  0.62435  0.08334  1.0000
  H   H610      1.0  0.05471  0.52024  0.33957  1.0000
  C   C773      1.0  0.08816  0.70735  0.27137  1.0000
  C   C774      1.0  0.06713  0.70374  0.25444  1.0000
  C   C775      1.0  0.04921  0.68657  0.26871  1.0000
  C   C776      1.0  0.05254  0.67334  0.30068  1.0000
  P   P26       1.0  0.02156  0.68333  0.24964  1.0000
  C   C777      1.0  0.02585  0.68897  0.19419  1.0000
  C   C778      1.0  0.00358  0.65764  0.25775  1.0000
  C   C779      1.0  0.98001  0.65307  0.26547  1.0000
  Fe  Fe51      1.0  0.09280  0.69160  0.05533  1.0000
  H   H611      1.0  0.98480  0.64267  0.17319  1.0000
  C   C780      1.0  0.99865  0.62240  0.25347  1.0000
  C   C781      1.0  0.01274  0.64203  0.25233  1.0000
  C   C782      1.0  0.03374  0.67632  0.17079  1.0000
  H   H612      1.0  0.07625  0.66607  0.34078  1.0000
  C   C783      1.0  0.03066  0.69562  0.10782  1.0000
  H   H613      1.0  0.10783  0.69652  0.31542  1.0000
  C   C784      1.0  0.02151  0.70566  0.17372  1.0000
  C   C785      1.0  0.00868  0.69925  0.27575  1.0000
  C   C786      1.0  0.99042  0.70461  0.25972  1.0000
  C   C787      1.0  0.98425  0.56695  0.11035  1.0000
  C   C788      1.0  0.01650  0.70594  0.31336  1.0000
  H   H614      1.0  0.03433  0.67077  0.52222  1.0000
  H   H615      1.0  0.06476  0.71436  0.23038  1.0000
  H   H616      1.0  0.10004  0.71675  0.49181  1.0000
  C   C789      1.0  0.47116  0.54362  0.41216  1.0000
  H   H617      1.0  0.04202  0.66965  0.11019  1.0000
  H   H618      1.0  0.01985  0.72142  0.11483  1.0000
  H   H619      1.0  0.00590  0.61055  0.24874  1.0000
  H   H620      1.0  0.03078  0.64496  0.24680  1.0000
  H   H621      1.0  0.98603  0.50260  0.30921  1.0000
  C   C790      1.0  0.00672  0.71826  0.33368  1.0000
  H   H622      1.0  0.98453  0.53221  0.26528  1.0000
  P   P27       1.0  0.00296  0.60424  0.06388  1.0000
  H   H623      1.0  0.01228  0.57253  0.48454  1.0000
  H   H624      1.0  0.98321  0.69888  0.23198  1.0000
  C   C791      1.0  0.09915  0.62059  0.40133  1.0000
  H   H625      1.0  0.02992  0.70149  0.32753  1.0000
  C   C792      1.0  0.00227  0.55501  0.16735  1.0000
  C   C793      1.0  0.98069  0.65301  0.07079  1.0000
  Fe  Fe52      1.0  0.12548  0.73370  0.02664  1.0000
  H   H626      1.0  0.39675  0.49375  0.49441  1.0000
  C   C794      1.0  0.98824  0.49338  0.39792  1.0000
  H   H627      1.0  0.99651  0.61098  0.52300  1.0000
  H   H628      1.0  0.06824  0.55146  0.51511  1.0000
  S   S104      1.0  0.46450  0.54048  0.29594  1.0000
  C   C795      1.0  0.14153  0.73571  0.18146  1.0000
  H   H629      1.0  0.06445  0.73817  0.13439  1.0000
  H   H630      1.0  0.09112  0.49501  0.47506  1.0000
  H   H631      1.0  0.98119  0.73321  0.33303  1.0000
  H   H632      1.0  0.09603  0.73322  0.17272  1.0000
  C   C796      1.0  0.99757  0.73270  0.48217  1.0000
  S   S105      1.0  0.04602  0.73744  0.03328  1.0000
  H   H633      1.0  0.13960  0.73991  0.11550  1.0000
  C   C797      1.0  0.97820  0.60547  0.52359  1.0000
  H   H634      1.0  0.97280  0.64001  0.36556  1.0000
  H   H635      1.0  0.99813  0.51369  0.52297  1.0000
  C   C798      1.0  0.05456  0.55705  0.52434  1.0000
  H   H636      1.0  0.97220  0.66461  0.26956  1.0000
  H   H637      1.0  0.97170  0.58250  0.40165  1.0000
  H   H638      1.0  0.07649  0.72413  0.78286  1.0000
  H   H639      1.0  0.02824  0.62938  0.62941  1.0000
  H   H640      1.0  0.01027  0.58833  0.98565  1.0000
  H   H641      1.0  0.02404  0.66102  0.59627  1.0000
  H   H642      1.0  0.00531  0.66241  0.95998  1.0000
  H   H643      1.0  0.18498  0.73781  0.82636  1.0000
  Fe  Fe53      1.0  0.09988  0.70797  0.96302  1.0000
  S   S106      1.0  0.10643  0.69530  0.90435  1.0000
  S   S107      1.0  0.98477  0.69610  0.70157  1.0000
  H   H644      1.0  0.13146  0.62732  0.81676  1.0000
  S   S108      1.0  0.09755  0.71084  0.71221  1.0000
  Fe  Fe54      1.0  0.02020  0.71362  0.67646  1.0000
  H   H645      1.0  0.07741  0.59775  0.02021  1.0000
  S   S109      1.0  0.04309  0.69827  0.64930  1.0000
  Fe  Fe55      1.0  0.99594  0.56811  0.66173  1.0000
  S   S110      1.0  0.02945  0.56863  0.63159  1.0000
  H   H646      1.0  0.03357  0.56365  0.94383  1.0000
  H   H647      1.0  0.04299  0.68246  0.92611  1.0000
  C   C799      1.0  0.04315  0.60037  0.86386  1.0000
  S   S111      1.0  0.99191  0.59440  0.69124  1.0000
  C   C800      1.0  0.04179  0.52126  0.64251  1.0000
  C   C801      1.0  0.03300  0.56617  0.57864  1.0000
  S   S112      1.0  0.98097  0.58267  0.80724  1.0000
  C   C802      1.0  0.03264  0.63365  0.59675  1.0000
  H   H648      1.0  0.98408  0.57279  0.93476  1.0000
  H   H649      1.0  0.06249  0.55672  0.58767  1.0000
  Fe  Fe56      1.0  0.07047  0.72011  0.67929  1.0000
  C   C803      1.0  0.05759  0.51083  0.63971  1.0000
  C   C804      1.0  0.98812  0.66052  0.67770  1.0000
  H   H650      1.0  0.97361  0.63318  0.53779  1.0000
  Fe  Fe57      1.0  0.04890  0.72214  0.59624  1.0000
  C   C805      1.0  0.04034  0.63324  0.02136  1.0000
  C   C806      1.0  0.06223  0.63996  0.00211  1.0000
  H   H651      1.0  0.00530  0.66526  0.68656  1.0000
  H   H652      1.0  0.98969  0.63213  0.66070  1.0000
  C   C807      1.0  0.01456  0.65568  0.93998  1.0000
  C   C808      1.0  0.10257  0.70053  0.85174  1.0000
  C   C809      1.0  0.08862  0.71170  0.83722  1.0000
  C   C810      1.0  0.08646  0.71490  0.79432  1.0000
  C   C811      1.0  0.09816  0.70686  0.76628  1.0000
  C   C812      1.0  0.11200  0.69584  0.78124  1.0000
  C   C813      1.0  0.11400  0.69254  0.82351  1.0000
  H   H653      1.0  0.07976  0.71798  0.85881  1.0000
  H   H654      1.0  0.12125  0.68974  0.75992  1.0000
  H   H655      1.0  0.12470  0.68384  0.83434  1.0000
  C   C814      1.0  0.99015  0.69707  0.96596  1.0000
  H   H656      1.0  0.14836  0.64634  0.87409  1.0000
  C   C815      1.0  0.02715  0.56758  0.84086  1.0000
  C   C816      1.0  0.02227  0.69723  0.80523  1.0000
  C   C817      1.0  0.02953  0.71628  0.96972  1.0000
  C   C818      1.0  0.01246  0.70407  0.94874  1.0000
  H   H657      1.0  0.04679  0.72126  0.95636  1.0000
  H   H658      1.0  0.01645  0.70015  0.91871  1.0000
  C   C819      1.0  0.12078  0.63184  0.83844  1.0000
  C   C820      1.0  0.97154  0.69852  0.58911  1.0000
  C   C821      1.0  0.00520  0.63576  0.93274  1.0000
  H   H659      1.0  0.09035  0.61899  0.80851  1.0000
  C   C822      1.0  0.11648  0.64826  0.89873  1.0000
  H   H660      1.0  0.09287  0.63277  0.98838  1.0000
  H   H661      1.0  0.98854  0.62716  0.94657  1.0000
  C   C823      1.0  0.04098  0.62146  0.57333  1.0000
  H   H662      1.0  0.00663  0.63249  0.73782  1.0000
  H   H663      1.0  0.97876  0.61411  0.85634  1.0000
  C   C824      1.0  0.09320  0.64355  0.89425  1.0000
  H   H664      1.0  0.04319  0.60789  0.58806  1.0000
  H   H665      1.0  0.02069  0.55846  0.81640  1.0000
  H   H666      1.0  0.07664  0.66778  0.71883  1.0000
  C   C825      1.0  0.02344  0.63741  0.74888  1.0000
  H   H667      1.0  0.99908  0.68667  0.60098  1.0000
  C   C826      1.0  0.06673  0.65020  0.77774  1.0000
  C   C827      1.0  0.02724  0.63045  0.78851  1.0000
  P   P28       1.0  0.05363  0.62722  0.85407  1.0000
  C   C828      1.0  0.05116  0.55984  0.56560  1.0000
  C   C829      1.0  0.03853  0.63820  0.88838  1.0000
  C   C830      1.0  0.03416  0.57055  0.91269  1.0000
  S   S113      1.0  0.04707  0.73373  0.71075  1.0000
  H   H668      1.0  0.06911  0.65523  0.98819  1.0000
  H   H669      1.0  0.99966  0.73278  0.74038  1.0000
  C   C831      1.0  0.01717  0.62700  0.90714  1.0000
  C   C832      1.0  0.04906  0.63627  0.80274  1.0000
  C   C833      1.0  0.04659  0.62676  0.53110  1.0000
  C   C834      1.0  0.02626  0.55869  0.88110  1.0000
  H   H670      1.0  0.03980  0.70166  0.79370  1.0000
  H   H671      1.0  0.03858  0.65585  0.69265  1.0000
  C   C835      1.0  0.98205  0.67545  0.54808  1.0000
  C   C836      1.0  0.01056  0.71135  0.80546  1.0000
  H   H672      1.0  0.08346  0.65584  0.78860  1.0000
  C   C837      1.0  0.04134  0.65059  0.72353  1.0000
  H   H673      1.0  0.06312  0.66762  0.87834  1.0000
  H   H674      1.0  0.00515  0.57612  0.55939  1.0000
  H   H675      1.0  0.12382  0.65680  0.92348  1.0000
  H   H676      1.0  0.00944  0.61165  0.90137  1.0000
  C   C838      1.0  0.01142  0.67733  0.82009  1.0000
  C   C839      1.0  0.04265  0.59132  0.90410  1.0000
  H   H677      1.0  0.97399  0.70673  0.61589  1.0000
  C   C840      1.0  0.01890  0.57082  0.54940  1.0000
  C   C841      1.0  0.97448  0.67288  0.68200  1.0000
  C   C842      1.0  0.98553  0.68686  0.58126  1.0000
  H   H678      1.0  0.04863  0.60040  0.92884  1.0000
  C   C843      1.0  0.02418  0.72244  0.00720  1.0000
  C   C844      1.0  0.13029  0.64248  0.87077  1.0000
  H   H679      1.0  0.16945  0.71895  0.89438  1.0000
  C   C845      1.0  0.06696  0.60758  0.02016  1.0000
  S   S114      1.0  0.12328  0.70300  0.01050  1.0000
  C   C846      1.0  0.03562  0.66699  0.92080  1.0000
  H   H680      1.0  0.99107  0.72346  0.90008  1.0000
  H   H681      1.0  0.98834  0.63648  0.02332  1.0000
  C   C847      1.0  0.98468  0.70297  0.00373  1.0000
  H   H682      1.0  0.07338  0.51587  0.65432  1.0000
  H   H683      1.0  0.16819  0.73721  0.95535  1.0000
  H   H684      1.0  0.08300  0.64818  0.91642  1.0000
  C   C848      1.0  0.98748  0.70548  0.81876  1.0000
  H   H685      1.0  0.03614  0.59480  0.80072  1.0000
  C   C849      1.0  0.02131  0.51478  0.62403  1.0000
  H   H686      1.0  0.01320  0.62040  0.80797  1.0000
  C   C850      1.0  0.03576  0.58833  0.83212  1.0000
  C   C851      1.0  0.97914  0.64163  0.66366  1.0000
  C   C852      1.0  0.06289  0.65716  0.73816  1.0000
  C   C853      1.0  0.04725  0.65844  0.89420  1.0000
  H   H687      1.0  0.02065  0.66653  0.82046  1.0000
  S   S115      1.0  0.04645  0.71217  0.53210  1.0000
  H   H688      1.0  0.04537  0.53443  0.65895  1.0000
  C   C854      1.0  0.03022  0.65138  0.57807  1.0000
  H   H689      1.0  0.01934  0.54262  0.88771  1.0000
  C   C855      1.0  0.03601  0.65683  0.53595  1.0000
  C   C856      1.0  0.09751  0.62720  0.83380  1.0000
  C   C857      1.0  0.08359  0.63335  0.86122  1.0000
  S   S116      1.0  0.06913  0.69455  0.00665  1.0000
  C   C858      1.0  0.05283  0.49381  0.61863  1.0000
  S   S117      1.0  0.10448  0.73966  0.97554  1.0000
  S   S118      1.0  0.98085  0.54646  0.71777  1.0000
  C   C859      1.0  0.97770  0.57788  0.96173  1.0000
  H   H690      1.0  0.45410  0.49041  0.60230  1.0000
  H   H691      1.0  0.03058  0.64357  0.02174  1.0000
  H   H692      1.0  0.97624  0.64997  0.76408  1.0000
  C   C860      1.0  0.98877  0.67147  0.83504  1.0000
  H   H693      1.0  0.00913  0.52294  0.62646  1.0000
  C   C861      1.0  0.17539  0.73515  0.89115  1.0000
  S   S119      1.0  0.02455  0.73646  0.62206  1.0000
  H   H694      1.0  0.98046  0.65615  0.84778  1.0000
  H   H695      1.0  0.99311  0.66665  0.54204  1.0000
  C   C862      1.0  0.99249  0.58683  0.99059  1.0000
  C   C863      1.0  0.97677  0.68537  0.83402  1.0000
  H   H696      1.0  0.01961  0.72683  0.79555  1.0000
  Fe  Fe58      1.0  0.07556  0.72581  0.02342  1.0000
  C   C864      1.0  0.00170  0.71599  0.02405  1.0000
  C   C865      1.0  0.07564  0.62725  0.00200  1.0000
  H   H697      1.0  0.00017  0.49265  0.59037  1.0000
  H   H698      1.0  0.14195  0.73808  0.78327  1.0000
  C   C866      1.0  0.01651  0.49778  0.60291  1.0000
  C   C867      1.0  0.99665  0.73878  0.88660  1.0000
  C   C868      1.0  0.98547  0.73850  0.73758  1.0000
  H   H699      1.0  0.98556  0.73726  0.57026  1.0000
  P   P29       1.0  0.97261  0.72399  0.82043  1.0000
  H   H700      1.0  0.06783  0.49384  0.53855  1.0000
  C   C869      1.0  0.98424  0.59374  0.02514  1.0000
  Fe  Fe59      1.0  0.97332  0.57235  0.74422  1.0000
  H   H701      1.0  0.45527  0.50004  0.52804  1.0000
  H   H702      1.0  0.29379  0.96111  0.19054  1.0000
  P   P30       1.0  0.28333  0.91580  0.43103  1.0000
  C   C870      1.0  0.08032  0.76967  0.11883  1.0000
  H   H703      1.0  0.44041  0.97577  0.15637  1.0000
  H   H704      1.0  0.33846  0.93612  0.12698  1.0000
  C   C871      1.0  0.31658  0.97433  0.10813  1.0000
  S   S120      1.0  0.30132  0.88146  0.08759  1.0000
  S   S121      1.0  0.24142  0.88905  0.08165  1.0000
  Fe  Fe60      1.0  0.35844  0.94331  0.27476  1.0000
  S   S122      1.0  0.38641  0.96708  0.23746  1.0000
  S   S123      1.0  0.32489  0.92683  0.24912  1.0000
  Fe  Fe61      1.0  0.38093  0.95380  0.35630  1.0000
  C   C872      1.0  0.46343  0.96537  0.31889  1.0000
  S   S124      1.0  0.37717  0.94495  0.42548  1.0000
  C   C873      1.0  0.45345  0.98344  0.44438  1.0000
  H   H705      1.0  0.15229  0.95439  0.50724  1.0000
  Fe  Fe62      1.0  0.41001  0.95653  0.27790  1.0000
  S   S125      1.0  0.44236  0.95313  0.24921  1.0000
  S   S126      1.0  0.35507  0.96383  0.32201  1.0000
  S   S127      1.0  0.38207  0.93119  0.31215  1.0000
  Fe  Fe63      1.0  0.38490  0.98663  0.28737  1.0000
  H   H706      1.0  0.23617  0.90256  0.40709  1.0000
  H   H707      1.0  0.21194  0.82188  0.03140  1.0000
  H   H708      1.0  0.37508  0.94038  0.51387  1.0000
  C   C874      1.0  0.30128  0.90839  0.46742  1.0000
  C   C875      1.0  0.23354  0.91236  0.17871  1.0000
  H   H709      1.0  0.30208  0.94238  0.11331  1.0000
  C   C876      1.0  0.38276  0.96281  0.46165  1.0000
  C   C877      1.0  0.28423  0.98356  0.22180  1.0000
  C   C878      1.0  0.27847  0.89800  0.39353  1.0000
  H   H710      1.0  0.09361  0.76277  0.31442  1.0000
  C   C879      1.0  0.38054  0.95622  0.50393  1.0000
  P   P31       1.0  0.25708  0.97902  0.20039  1.0000
  C   C880      1.0  0.09719  0.74806  0.15904  1.0000
  C   C881      1.0  0.12807  0.76533  0.32747  1.0000
  C   C882      1.0  0.16669  0.77955  0.03811  1.0000
  C   C883      1.0  0.46614  0.96168  0.27801  1.0000
  C   C884      1.0  0.21688  0.97654  0.47845  1.0000
  H   H711      1.0  0.44667  0.96220  0.33361  1.0000
  C   C885      1.0  0.17813  0.82005  0.05288  1.0000
  H   H712      1.0  0.06652  0.77157  0.10125  1.0000
  H   H713      1.0  0.33126  0.96810  0.21863  1.0000
  H   H714      1.0  0.09968  0.76038  0.24042  1.0000
  C   C886      1.0  0.30773  0.89391  0.13284  1.0000
  C   C887      1.0  0.29273  0.90247  0.15134  1.0000
  C   C888      1.0  0.29832  0.91233  0.18691  1.0000
  C   C889      1.0  0.31913  0.91416  0.20419  1.0000
  C   C890      1.0  0.33419  0.90553  0.18596  1.0000
  C   C891      1.0  0.32842  0.89534  0.15063  1.0000
  H   H715      1.0  0.27679  0.90155  0.13828  1.0000
  H   H716      1.0  0.28661  0.91894  0.20073  1.0000
  H   H717      1.0  0.35016  0.90659  0.19918  1.0000
  H   H718      1.0  0.34012  0.88867  0.13685  1.0000
  H   H719      1.0  0.34169  0.98198  0.40521  1.0000
  C   C892      1.0  0.44073  0.96450  0.46255  1.0000
  H   H720      1.0  0.16985  0.76540  0.25683  1.0000
  H   H721      1.0  0.30079  0.97702  0.10099  1.0000
  C   C893      1.0  0.23255  0.92684  0.14744  1.0000
  C   C894      1.0  0.09946  0.78594  0.12219  1.0000
  H   H722      1.0  0.42604  0.95592  0.44799  1.0000
  H   H723      1.0  0.25119  0.84877  0.38631  1.0000
  C   C895      1.0  0.32343  0.90930  0.45442  1.0000
  C   C896      1.0  0.35751  0.96717  0.12433  1.0000
  Fe  Fe64      1.0  0.27098  0.88259  0.05093  1.0000
  C   C897      1.0  0.33780  0.95125  0.12267  1.0000
  C   C898      1.0  0.11376  0.76194  0.25970  1.0000
  C   C899      1.0  0.14991  0.78730  0.05243  1.0000
  H   H724      1.0  0.23488  0.98260  0.47025  1.0000
  C   C900      1.0  0.23617  0.92580  0.51013  1.0000
  H   H725      1.0  0.22696  0.92250  0.11768  1.0000
  C   C901      1.0  0.15313  0.76477  0.26910  1.0000
  C   C902      1.0  0.32012  0.97663  0.22672  1.0000
  C   C903      1.0  0.17834  0.97428  0.46454  1.0000
  H   H726      1.0  0.39183  0.98854  0.41674  1.0000
  C   C904      1.0  0.14952  0.76613  0.31112  1.0000
  S   S128      1.0  0.41060  0.97811  0.32474  1.0000
  C   C905      1.0  0.24130  0.91805  0.21665  1.0000
  C   C906      1.0  0.44659  0.95687  0.49995  1.0000
  C   C907      1.0  0.11681  0.76420  0.16141  1.0000
  C   C908      1.0  0.11759  0.78326  0.14362  1.0000
  P   P32       1.0  0.14008  0.76038  0.18912  1.0000
  C   C909      1.0  0.13524  0.76255  0.24312  1.0000
  H   H727      1.0  0.20008  0.91877  0.50583  1.0000
  H   H728      1.0  0.10046  0.80059  0.10757  1.0000
  H   H729      1.0  0.43623  0.94244  0.51453  1.0000
  C   C910      1.0  0.31731  0.96822  0.51099  1.0000
  H   H730      1.0  0.16631  0.97863  0.44573  1.0000
  C   C911      1.0  0.22527  0.97178  0.26810  1.0000
  H   H731      1.0  0.99048  0.74472  0.48588  1.0000
  H   H732      1.0  0.16340  0.76787  0.33102  1.0000
  C   C912      1.0  0.26515  0.87819  0.40537  1.0000
  C   C913      1.0  0.28874  0.90331  0.35333  1.0000
  C   C914      1.0  0.11021  0.76325  0.30176  1.0000
  C   C915      1.0  0.16630  0.77924  0.16992  1.0000
  C   C916      1.0  0.18189  0.77499  0.14264  1.0000
  C   C917      1.0  0.20189  0.78987  0.12778  1.0000
  C   C918      1.0  0.20633  0.80918  0.13932  1.0000
  C   C919      1.0  0.19097  0.81353  0.16647  1.0000
  C   C920      1.0  0.17116  0.79860  0.18209  1.0000
  H   H733      1.0  0.22511  0.95639  0.27064  1.0000
  C   C921      1.0  0.19464  0.81243  0.03693  1.0000
  C   C922      1.0  0.24810  0.93823  0.22332  1.0000
  H   H734      1.0  0.27576  0.89857  0.51889  1.0000
  H   H735      1.0  0.13231  0.79605  0.14524  1.0000
  H   H736      1.0  0.26522  0.97653  0.52638  1.0000
  C   C923      1.0  0.18534  0.95413  0.52410  1.0000
  H   H737      1.0  0.28147  0.97475  0.33992  1.0000
  C   C924      1.0  0.35707  0.98689  0.11644  1.0000
  C   C925      1.0  0.32521  0.97281  0.39781  1.0000
  H   H738      1.0  0.34826  0.94678  0.02973  1.0000
  H   H739      1.0  0.37302  0.96390  0.13076  1.0000
  H   H740      1.0  0.31322  0.95340  0.50115  1.0000
  H   H741      1.0  0.26881  0.85852  0.31485  1.0000
  H   H742      1.0  0.22868  0.89676  0.17322  1.0000
  C   C926      1.0  0.23839  0.98572  0.23639  1.0000
  H   H743      1.0  0.21359  0.78661  0.10603  1.0000
  H   H744      1.0  0.22139  0.82090  0.12640  1.0000
  H   H745      1.0  0.19422  0.82864  0.17457  1.0000
  H   H746      1.0  0.15937  0.80231  0.20284  1.0000
  C   C927      1.0  0.21607  0.90992  0.45426  1.0000
  C   C928      1.0  0.21249  0.97777  0.29773  1.0000
  C   C929      1.0  0.46537  0.96808  0.51898  1.0000
  H   H747      1.0  0.17868  0.76040  0.13200  1.0000
  H   H748      1.0  0.20034  0.90420  0.43977  1.0000
  H   H749      1.0  0.35503  0.90559  0.47236  1.0000
  H   H750      1.0  0.29978  0.91830  0.34363  1.0000
  S   S129      1.0  0.18512  0.84491  0.06558  1.0000
  C   C930      1.0  0.25658  0.92533  0.49147  1.0000
  H   H751      1.0  0.25486  0.94244  0.25240  1.0000
  C   C931      1.0  0.07911  0.75081  0.13764  1.0000
  C   C932      1.0  0.38990  0.98332  0.44916  1.0000
  H   H752      1.0  0.29303  0.89322  0.29411  1.0000
  H   H753      1.0  0.32743  0.94744  0.43572  1.0000
  C   C933      1.0  0.27144  0.86949  0.33684  1.0000
  H   H754      1.0  0.20278  0.96713  0.32279  1.0000
  H   H755      1.0  0.26639  0.93977  0.37115  1.0000
  C   C934      1.0  0.17035  0.96046  0.49953  1.0000
  C   C935      1.0  0.33772  0.90418  0.48248  1.0000
  H   H756      1.0  0.12532  0.76647  0.36002  1.0000
  C   C936      1.0  0.30840  0.98249  0.49210  1.0000
  C   C937      1.0  0.23927  0.94702  0.15400  1.0000
  C   C938      1.0  0.28506  0.88908  0.32509  1.0000
  C   C939      1.0  0.26153  0.86402  0.37702  1.0000
  C   C940      1.0  0.23642  0.90889  0.43606  1.0000
  H   H757      1.0  0.24264  0.90687  0.24054  1.0000
  C   C941      1.0  0.28292  0.94882  0.37859  1.0000
  H   H758      1.0  0.27210  0.93163  0.50618  1.0000
  H   H759      1.0  0.25760  0.87373  0.43660  1.0000
  C   C942      1.0  0.29565  0.94084  0.40594  1.0000
  C   C943      1.0  0.24686  0.95289  0.19223  1.0000
  H   H760      1.0  0.23893  0.95786  0.12867  1.0000
  C   C944      1.0  0.29315  0.90082  0.50825  1.0000
  C   C945      1.0  0.29133  0.96864  0.36097  1.0000
  C   C946      1.0  0.31732  0.95478  0.11483  1.0000
  C   C947      1.0  0.21592  0.91825  0.49140  1.0000
  C   C948      1.0  0.29882  0.97270  0.21095  1.0000
  C   C949      1.0  0.20870  0.96231  0.51354  1.0000
  C   C950      1.0  0.31701  0.95295  0.41503  1.0000
  C   C951      1.0  0.25679  0.91625  0.45501  1.0000
  H   H761      1.0  0.32990  0.91441  0.42273  1.0000
  H   H762      1.0  0.14281  0.81341  0.07187  1.0000
  S   S130      1.0  0.16096  0.75391  0.03268  1.0000
  S   S131      1.0  0.24460  0.94246  0.03259  1.0000
  C   C952      1.0  0.31242  0.98065  0.37076  1.0000
  H   H763      1.0  0.29759  0.97890  0.46684  1.0000
  C   C953      1.0  0.15569  0.80749  0.06009  1.0000
  C   C954      1.0  0.20158  0.98249  0.45359  1.0000
  Fe  Fe65      1.0  0.21968  0.86656  0.04365  1.0000
  H   H764      1.0  0.41150  0.98102  0.11056  1.0000
  H   H765      1.0  0.22386  0.98864  0.14870  1.0000
  H   H766      1.0  0.13267  0.77763  0.05865  1.0000
  H   H767      1.0  0.34224  0.91063  0.04680  1.0000
  C   C955      1.0  0.18898  0.79222  0.02993  1.0000
  C   C956      1.0  0.43236  0.98709  0.16151  1.0000
  C   C957      1.0  0.32988  0.89776  0.52356  1.0000
  H   H768      1.0  0.44853  0.98946  0.41580  1.0000
  H   H769      1.0  0.36560  0.98914  0.03578  1.0000
  C   C958      1.0  0.41566  0.98986  0.13619  1.0000
  H   H770      1.0  0.46938  0.96210  0.54833  1.0000
  C   C959      1.0  0.98379  0.74934  0.70056  1.0000
  C   C960      1.0  0.98956  0.74368  0.84811  1.0000
  H   H771      1.0  0.98436  0.79648  0.58465  1.0000
  C   C961      1.0  0.98735  0.76729  0.57834  1.0000
  C   C962      1.0  0.97528  0.78081  0.58349  1.0000
  H   H772      1.0  0.99229  0.76805  0.80063  1.0000
  C   C963      1.0  0.99711  0.76370  0.83059  1.0000
  H   H773      1.0  0.25451  0.98475  0.02243  1.0000
  S   S132      1.0  0.07922  0.74244  0.62279  1.0000
  C   C964      1.0  0.97578  0.74713  0.57609  1.0000
  C   C965      1.0  0.30752  0.89589  0.53632  1.0000
  Fe  Fe66      1.0  0.24558  0.91125  0.02622  1.0000
  H   H774      1.0  0.99668  0.75189  0.67559  1.0000
  H   H775      1.0  0.43432  0.98245  0.81816  1.0000
  C   C966      1.0  0.40540  0.98452  0.85437  1.0000
  C   C967      1.0  0.29132  0.95767  0.01987  1.0000
  H   H776      1.0  0.23605  0.93177  0.53953  1.0000
  H   H777      1.0  0.22030  0.95764  0.53255  1.0000
  C   C968      1.0  0.18399  0.74579  0.85283  1.0000
  C   C969      1.0  0.26124  0.97823  0.55811  1.0000
  C   C970      1.0  0.33189  0.97316  0.54240  1.0000
  H   H778      1.0  0.24485  0.98243  0.67181  1.0000
  H   H779      1.0  0.02113  0.74082  0.52936  1.0000
  C   C971      1.0  0.01090  0.75350  0.90763  1.0000
  C   C972      1.0  0.18198  0.98761  0.79624  1.0000
  H   H780      1.0  0.08293  0.83087  0.64938  1.0000
  C   C973      1.0  0.27057  0.96167  0.02306  1.0000
  H   H781      1.0  0.34108  0.89415  0.54542  1.0000
  H   H782      1.0  0.01612  0.74949  0.93757  1.0000
  C   C974      1.0  0.24952  0.98160  0.63989  1.0000
  H   H783      1.0  0.33936  0.96234  0.55621  1.0000
  C   C975      1.0  0.07855  0.79680  0.79412  1.0000
  C   C976      1.0  0.17448  0.74543  0.92543  1.0000
  C   C977      1.0  0.27041  0.98148  0.01935  1.0000
  H   H784      1.0  0.13709  0.74400  0.85631  1.0000
  C   C978      1.0  0.15715  0.98998  0.65632  1.0000
  C   C979      1.0  0.10622  0.79307  0.65951  1.0000
  C   C980      1.0  0.06422  0.77834  0.78497  1.0000
  C   C981      1.0  0.31169  0.97347  0.01227  1.0000
  H   H785      1.0  0.12372  0.85106  0.64562  1.0000
  C   C982      1.0  0.38548  0.97000  0.53349  1.0000
  H   H786      1.0  0.19957  0.92425  0.00495  1.0000
  C   C983      1.0  0.09236  0.79460  0.87677  1.0000
  H   H787      1.0  0.29184  0.94254  0.02444  1.0000
  H   H788      1.0  0.20537  0.97951  0.94402  1.0000
  C   C984      1.0  0.05406  0.81345  0.76013  1.0000
  H   H789      1.0  0.02980  0.78464  0.90598  1.0000
  C   C985      1.0  0.01850  0.77330  0.88992  1.0000
  C   C986      1.0  0.01157  0.77840  0.85144  1.0000
  C   C987      1.0  0.11735  0.77501  0.77002  1.0000
  H   H790      1.0  0.01764  0.79373  0.83752  1.0000
  C   C988      1.0  0.07523  0.78897  0.95930  1.0000
  H   H791      1.0  0.37402  0.98248  0.88729  1.0000
  C   C989      1.0  0.08642  0.80822  0.94053  1.0000
  C   C990      1.0  0.34308  0.91676  0.01493  1.0000
  H   H792      1.0  0.20204  0.78628  0.01896  1.0000
  H   H793      1.0  0.10290  0.82613  0.88500  1.0000
  C   C991      1.0  0.12239  0.76759  0.84223  1.0000
  C   C992      1.0  0.23242  0.98792  0.89535  1.0000
  H   H794      1.0  0.08339  0.82862  0.79044  1.0000
  C   C993      1.0  0.19518  0.98472  0.82855  1.0000
  H   H795      1.0  0.16968  0.97821  0.73828  1.0000
  H   H796      1.0  0.32764  0.97037  0.01060  1.0000
  H   H797      1.0  0.10158  0.77697  0.66353  1.0000
  H   H798      1.0  0.05042  0.82708  0.74965  1.0000
  C   C994      1.0  0.07199  0.77263  0.93659  1.0000
  C   C995      1.0  0.12543  0.82076  0.80796  1.0000
  H   H799      1.0  0.06790  0.76459  0.79422  1.0000
  H   H800      1.0  0.11171  0.78339  0.74558  1.0000
  C   C996      1.0  0.13479  0.74964  0.79102  1.0000
  H   H801      1.0  0.13044  0.80115  0.96730  1.0000
  C   C997      1.0  0.04519  0.77756  0.76286  1.0000
  H   H802      1.0  0.16314  0.90315  0.98293  1.0000
  H   H803      1.0  0.33816  0.88843  0.99132  1.0000
  H   H804      1.0  0.00575  0.77246  0.57538  1.0000
  H   H805      1.0  0.02616  0.79450  0.73115  1.0000
  H   H806      1.0  0.07736  0.76253  0.87822  1.0000
  C   C998      1.0  0.04029  0.79511  0.74996  1.0000
  C   C999      1.0  0.08028  0.77541  0.89540  1.0000
  H   H807      1.0  0.03455  0.76344  0.75466  1.0000
  Fe  Fe67      1.0  0.40994  0.98793  0.70474  1.0000
  S   S133      1.0  0.19964  0.89170  0.58603  1.0000
  H   H808      1.0  0.29019  0.97720  0.93034  1.0000
  H   H809      1.0  0.06887  0.78661  0.99136  1.0000
  C   C1000     1.0  0.07292  0.81428  0.78273  1.0000
  C   C1001     1.0  0.12843  0.82924  0.76676  1.0000
  H   H810      1.0  0.30032  0.88790  0.76799  1.0000
  Fe  Fe68      1.0  0.22837  0.90253  0.62609  1.0000
  H   H811      1.0  0.14635  0.83601  0.98450  1.0000
  H   H812      1.0  0.12104  0.77024  0.87417  1.0000
  C   C1002     1.0  0.13566  0.82539  0.65182  1.0000
  P   P33       1.0  0.10282  0.79788  0.82342  1.0000
  C   C1003     1.0  0.09475  0.81108  0.89925  1.0000
  C   C1004     1.0  0.13209  0.75300  0.83214  1.0000
  H   H813      1.0  0.08865  0.82094  0.95800  1.0000
  C   C1005     1.0  0.14133  0.82930  0.83577  1.0000
  C   C1006     1.0  0.41735  0.97462  0.83167  1.0000
  H   H814      1.0  0.34380  0.97438  0.81595  1.0000
  C   C1007     1.0  0.15133  0.96915  0.66003  1.0000
  C   C1008     1.0  0.12733  0.76057  0.76000  1.0000
  C   C1009     1.0  0.33246  0.97501  0.84152  1.0000
  C   C1010     1.0  0.11466  0.77851  0.81125  1.0000
  C   C1011     1.0  0.15920  0.80259  0.92663  1.0000
  H   H815      1.0  0.25612  0.91410  0.68714  1.0000
  C   C1012     1.0  0.30869  0.89809  0.78947  1.0000
  C   C1013     1.0  0.20537  0.89985  0.84437  1.0000
  C   C1014     1.0  0.14634  0.84654  0.75420  1.0000
  C   C1015     1.0  0.14673  0.81047  0.95323  1.0000
  C   C1016     1.0  0.19029  0.97152  0.64128  1.0000
  H   H816      1.0  0.14014  0.82247  0.86700  1.0000
  H   H817      1.0  0.17741  0.93596  0.86300  1.0000
  H   H818      1.0  0.14868  0.85295  0.72232  1.0000
  C   C1017     1.0  0.32838  0.96107  0.87657  1.0000
  H   H819      1.0  0.06307  0.75775  0.95103  1.0000
  P   P34       1.0  0.19785  0.80415  0.87729  1.0000
  H   H820      1.0  0.15193  0.78740  0.91958  1.0000
  H   H821      1.0  0.15217  0.90922  0.91178  1.0000
  H   H822      1.0  0.12883  0.75753  0.72821  1.0000
  C   C1018     1.0  0.16167  0.85527  0.78236  1.0000
  Fe  Fe69      1.0  0.19800  0.90496  0.69894  1.0000
  C   C1019     1.0  0.34674  0.94492  0.96424  1.0000
  C   C1020     1.0  0.32554  0.91579  0.77500  1.0000
  C   C1021     1.0  0.26811  0.96731  0.58989  1.0000
  C   C1022     1.0  0.15560  0.83011  0.96275  1.0000
  H   H823      1.0  0.16657  0.79116  0.81285  1.0000
  C   C1023     1.0  0.34342  0.93230  0.93262  1.0000
  H   H824      1.0  0.13392  0.96007  0.66778  1.0000
  C   C1024     1.0  0.30880  0.94675  0.69186  1.0000
  C   C1025     1.0  0.21103  0.84108  0.76926  1.0000
  H   H825      1.0  0.31114  0.93398  0.59401  1.0000
  H   H826      1.0  0.41650  0.94708  0.80745  1.0000
  C   C1026     1.0  0.31771  0.94644  0.65199  1.0000
  C   C1027     1.0  0.20325  0.94562  0.90609  1.0000
  C   C1028     1.0  0.18936  0.83414  0.91879  1.0000
  Fe  Fe70      1.0  0.35955  0.98046  0.70042  1.0000
  H   H827      1.0  0.30799  0.95035  0.93436  1.0000
  C   C1029     1.0  0.38314  0.97461  0.87001  1.0000
  C   C1030     1.0  0.22920  0.89420  0.78964  1.0000
  H   H828      1.0  0.28902  0.88018  0.84267  1.0000
  C   C1031     1.0  0.40725  0.95463  0.82554  1.0000
  C   C1032     1.0  0.19471  0.92694  0.97398  1.0000
  H   H829      1.0  0.25536  0.88185  0.80901  1.0000
  C   C1033     1.0  0.16793  0.95995  0.65281  1.0000
  C   C1034     1.0  0.21780  0.89280  0.87396  1.0000
  H   H830      1.0  0.37744  0.92920  0.83599  1.0000
  C   C1035     1.0  0.21111  0.90079  0.80213  1.0000
  C   C1036     1.0  0.17681  0.84198  0.94525  1.0000
  H   H831      1.0  0.20253  0.96398  0.63399  1.0000
  H   H832      1.0  0.20592  0.84353  0.90590  1.0000
  H   H833      1.0  0.28479  0.96772  0.76963  1.0000
  H   H834      1.0  0.22440  0.84161  0.82881  1.0000
  C   C1037     1.0  0.28671  0.93479  0.70460  1.0000
  C   C1038     1.0  0.25813  0.96716  0.81462  1.0000
  C   C1039     1.0  0.31225  0.90741  0.85910  1.0000
  H   H835      1.0  0.26770  0.96063  0.65541  1.0000
  C   C1040     1.0  0.27549  0.96059  0.79851  1.0000
  H   H836      1.0  0.29399  0.93937  0.80639  1.0000
  P   P35       1.0  0.34323  0.94262  0.87999  1.0000
  C   C1041     1.0  0.19460  0.83078  0.74442  1.0000
  C   C1042     1.0  0.30214  0.97666  0.90567  1.0000
  H   H837      1.0  0.19396  0.83690  0.71305  1.0000
  C   C1043     1.0  0.23606  0.88639  0.86157  1.0000
  C   C1044     1.0  0.17930  0.80489  0.80084  1.0000
  H   H838      1.0  0.28064  0.81968  0.85039  1.0000
  H   H839      1.0  0.30123  0.89073  0.56808  1.0000
  C   C1045     1.0  0.18087  0.81423  0.91004  1.0000
  C   C1046     1.0  0.31250  0.96157  0.90804  1.0000
  H   H840      1.0  0.22539  0.95082  0.95622  1.0000
  H   H841      1.0  0.25400  0.97928  0.79749  1.0000
  C   C1047     1.0  0.32988  0.92485  0.84503  1.0000
  H   H842      1.0  0.16335  0.94379  0.65456  1.0000
  H   H843      1.0  0.19032  0.95308  0.73610  1.0000
  C   C1048     1.0  0.18240  0.93382  0.89399  1.0000
  S   S134      1.0  0.43619  0.97386  0.72647  1.0000
  H   H844      1.0  0.24101  0.80906  0.83124  1.0000
  H   H845      1.0  0.34921  0.96073  0.95726  1.0000
  H   H846      1.0  0.17161  0.85319  0.84444  1.0000
  C   C1049     1.0  0.18167  0.76631  0.92133  1.0000
  H   H847      1.0  0.21838  0.81421  0.95517  1.0000
  P   P36       1.0  0.22216  0.96529  0.87063  1.0000
  H   H848      1.0  0.27289  0.92284  0.87254  1.0000
  H   H849      1.0  0.18384  0.85712  0.95308  1.0000
  C   C1050     1.0  0.37251  0.95484  0.86225  1.0000
  C   C1051     1.0  0.38502  0.94465  0.84129  1.0000
  H   H850      1.0  0.22304  0.85529  0.75714  1.0000
  H   H851      1.0  0.24241  0.93411  0.90133  1.0000
  C   C1052     1.0  0.26243  0.96916  0.63077  1.0000
  H   H852      1.0  0.34001  0.90212  0.91862  1.0000
  H   H853      1.0  0.27769  0.95730  0.58286  1.0000
  C   C1053     1.0  0.19189  0.96221  0.76152  1.0000
  H   H854      1.0  0.34873  0.94297  0.79037  1.0000
  C   C1054     1.0  0.15926  0.84662  0.82307  1.0000
  S   S135      1.0  0.24894  0.85815  0.01672  1.0000
  C   C1055     1.0  0.33610  0.92911  0.80258  1.0000
  C   C1056     1.0  0.23177  0.81544  0.93192  1.0000
  H   H855      1.0  0.14202  0.79697  0.65932  1.0000
  H   H856      1.0  0.16538  0.80529  0.74130  1.0000
  C   C1057     1.0  0.34073  0.90424  0.98354  1.0000
  H   H857      1.0  0.33478  0.95561  0.64201  1.0000
  H   H858      1.0  0.25797  0.82455  0.97381  1.0000
  S   S136      1.0  0.22031  0.88978  0.99180  1.0000
  H   H859      1.0  0.38382  0.96476  0.56592  1.0000
  C   C1058     1.0  0.18914  0.77713  0.88254  1.0000
  C   C1059     1.0  0.17415  0.91510  0.96159  1.0000
  C   C1060     1.0  0.34132  0.91201  0.94244  1.0000
  C   C1061     1.0  0.25154  0.94187  0.87285  1.0000
  C   C1062     1.0  0.30222  0.89384  0.83151  1.0000
  H   H860      1.0  0.28924  0.82766  0.92158  1.0000
  C   C1063     1.0  0.30438  0.93427  0.62486  1.0000
  H   H861      1.0  0.19112  0.90445  0.85420  1.0000
  C   C1064     1.0  0.16799  0.91854  0.92161  1.0000
  H   H862      1.0  0.11722  0.82238  0.74397  1.0000
  Fe  Fe71      1.0  0.25013  0.88227  0.96574  1.0000
  S   S137      1.0  0.38494  0.97132  0.66238  1.0000
  H   H863      1.0  0.17581  0.86838  0.77220  1.0000
  C   C1065     1.0  0.27330  0.92300  0.67726  1.0000
  C   C1066     1.0  0.20697  0.97062  0.82733  1.0000
  C   C1067     1.0  0.26889  0.93533  0.85655  1.0000
  Fe  Fe72      1.0  0.18121  0.87226  0.64286  1.0000
  C   C1068     1.0  0.24586  0.95776  0.85184  1.0000
  S   S138      1.0  0.16660  0.89550  0.66396  1.0000
  H   H864      1.0  0.33011  0.91945  0.74223  1.0000
  S   S139      1.0  0.21156  0.88084  0.68054  1.0000
  C   C1069     1.0  0.17854  0.81284  0.76037  1.0000
  H   H865      1.0  0.21357  0.94801  0.79269  1.0000
  Fe  Fe73      1.0  0.18768  0.91598  0.60976  1.0000
  H   H866      1.0  0.19790  0.77463  0.81875  1.0000
  S   S140      1.0  0.25249  0.87770  0.89782  1.0000
  C   C1070     1.0  0.25423  0.82122  0.94267  1.0000
  C   C1071     1.0  0.34638  0.93714  0.00525  1.0000
  S   S141      1.0  0.17351  0.93630  0.56763  1.0000
  S   S142      1.0  0.16492  0.83868  0.64704  1.0000
  C   C1072     1.0  0.27185  0.82292  0.91324  1.0000
  S   S143      1.0  0.19535  0.91036  0.76611  1.0000
  H   H867      1.0  0.30587  0.90432  0.89111  1.0000
  C   C1073     1.0  0.21181  0.83319  0.80977  1.0000
  C   C1074     1.0  0.28075  0.94460  0.81931  1.0000
  S   S144      1.0  0.32475  0.96212  0.72619  1.0000
  C   C1075     1.0  0.26699  0.81847  0.87315  1.0000
  C   C1076     1.0  0.19102  0.76670  0.84857  1.0000
  H   H868      1.0  0.18128  0.77396  0.94852  1.0000
  C   C1077     1.0  0.20930  0.94202  0.94630  1.0000
  C   C1078     1.0  0.20514  0.95935  0.79367  1.0000
  S   S145      1.0  0.26461  0.90939  0.60215  1.0000
  C   C1079     1.0  0.24147  0.88689  0.81921  1.0000
  C   C1080     1.0  0.24452  0.81257  0.86235  1.0000
  H   H869      1.0  0.21318  0.89235  0.90625  1.0000
  C   C1081     1.0  0.18023  0.97627  0.76289  1.0000
  C   C1082     1.0  0.22679  0.81145  0.89144  1.0000
  S   S146      1.0  0.27576  0.90558  0.99617  1.0000
  C   C1083     1.0  0.28204  0.92285  0.63728  1.0000
  H   H870      1.0  0.23396  0.89497  0.75723  1.0000
  C   C1084     1.0  0.19650  0.81460  0.82529  1.0000
  H   H871      1.0  0.27977  0.93474  0.73543  1.0000
  S   S147      1.0  0.21735  0.92771  0.64734  1.0000
  Fe  Fe74      1.0  0.05424  0.75506  0.65299  1.0000
  S   S148      1.0  0.06057  0.78822  0.65581  1.0000
  C   C1085     1.0  0.08944  0.80248  0.65598  1.0000
  C   C1086     1.0  0.09581  0.82346  0.65192  1.0000
  C   C1087     1.0  0.11889  0.83492  0.64978  1.0000
  C   C1088     1.0  0.12918  0.80445  0.65738  1.0000
  C   C1089     1.0  0.32187  0.98990  0.83906  1.0000
  Fe  Fe75      1.0  0.71287  0.06463  0.05237  1.0000
  H   H872      1.0  0.84828  0.10818  0.29421  1.0000
  S   S149      1.0  0.71039  0.06918  0.12007  1.0000
  Fe  Fe76      1.0  0.76339  0.04331  0.31651  1.0000
  S   S150      1.0  0.77316  0.07629  0.31838  1.0000
  S   S151      1.0  0.76199  0.03138  0.25408  1.0000
  Fe  Fe77      1.0  0.75354  0.03454  0.41112  1.0000
  S   S152      1.0  0.76224  0.06734  0.41921  1.0000
  H   H873      1.0  0.81287  0.05060  0.25815  1.0000
  Fe  Fe78      1.0  0.74295  0.06941  0.36332  1.0000
  S   S153      1.0  0.71824  0.08668  0.35404  1.0000
  Fe  Fe79      1.0  0.79178  0.07133  0.37393  1.0000
  S   S154      1.0  0.82799  0.08984  0.38204  1.0000
  S   S155      1.0  0.73206  0.03669  0.35827  1.0000
  S   S156      1.0  0.78452  0.03831  0.36879  1.0000
  Fe  Fe80      1.0  0.92384  0.21939  0.32629  1.0000
  H   H874      1.0  0.56171  0.06541  0.47842  1.0000
  S   S157      1.0  0.92810  0.21701  0.25784  1.0000
  Fe  Fe81      1.0  0.94425  0.21566  0.41008  1.0000
  H   H875      1.0  0.94565  0.21192  0.07856  1.0000
  Fe  Fe82      1.0  0.89291  0.20163  0.40301  1.0000
  S   S158      1.0  0.85818  0.18002  0.42508  1.0000
  C   C1090     1.0  0.78735  0.16240  0.31060  1.0000
  S   S159      1.0  0.92144  0.19323  0.37305  1.0000
  C   C1091     1.0  0.68437  0.05143  0.34791  1.0000
  H   H876      1.0  0.67561  0.08749  0.40242  1.0000
  S   S160      1.0  0.87353  0.21396  0.04980  1.0000
  C   C1092     1.0  0.55549  0.00748  0.19432  1.0000
  H   H877      1.0  0.83899  0.17938  0.10283  1.0000
  S   S161      1.0  0.63290  0.03341  0.27338  1.0000
  H   H878      1.0  0.64519  0.99489  0.07598  1.0000
  H   H879      1.0  0.85778  0.17269  0.32526  1.0000
  C   C1093     1.0  0.69393  0.07168  0.33337  1.0000
  C   C1094     1.0  0.68385  0.08015  0.30220  1.0000
  C   C1095     1.0  0.66494  0.06827  0.28448  1.0000
  H   H880      1.0  0.69092  0.09583  0.29128  1.0000
  H   H881      1.0  0.65723  0.07488  0.26038  1.0000
  C   C1096     1.0  0.83588  0.11485  0.39434  1.0000
  C   C1097     1.0  0.82013  0.12319  0.41097  1.0000
  C   C1098     1.0  0.82714  0.14319  0.42010  1.0000
  C   C1099     1.0  0.84995  0.15495  0.41306  1.0000
  C   C1100     1.0  0.86569  0.14649  0.39699  1.0000
  C   C1101     1.0  0.85868  0.12656  0.38766  1.0000
  H   H882      1.0  0.80255  0.11427  0.41666  1.0000
  H   H883      1.0  0.81485  0.14958  0.43265  1.0000
  H   H884      1.0  0.88334  0.15522  0.39233  1.0000
  H   H885      1.0  0.87104  0.12017  0.37531  1.0000
  H   H886      1.0  0.83586  0.07133  0.30776  1.0000
  H   H887      1.0  0.92597  0.21634  0.17016  1.0000
  H   H888      1.0  0.97042  0.16161  0.12185  1.0000
  C   C1102     1.0  0.72398  0.05774  0.15714  1.0000
  C   C1103     1.0  0.73363  0.04296  0.14782  1.0000
  C   C1104     1.0  0.74505  0.03480  0.17777  1.0000
  C   C1105     1.0  0.74710  0.04148  0.21711  1.0000
  C   C1106     1.0  0.73708  0.05600  0.22652  1.0000
  C   C1107     1.0  0.72524  0.06376  0.19697  1.0000
  H   H889      1.0  0.73229  0.03783  0.11755  1.0000
  H   H890      1.0  0.75250  0.02341  0.17030  1.0000
  H   H891      1.0  0.73811  0.06107  0.25685  1.0000
  H   H892      1.0  0.71712  0.07458  0.20508  1.0000
  H   H893      1.0  0.54083  0.99496  0.19017  1.0000
  C   C1108     1.0  0.55699  0.04442  0.43314  1.0000
  H   H894      1.0  0.67369  0.01720  0.49108  1.0000
  C   C1109     1.0  0.78461  0.14453  0.02795  1.0000
  C   C1110     1.0  0.83903  0.23537  0.34225  1.0000
  H   H895      1.0  0.83231  0.22525  0.24346  1.0000
  H   H896      1.0  0.86028  0.12023  0.15729  1.0000
  H   H897      1.0  0.84483  0.21138  0.19144  1.0000
  C   C1111     1.0  0.74167  0.17100  0.07978  1.0000
  H   H898      1.0  0.60853  0.05112  0.21265  1.0000
  C   C1112     1.0  0.80809  0.16088  0.29482  1.0000
  C   C1113     1.0  0.86602  0.17825  0.22056  1.0000
  H   H899      1.0  0.87944  0.18106  0.10359  1.0000
  C   C1114     1.0  0.65584  0.04791  0.29802  1.0000
  H   H900      1.0  0.69128  0.04503  0.37350  1.0000
  S   S162      1.0  0.73452  0.01216  0.46509  1.0000
  C   C1115     1.0  0.83744  0.23840  0.29981  1.0000
  C   C1116     1.0  0.65812  0.02145  0.14265  1.0000
  S   S163      1.0  0.89451  0.22692  0.35482  1.0000
  H   H901      1.0  0.81440  0.02046  0.46825  1.0000
  H   H902      1.0  0.51933  0.99779  0.44407  1.0000
  C   C1117     1.0  0.67930  0.00332  0.26657  1.0000
  H   H903      1.0  0.69017  0.08206  0.46976  1.0000
  C   C1118     1.0  0.86638  0.16743  0.11543  1.0000
  H   H904      1.0  0.85876  0.18185  0.19266  1.0000
  H   H905      1.0  0.48141  0.00961  0.44934  1.0000
  H   H906      1.0  0.77840  0.07079  0.14942  1.0000
  H   H907      1.0  0.54070  0.01435  0.24984  1.0000
  C   C1119     1.0  0.71839  0.05040  0.52346  1.0000
  C   C1120     1.0  0.66990  0.00782  0.15256  1.0000
  C   C1121     1.0  0.58780  0.03571  0.03119  1.0000
  C   C1122     1.0  0.72229  0.13668  0.06937  1.0000
  H   H908      1.0  0.73365  0.11156  0.14201  1.0000
  H   H909      1.0  0.72486  0.11496  0.21529  1.0000
  C   C1123     1.0  0.81675  0.18548  0.21481  1.0000
  H   H910      1.0  0.78716  0.15913  0.22567  1.0000
  H   H911      1.0  0.75381  0.11612  0.26574  1.0000
  C   C1124     1.0  0.79964  0.19061  0.13755  1.0000
  C   C1125     1.0  0.52815  0.01259  0.45184  1.0000
  H   H912      1.0  0.79328  0.19255  0.10757  1.0000
  C   C1126     1.0  0.94374  0.19875  0.06275  1.0000
  H   H913      1.0  0.77251  0.16381  0.15823  1.0000
  C   C1127     1.0  0.64261  0.04167  0.47863  1.0000
  H   H914      1.0  0.83187  0.11693  0.07752  1.0000
  H   H915      1.0  0.67304  0.01418  0.24925  1.0000
  H   H916      1.0  0.73268  0.14661  0.12801  1.0000
  C   C1128     1.0  0.85547  0.13324  0.14651  1.0000
  C   C1129     1.0  0.85518  0.17769  0.25941  1.0000
  H   H917      1.0  0.80908  0.14844  0.12951  1.0000
  H   H918      1.0  0.76486  0.11548  0.35985  1.0000
  H   H919      1.0  0.96998  0.23950  0.21725  1.0000
  C   C1130     1.0  0.70023  0.00946  0.28352  1.0000
  S   S164      1.0  0.59072  0.00529  0.36516  1.0000
  S   S165      1.0  0.91543  0.22196  0.44385  1.0000
  C   C1131     1.0  0.77173  0.14602  0.33373  1.0000
  H   H920      1.0  0.88997  0.15128  0.12974  1.0000
  C   C1132     1.0  0.66532  0.03953  0.33027  1.0000
  H   H921      1.0  0.65816  0.02387  0.34133  1.0000
  C   C1133     1.0  0.82863  0.20128  0.18533  1.0000
  C   C1134     1.0  0.74114  0.17674  0.03786  1.0000
  C   C1135     1.0  0.55537  0.01841  0.22792  1.0000
  C   C1136     1.0  0.57450  0.03419  0.23408  1.0000
  C   C1137     1.0  0.59371  0.03918  0.20659  1.0000
  C   C1138     1.0  0.59397  0.02838  0.17267  1.0000
  C   C1139     1.0  0.57474  0.01236  0.16690  1.0000
  P   P37       1.0  0.61936  0.03380  0.13882  1.0000
  C   C1140     1.0  0.63756  0.05901  0.14170  1.0000
  C   C1141     1.0  0.66276  0.05496  0.48995  1.0000
  C   C1142     1.0  0.81306  0.07580  0.21573  1.0000
  H   H922      1.0  0.77233  0.05125  0.08978  1.0000
  C   C1143     1.0  0.88689  0.17454  0.21734  1.0000
  C   C1144     1.0  0.84359  0.16656  0.11555  1.0000
  C   C1145     1.0  0.81891  0.06673  0.25157  1.0000
  C   C1146     1.0  0.63682  0.07473  0.11274  1.0000
  C   C1147     1.0  0.65189  0.09393  0.11359  1.0000
  C   C1148     1.0  0.66777  0.09761  0.14336  1.0000
  C   C1149     1.0  0.66844  0.08214  0.17252  1.0000
  C   C1150     1.0  0.65333  0.06297  0.17192  1.0000
  C   C1151     1.0  0.61213  0.03201  0.08593  1.0000
  C   C1152     1.0  0.59222  0.03550  0.07288  1.0000
  H   H923      1.0  0.90361  0.22913  0.11944  1.0000
  C   C1153     1.0  0.74183  0.05932  0.51894  1.0000
  C   C1154     1.0  0.95854  0.17384  0.03623  1.0000
  C   C1155     1.0  0.80858  0.04827  0.47817  1.0000
  H   H924      1.0  0.54902  0.02032  0.39487  1.0000
  H   H925      1.0  0.66738  0.03597  0.12686  1.0000
  H   H926      1.0  0.61931  0.03423  0.43111  1.0000
  C   C1156     1.0  0.86558  0.17319  0.29484  1.0000
  C   C1157     1.0  0.83177  0.07839  0.27956  1.0000
  H   H927      1.0  0.62495  0.07218  0.08897  1.0000
  H   H928      1.0  0.65153  0.10586  0.09067  1.0000
  H   H929      1.0  0.67977  0.11234  0.14354  1.0000
  H   H930      1.0  0.68113  0.08477  0.19495  1.0000
  H   H931      1.0  0.65446  0.05113  0.19439  1.0000
  H   H932      1.0  0.58050  0.03872  0.09458  1.0000
  C   C1158     1.0  0.91123  0.22566  0.22261  1.0000
  H   H933      1.0  0.64337  0.02720  0.06563  1.0000
  C   C1159     1.0  0.58411  0.01356  0.50700  1.0000
  Fe  Fe83      1.0  0.61159  0.00472  0.30838  1.0000
  H   H934      1.0  0.57028  0.05413  0.41156  1.0000
  H   H935      1.0  0.79135  0.11432  0.24345  1.0000
  C   C1160     1.0  0.88608  0.16889  0.29139  1.0000
  C   C1161     1.0  0.89681  0.16968  0.25270  1.0000
  H   H936      1.0  0.83810  0.12447  0.23121  1.0000
  H   H937      1.0  0.77134  0.11072  0.11849  1.0000
  H   H938      1.0  0.80265  0.06627  0.19545  1.0000
  C   C1162     1.0  0.87231  0.15071  0.13053  1.0000
  H   H939      1.0  0.89395  0.16541  0.31879  1.0000
  H   H940      1.0  0.91323  0.16731  0.25026  1.0000
  H   H941      1.0  0.89577  0.17608  0.18752  1.0000
  H   H942      1.0  0.75569  0.14714  0.34581  1.0000
  H   H943      1.0  0.78328  0.17624  0.30493  1.0000
  H   H944      1.0  0.68800  0.01200  0.14484  1.0000
  C   C1163     1.0  0.63470  0.01635  0.15296  1.0000
  C   C1164     1.0  0.77684  0.12815  0.34161  1.0000
  C   C1165     1.0  0.83243  0.20010  0.33743  1.0000
  C   C1166     1.0  0.58826  0.00090  0.47902  1.0000
  C   C1167     1.0  0.79645  0.17190  0.20452  1.0000
  C   C1168     1.0  0.83253  0.13241  0.14763  1.0000
  C   C1169     1.0  0.82666  0.14907  0.13123  1.0000
  P   P38       1.0  0.81102  0.10895  0.16325  1.0000
  C   C1170     1.0  0.78446  0.11269  0.17909  1.0000
  C   C1171     1.0  0.80665  0.09468  0.11926  1.0000
  C   C1172     1.0  0.81913  0.10245  0.08132  1.0000
  C   C1173     1.0  0.55209  0.05079  0.47068  1.0000
  H   H945      1.0  0.57483  0.00341  0.14169  1.0000
  C   C1174     1.0  0.78551  0.06550  0.08751  1.0000
  C   C1175     1.0  0.78934  0.07640  0.12158  1.0000
  C   C1176     1.0  0.77931  0.11448  0.22057  1.0000
  C   C1177     1.0  0.75801  0.11562  0.23339  1.0000
  C   C1178     1.0  0.74169  0.11502  0.20493  1.0000
  C   C1179     1.0  0.74670  0.11333  0.16361  1.0000
  C   C1180     1.0  0.76806  0.11243  0.15055  1.0000
  C   C1181     1.0  0.82008  0.09671  0.20750  1.0000
  C   C1182     1.0  0.83299  0.10832  0.23602  1.0000
  C   C1183     1.0  0.83880  0.09919  0.27181  1.0000
  C   C1184     1.0  0.63453  0.04482  0.44008  1.0000
  P   P39       1.0  0.82794  0.18205  0.26453  1.0000
  C   C1185     1.0  0.89557  0.23498  0.23551  1.0000
  C   C1186     1.0  0.53524  0.03807  0.49889  1.0000
  H   H946      1.0  0.58260  0.00184  0.44849  1.0000
  H   H947      1.0  0.76941  0.08640  0.52068  1.0000
  C   C1187     1.0  0.66836  0.01114  0.52282  1.0000
  H   H948      1.0  0.77221  0.99493  0.47437  1.0000
  C   C1188     1.0  0.67446  0.07165  0.46233  1.0000
  C   C1189     1.0  0.62335  0.99737  0.17342  1.0000
  C   C1190     1.0  0.81998  0.20396  0.14715  1.0000
  C   C1191     1.0  0.78796  0.17450  0.16611  1.0000
  C   C1192     1.0  0.79748  0.12663  0.32604  1.0000
  C   C1193     1.0  0.81295  0.14280  0.30249  1.0000
  H   H949      1.0  0.82932  0.21622  0.12464  1.0000
  H   H950      1.0  0.74955  0.18209  0.09994  1.0000
  H   H951      1.0  0.83069  0.18544  0.35287  1.0000
  H   H952      1.0  0.71518  0.12107  0.08128  1.0000
  C   C1194     1.0  0.83128  0.20302  0.29454  1.0000
  C   C1195     1.0  0.91397  0.22356  0.18052  1.0000
  C   C1196     1.0  0.83628  0.21618  0.36109  1.0000
  H   H953      1.0  0.57473  0.04224  0.26087  1.0000
  H   H954      1.0  0.81377  0.05483  0.44666  1.0000
  C   C1197     1.0  0.80137  0.05914  0.50649  1.0000
  C   C1198     1.0  0.83342  0.22231  0.27606  1.0000
  C   C1199     1.0  0.64633  0.06139  0.41273  1.0000
  S   S166      1.0  0.81237  0.18226  0.03360  1.0000
  H   H955      1.0  0.82868  0.14103  0.29086  1.0000
  H   H956      1.0  0.71018  0.02505  0.27922  1.0000
  C   C1200     1.0  0.54505  0.02533  0.42379  1.0000
  C   C1201     1.0  0.79808  0.07325  0.05010  1.0000
  H   H957      1.0  0.64041  0.06355  0.38242  1.0000
  C   C1202     1.0  0.66619  0.07486  0.42400  1.0000
  C   C1203     1.0  0.73222  0.15099  0.09555  1.0000
  H   H958      1.0  0.80185  0.11304  0.33286  1.0000
  C   C1204     1.0  0.52290  0.01892  0.48952  1.0000
  C   C1205     1.0  0.47214  0.99475  0.46341  1.0000
  H   H959      1.0  0.57573  0.02436  0.49736  1.0000
  C   C1206     1.0  0.70828  0.99560  0.30630  1.0000
  C   C1207     1.0  0.80904  0.02895  0.49042  1.0000
  C   C1208     1.0  0.73785  0.99128  0.49555  1.0000
  H   H960      1.0  0.91014  0.19751  0.04693  1.0000
  H   H961      1.0  0.63333  0.02871  0.49936  1.0000
  C   C1209     1.0  0.90133  0.23084  0.15165  1.0000
  H   H962      1.0  0.87159  0.21742  0.52196  1.0000
  H   H963      1.0  0.72479  0.00070  0.31833  1.0000
  H   H964      1.0  0.77635  0.14629  0.05649  1.0000
  H   H965      1.0  0.89315  0.23663  0.26772  1.0000
  C   C1210     1.0  0.92335  0.19050  0.04503  1.0000
  H   H966      1.0  0.60548  0.99302  0.18244  1.0000
  C   C1211     1.0  0.96149  0.19043  0.05863  1.0000
  H   H967      1.0  0.80110  0.07413  0.49660  1.0000
  H   H968      1.0  0.77523  0.99556  0.40145  1.0000
  C   C1212     1.0  0.81469  0.09183  0.04689  1.0000
  H   H969      1.0  0.83784  0.21375  0.39394  1.0000
  H   H970      1.0  0.75251  0.05073  0.50894  1.0000
  C   C1213     1.0  0.62753  0.02900  0.05661  1.0000
  S   S167      1.0  0.83701  0.23804  0.03043  1.0000
  C   C1214     1.0  0.75127  0.07936  0.52530  1.0000
  H   H971      1.0  0.71159  0.03507  0.51692  1.0000
  C   C1215     1.0  0.72168  0.14241  0.02748  1.0000
  Fe  Fe84      1.0  0.69027  0.06692  0.97001  1.0000
  S   S168      1.0  0.71833  0.06038  0.93494  1.0000
  S   S169      1.0  0.65836  0.06794  0.93889  1.0000
  Fe  Fe85      1.0  0.74191  0.08125  0.97339  1.0000
  S   S170      1.0  0.77532  0.10303  0.94632  1.0000
  H   H972      1.0  0.53987  0.00966  0.87320  1.0000
  C   C1216     1.0  0.49687  0.03366  0.84863  1.0000
  H   H973      1.0  0.70018  0.18348  0.01261  1.0000
  C   C1217     1.0  0.77110  0.22468  0.90489  1.0000
  C   C1218     1.0  0.47391  0.03708  0.61705  1.0000
  Fe  Fe86      1.0  0.56231  0.02250  0.72979  1.0000
  S   S171      1.0  0.58996  0.04644  0.69204  1.0000
  S   S172      1.0  0.53300  0.03114  0.75706  1.0000
  H   H974      1.0  0.79451  0.06511  0.02330  1.0000
  S   S173      1.0  0.61517  0.01265  0.67941  1.0000
  H   H975      1.0  0.96099  0.22707  0.91391  1.0000
  Fe  Fe87      1.0  0.61397  0.03372  0.72676  1.0000
  S   S174      1.0  0.64725  0.05120  0.75092  1.0000
  Fe  Fe88      1.0  0.58838  0.02297  0.64890  1.0000
  S   S175      1.0  0.58558  0.02909  0.58065  1.0000
  S   S176      1.0  0.58638  0.01145  0.76753  1.0000
  H   H976      1.0  0.70804  0.00900  0.57804  1.0000
  C   C1219     1.0  0.59065  0.01231  0.54738  1.0000
  C   C1220     1.0  0.76135  0.06472  0.86499  1.0000
  C   C1221     1.0  0.48773  0.02301  0.74480  1.0000
  C   C1222     1.0  0.50628  0.01556  0.74655  1.0000
  Fe  Fe89      1.0  0.89264  0.23134  0.99194  1.0000
  H   H977      1.0  0.91345  0.23467  0.84151  1.0000
  H   H978      1.0  0.71385  0.13111  0.00788  1.0000
  H   H979      1.0  0.73619  0.03835  0.67301  1.0000
  H   H980      1.0  0.80277  0.00544  0.53973  1.0000
  H   H981      1.0  0.75905  0.99190  0.67799  1.0000
  C   C1223     1.0  0.69351  0.18281  0.98250  1.0000
  H   H982      1.0  0.48959  0.07812  0.81540  1.0000
  C   C1224     1.0  0.88131  0.23988  0.84154  1.0000
  C   C1225     1.0  0.71923  0.00575  0.60033  1.0000
  H   H983      1.0  0.70366  0.17186  0.88540  1.0000
  Fe  Fe90      1.0  0.58589  0.99136  0.71806  1.0000
  C   C1226     1.0  0.75734  0.00989  0.62155  1.0000
  P   P40       1.0  0.67371  0.05028  0.53901  1.0000
  H   H984      1.0  0.90466  0.16785  0.00888  1.0000
  C   C1227     1.0  0.72456  0.02610  0.73571  1.0000
  C   C1228     1.0  0.78627  0.12467  0.97162  1.0000
  C   C1229     1.0  0.80546  0.13993  0.95390  1.0000
  C   C1230     1.0  0.81410  0.15755  0.97297  1.0000
  C   C1231     1.0  0.49100  0.01631  0.56110  1.0000
  C   C1232     1.0  0.69986  0.02936  0.68179  1.0000
  C   C1233     1.0  0.93799  0.16553  0.01885  1.0000
  H   H985      1.0  0.81351  0.13822  0.92509  1.0000
  H   H986      1.0  0.82863  0.16938  0.95877  1.0000
  H   H987      1.0  0.74448  0.10616  0.54045  1.0000
  C   C1234     1.0  0.65546  0.06272  0.88686  1.0000
  C   C1235     1.0  0.67439  0.06567  0.85950  1.0000
  C   C1236     1.0  0.67159  0.06192  0.81811  1.0000
  C   C1237     1.0  0.64988  0.05497  0.80367  1.0000
  C   C1238     1.0  0.63092  0.05189  0.83103  1.0000
  C   C1239     1.0  0.63371  0.05589  0.87236  1.0000
  H   H988      1.0  0.69121  0.07113  0.86998  1.0000
  H   H989      1.0  0.68632  0.06451  0.79708  1.0000
  H   H990      1.0  0.61416  0.04690  0.81995  1.0000
  H   H991      1.0  0.61898  0.05379  0.89312  1.0000
  H   H992      1.0  0.68980  0.03191  0.87370  1.0000
  C   C1240     1.0  0.82582  0.07085  0.66163  1.0000
  P   P41       1.0  0.70991  0.01064  0.81695  1.0000
  C   C1241     1.0  0.69539  0.17629  0.91109  1.0000
  H   H993      1.0  0.82735  0.05685  0.60646  1.0000
  C   C1242     1.0  0.66357  0.99065  0.53348  1.0000
  C   C1243     1.0  0.50370  0.02417  0.59380  1.0000
  S   S177      1.0  0.55899  0.99995  0.68434  1.0000
  H   H994      1.0  0.50472  0.03989  0.64759  1.0000
  C   C1244     1.0  0.68387  0.01527  0.75066  1.0000
  H   H995      1.0  0.74921  0.02443  0.56561  1.0000
  C   C1245     1.0  0.62308  0.02915  0.01504  1.0000
  H   H996      1.0  0.66895  0.00927  0.77173  1.0000
  C   C1246     1.0  0.70824  0.11756  0.90444  1.0000
  C   C1247     1.0  0.72834  0.11564  0.88724  1.0000
  C   C1248     1.0  0.74887  0.13042  0.89038  1.0000
  C   C1249     1.0  0.74944  0.14702  0.91116  1.0000
  C   C1250     1.0  0.72930  0.14920  0.92818  1.0000
  C   C1251     1.0  0.70870  0.13421  0.92494  1.0000
  P   P42       1.0  0.72987  0.16994  0.95730  1.0000
  H   H997      1.0  0.57267  0.03879  0.02114  1.0000
  C   C1252     1.0  0.75426  0.19130  0.94039  1.0000
  C   C1253     1.0  0.77557  0.19179  0.95379  1.0000
  H   H998      1.0  0.58103  0.02757  0.86787  1.0000
  C   C1254     1.0  0.47562  0.02417  0.86911  1.0000
  H   H999      1.0  0.66927  0.00797  0.98791  1.0000
  C   C1255     1.0  0.92057  0.23011  0.57058  1.0000
  S   S178      1.0  0.92729  0.23068  0.97142  1.0000
  H   H1000     1.0  0.77140  0.02698  0.69535  1.0000
  H   H1001     1.0  0.69236  0.10590  0.90265  1.0000
  H   H1002     1.0  0.72807  0.10247  0.87234  1.0000
  H   H1003     1.0  0.76454  0.12861  0.87816  1.0000
  H   H1004     1.0  0.76569  0.15779  0.91448  1.0000
  H   H1005     1.0  0.69300  0.13511  0.93904  1.0000
  C   C1256     1.0  0.55718  0.99244  0.98474  1.0000
  P   P43       1.0  0.78775  0.02088  0.61303  1.0000
  C   C1257     1.0  0.79442  0.20857  0.94323  1.0000
  H   H1006     1.0  0.63543  0.02735  0.99248  1.0000
  C   C1258     1.0  0.81779  0.05604  0.63540  1.0000
  C   C1259     1.0  0.71026  0.99209  0.63493  1.0000
  H   H1007     1.0  0.60861  0.00877  0.86241  1.0000
  H   H1008     1.0  0.74854  0.19233  0.02626  1.0000
  C   C1260     1.0  0.73721  0.09051  0.53632  1.0000
  C   C1261     1.0  0.81411  0.06990  0.69955  1.0000
  C   C1262     1.0  0.66854  0.99295  0.98330  1.0000
  H   H1009     1.0  0.52019  0.02221  0.59799  1.0000
  C   C1263     1.0  0.70570  0.01757  0.76391  1.0000
  H   H1010     1.0  0.49006  0.03852  0.74880  1.0000
  C   C1264     1.0  0.59066  0.00074  0.86727  1.0000
  S   S179      1.0  0.86231  0.22414  0.95399  1.0000
  C   C1265     1.0  0.65940  0.01524  0.59369  1.0000
  C   C1266     1.0  0.73117  0.16246  0.01131  1.0000
  C   C1267     1.0  0.75900  0.04538  0.88262  1.0000
  H   H1011     1.0  0.70301  0.09062  0.54834  1.0000
  H   H1012     1.0  0.48445  0.11787  0.92957  1.0000
  C   C1268     1.0  0.66138  0.06100  0.57835  1.0000
  C   C1269     1.0  0.63998  0.06358  0.57459  1.0000
  C   C1270     1.0  0.63010  0.07101  0.60617  1.0000
  C   C1271     1.0  0.64146  0.07580  0.64174  1.0000
  C   C1272     1.0  0.66269  0.07313  0.64583  1.0000
  C   C1273     1.0  0.67263  0.06575  0.61432  1.0000
  C   C1274     1.0  0.50196  0.05325  0.83017  1.0000
  Fe  Fe91      1.0  0.84264  0.20961  0.01405  1.0000
  C   C1275     1.0  0.79220  0.22508  0.91894  1.0000
  C   C1276     1.0  0.60137  0.99813  0.55978  1.0000
  C   C1277     1.0  0.79772  0.04031  0.64659  1.0000
  C   C1278     1.0  0.66486  0.18745  0.93781  1.0000
  S   S180      1.0  0.74180  0.05695  0.02250  1.0000
  H   H1013     1.0  0.74913  0.08272  0.82066  1.0000
  H   H1014     1.0  0.72135  0.05393  0.79537  1.0000
  H   H1015     1.0  0.81068  0.20884  0.95450  1.0000
  H   H1016     1.0  0.78871  0.05925  0.56855  1.0000
  C   C1279     1.0  0.74778  0.06769  0.83344  1.0000
  H   H1017     1.0  0.83139  0.02121  0.64640  1.0000
  H   H1018     1.0  0.73599  0.20805  0.90470  1.0000
  H   H1019     1.0  0.65728  0.02437  0.61741  1.0000
  Fe  Fe92      1.0  0.71535  0.03695  0.98740  1.0000
  C   C1280     1.0  0.90223  0.21837  0.55149  1.0000
  H   H1020     1.0  0.61328  0.07241  0.60351  1.0000
  H   H1021     1.0  0.63359  0.08111  0.66665  1.0000
  H   H1022     1.0  0.67113  0.07631  0.67399  1.0000
  H   H1023     1.0  0.68887  0.06340  0.61841  1.0000
  C   C1281     1.0  0.50320  0.99552  0.74129  1.0000
  C   C1282     1.0  0.79530  0.03137  0.55990  1.0000
  C   C1283     1.0  0.75216  0.20787  0.91552  1.0000
  C   C1284     1.0  0.77595  0.12699  0.00885  1.0000
  H   H1024     1.0  0.60642  0.99695  0.59095  1.0000
  C   C1285     1.0  0.60330  0.03265  0.00225  1.0000
  H   H1025     1.0  0.50923  0.02570  0.84580  1.0000
  H   H1026     1.0  0.84121  0.08303  0.65261  1.0000
  S   S181      1.0  0.71534  0.00642  0.97264  1.0000
  H   H1027     1.0  0.76942  0.23755  0.88617  1.0000
  H   H1028     1.0  0.74148  0.01423  0.88339  1.0000
  C   C1286     1.0  0.70412  0.06142  0.53482  1.0000
  H   H1029     1.0  0.66412  0.01956  0.70006  1.0000
  H   H1030     1.0  0.84889  0.99456  0.66156  1.0000
  H   H1031     1.0  0.74147  0.02828  0.74566  1.0000
  C   C1287     1.0  0.96439  0.23237  0.88148  1.0000
  C   C1288     1.0  0.88549  0.22642  0.53772  1.0000
  H   H1032     1.0  0.76127  0.11530  0.02293  1.0000
  C   C1289     1.0  0.49508  0.03435  0.62184  1.0000
  C   C1290     1.0  0.67792  0.01729  0.87187  1.0000
  C   C1291     1.0  0.73206  0.05131  0.81920  1.0000
  H   H1033     1.0  0.60037  0.03346  0.96977  1.0000
  S   S182      1.0  0.68631  0.04257  0.02155  1.0000
  H   H1034     1.0  0.93391  0.22405  0.58022  1.0000
  H   H1035     1.0  0.76881  0.04310  0.90828  1.0000
  C   C1292     1.0  0.48568  0.06325  0.83147  1.0000
  H   H1036     1.0  0.82381  0.09817  0.01743  1.0000
  H   H1037     1.0  0.66875  0.18105  0.87519  1.0000
  H   H1038     1.0  0.77309  0.07742  0.87689  1.0000
  C   C1293     1.0  0.72163  0.03193  0.69478  1.0000
  C   C1294     1.0  0.57510  0.01140  0.87005  1.0000
  H   H1039     1.0  0.78557  0.05319  0.74111  1.0000
  C   C1295     1.0  0.67567  0.18156  0.90515  1.0000
  C   C1296     1.0  0.79452  0.05069  0.54713  1.0000
  C   C1297     1.0  0.78638  0.03924  0.68520  1.0000
  H   H1040     1.0  0.69757  0.03370  0.65005  1.0000
  C   C1298     1.0  0.79446  0.05406  0.71142  1.0000
  H   H1041     1.0  0.77749  0.17924  0.97307  1.0000
  C   C1299     1.0  0.83237  0.99104  0.64920  1.0000
  H   H1042     1.0  0.82038  0.08137  0.71991  1.0000
  C   C1300     1.0  0.68102  0.02114  0.70975  1.0000
  C   C1301     1.0  0.70437  0.17675  0.94990  1.0000
  H   H1043     1.0  0.51825  0.06030  0.81324  1.0000
  C   C1302     1.0  0.80243  0.02050  0.53110  1.0000
  H   H1044     1.0  0.64956  0.19153  0.93318  1.0000
  C   C1303     1.0  0.68326  0.00386  0.84720  1.0000
  H   H1045     1.0  0.90129  0.20319  0.54637  1.0000
  C   C1304     1.0  0.72995  0.03177  0.83614  1.0000
  H   H1046     1.0  0.65334  0.02212  0.91462  1.0000
  C   C1305     1.0  0.74268  0.01453  0.59345  1.0000
  C   C1306     1.0  0.74335  0.02896  0.86839  1.0000
  C   C1307     1.0  0.67380  0.18812  0.97643  1.0000
  S   S183      1.0  0.71395  0.09002  0.00445  1.0000
  C   C1308     1.0  0.65716  0.01178  0.89506  1.0000
  C   C1309     1.0  0.80362  0.15989  0.01003  1.0000
  H   H1047     1.0  0.63055  0.05938  0.54792  1.0000
  C   C1310     1.0  0.65465  0.99468  0.60420  1.0000
  H   H1048     1.0  0.66546  0.19275  0.00172  1.0000
  C   C1311     1.0  0.74813  0.99613  0.65631  1.0000
  C   C1312     1.0  0.82234  0.00613  0.64063  1.0000
  H   H1049     1.0  0.55506  0.00397  0.96255  1.0000
  H   H1050     1.0  0.48081  0.09017  0.88675  1.0000
  C   C1313     1.0  0.64181  0.99274  0.89419  1.0000
  C   C1314     1.0  0.80090  0.00162  0.62469  1.0000
  H   H1051     1.0  0.93583  0.15285  0.00130  1.0000
  H   H1052     1.0  0.87249  0.22548  0.85830  1.0000
  H   H1053     1.0  0.80682  0.23823  0.91138  1.0000
  C   C1315     1.0  0.66641  0.02364  0.55287  1.0000
  C   C1316     1.0  0.55189  0.00129  0.87319  1.0000
  C   C1317     1.0  0.71371  0.08162  0.54091  1.0000
  H   H1054     1.0  0.58706  0.99027  0.95206  1.0000
  H   H1055     1.0  0.53223  0.04323  0.52807  1.0000
  C   C1318     1.0  0.92041  0.17390  0.02319  1.0000
  H   H1056     1.0  0.47157  0.00884  0.88267  1.0000
  P   P44       1.0  0.50173  0.00206  0.52659  1.0000
  H   H1057     1.0  0.52859  0.99184  0.02494  1.0000
  S   S184      1.0  0.92154  0.27748  0.40529  1.0000
  H   H1058     1.0  0.88904  0.30747  0.42901  1.0000
  C   C1319     1.0  0.89706  0.34943  0.50508  1.0000
  C   C1320     1.0  0.96865  0.29150  0.39569  1.0000
  H   H1059     1.0  0.91036  0.41375  0.28536  1.0000
  C   C1321     1.0  0.94949  0.29378  0.51658  1.0000
  H   H1060     1.0  0.85117  0.30842  0.45458  1.0000
  C   C1322     1.0  0.50236  0.46132  0.52259  1.0000
  H   H1061     1.0  0.84270  0.24790  0.36049  1.0000
  C   C1323     1.0  0.95270  0.36282  0.51514  1.0000
  H   H1062     1.0  0.90831  0.35687  0.44084  1.0000
  P   P45       1.0  0.52298  0.48561  0.52399  1.0000
  C   C1324     1.0  0.94980  0.39127  0.47082  1.0000
  H   H1063     1.0  0.92025  0.24181  0.05168  1.0000
  H   H1064     1.0  0.92842  0.43176  0.40495  1.0000
  C   C1325     1.0  0.93030  0.46292  0.40242  1.0000
  H   H1065     1.0  0.90663  0.33897  0.51010  1.0000
  C   C1326     1.0  0.86221  0.30408  0.47586  1.0000
  C   C1327     1.0  0.48528  0.46565  0.14878  1.0000
  Fe  Fe93      1.0  0.92033  0.24631  0.39218  1.0000
  C   C1328     1.0  0.94834  0.29593  0.40284  1.0000
  C   C1329     1.0  0.94929  0.31553  0.40896  1.0000
  C   C1330     1.0  0.79638  0.35688  0.51788  1.0000
  H   H1066     1.0  0.49340  0.41979  0.47142  1.0000
  H   H1067     1.0  0.93384  0.31919  0.41492  1.0000
  H   H1068     1.0  0.95962  0.30152  0.14830  1.0000
  C   C1331     1.0  0.49047  0.42961  0.49317  1.0000
  C   C1332     1.0  0.92249  0.44281  0.41877  1.0000
  C   C1333     1.0  0.90038  0.45103  0.47325  1.0000
  H   H1069     1.0  0.95879  0.24420  0.47165  1.0000
  C   C1334     1.0  0.90743  0.43686  0.45380  1.0000
  H   H1070     1.0  0.90181  0.42130  0.46636  1.0000
  C   C1335     1.0  0.92793  0.30547  0.05839  1.0000
  C   C1336     1.0  0.89785  0.29805  0.48869  1.0000
  H   H1071     1.0  0.94527  0.26471  0.09478  1.0000
  C   C1337     1.0  0.96746  0.27472  0.25298  1.0000
  C   C1338     1.0  0.90774  0.33001  0.05800  1.0000
  H   H1072     1.0  0.93113  0.26436  0.26073  1.0000
  C   C1339     1.0  0.92376  0.47718  0.42292  1.0000
  H   H1073     1.0  0.50163  0.46314  0.14605  1.0000
  C   C1340     1.0  0.94572  0.27298  0.24061  1.0000
  H   H1074     1.0  0.52108  0.45317  0.47329  1.0000
  C   C1341     1.0  0.94283  0.28227  0.20259  1.0000
  H   H1075     1.0  0.83971  0.25331  0.28511  1.0000
  C   C1342     1.0  0.50605  0.44855  0.49428  1.0000
  C   C1343     1.0  0.48362  0.48341  0.16238  1.0000
  S   S185      1.0  0.87020  0.25046  0.12942  1.0000
  C   C1344     1.0  0.95178  0.26238  0.06507  1.0000
  C   C1345     1.0  0.90868  0.47122  0.45801  1.0000
  H   H1076     1.0  0.50046  0.48149  0.44623  1.0000
  H   H1077     1.0  0.78994  0.34966  0.49101  1.0000
  C   C1346     1.0  0.91476  0.29508  0.09376  1.0000
  C   C1347     1.0  0.89810  0.30208  0.11119  1.0000
  C   C1348     1.0  0.89467  0.31959  0.09347  1.0000
  H   H1078     1.0  0.90375  0.48228  0.47379  1.0000
  H   H1079     1.0  0.48328  0.48127  0.25727  1.0000
  H   H1080     1.0  0.94107  0.29997  0.04599  1.0000
  C   C1349     1.0  0.94502  0.42674  0.26142  1.0000
  C   C1350     1.0  0.89804  0.35955  0.46603  1.0000
  C   C1351     1.0  0.88346  0.24277  0.20654  1.0000
  H   H1081     1.0  0.94056  0.28236  0.49784  1.0000
  C   C1352     1.0  0.88354  0.30368  0.46145  1.0000
  H   H1082     1.0  0.91409  0.29765  0.47657  1.0000
  H   H1083     1.0  0.88846  0.38229  0.43001  1.0000
  C   C1353     1.0  0.85507  0.29860  0.51751  1.0000
  H   H1084     1.0  0.90510  0.34370  0.04486  1.0000
  H   H1085     1.0  0.91728  0.28145  0.10758  1.0000
  C   C1354     1.0  0.93764  0.24928  0.04080  1.0000
  C   C1355     1.0  0.92624  0.42520  0.28808  1.0000
  H   H1086     1.0  0.82965  0.35456  0.50630  1.0000
  C   C1356     1.0  0.94882  0.45275  0.32281  1.0000
  H   H1087     1.0  0.95688  0.34901  0.51850  1.0000
  H   H1088     1.0  0.88781  0.29383  0.13839  1.0000
  H   H1089     1.0  0.88185  0.32506  0.10725  1.0000
  C   C1357     1.0  0.92413  0.32278  0.03969  1.0000
  H   H1090     1.0  0.92592  0.28053  0.19276  1.0000
  C   C1358     1.0  0.87428  0.37786  0.49292  1.0000
  H   H1091     1.0  0.96333  0.36885  0.45044  1.0000
  H   H1092     1.0  0.91310  0.43737  0.33766  1.0000
  S   S186      1.0  0.95178  0.40396  0.42118  1.0000
  H   H1093     1.0  0.94384  0.41634  0.23847  1.0000
  Fe  Fe94      1.0  0.86905  0.24298  0.06326  1.0000
  C   C1359     1.0  0.92798  0.43841  0.31818  1.0000
  H   H1094     1.0  0.93542  0.41111  0.50048  1.0000
  H   H1095     1.0  0.87185  0.25041  0.21678  1.0000
  C   C1360     1.0  0.96176  0.29404  0.17761  1.0000
  C   C1361     1.0  0.95630  0.37399  0.47640  1.0000
  P   P46       1.0  0.95131  0.47078  0.35955  1.0000
  C   C1362     1.0  0.88688  0.37394  0.46004  1.0000
  H   H1096     1.0  0.93703  0.44671  0.51943  1.0000
  H   H1097     1.0  0.88896  0.44643  0.50070  1.0000
  C   C1363     1.0  0.94063  0.39784  0.50474  1.0000
  H   H1098     1.0  0.96866  0.47434  0.48315  1.0000
  H   H1099     1.0  0.91405  0.48690  0.33974  1.0000
  H   H1100     1.0  0.97066  0.34541  0.41332  1.0000
  C   C1364     1.0  0.97019  0.33059  0.40723  1.0000
  H   H1101     1.0  0.96907  0.26747  0.28270  1.0000
  H   H1102     1.0  0.96834  0.27641  0.39235  1.0000
  C   C1365     1.0  0.96737  0.45459  0.29506  1.0000
  H   H1103     1.0  0.86574  0.38907  0.48785  1.0000
  C   C1366     1.0  0.96543  0.44167  0.26442  1.0000
  C   C1367     1.0  0.81900  0.35987  0.52649  1.0000
  S   S187      1.0  0.94988  0.24074  0.35973  1.0000
  C   C1368     1.0  0.97041  0.24112  0.49313  1.0000
  H   H1104     1.0  0.47389  0.46435  0.34145  1.0000
  C   C1369     1.0  0.88617  0.24067  0.16452  1.0000
  H   H1105     1.0  0.47984  0.46392  0.57273  1.0000
  C   C1370     1.0  0.96016  0.32504  0.85112  1.0000
  C   C1371     1.0  0.94344  0.36928  0.54909  1.0000
  C   C1372     1.0  0.54687  0.48308  0.55137  1.0000
  C   C1373     1.0  0.95544  0.24703  0.86453  1.0000
  Fe  Fe95      1.0  0.85909  0.25310  0.97298  1.0000
  S   S188      1.0  0.84695  0.27365  0.92825  1.0000
  C   C1374     1.0  0.84802  0.32813  0.69035  1.0000
  C   C1375     1.0  0.85352  0.35530  0.61958  1.0000
  C   C1376     1.0  0.90473  0.24533  0.83243  1.0000
  S   S189      1.0  0.49667  0.42388  0.67880  1.0000
  H   H1106     1.0  0.89484  0.26750  0.71674  1.0000
  H   H1107     1.0  0.96870  0.31277  0.66539  1.0000
  H   H1108     1.0  0.90991  0.32264  0.83761  1.0000
  H   H1109     1.0  0.89489  0.29508  0.89552  1.0000
  Fe  Fe96      1.0  0.91821  0.36160  0.74503  1.0000
  S   S190      1.0  0.94629  0.38699  0.76495  1.0000
  S   S191      1.0  0.88537  0.34378  0.78202  1.0000
  Fe  Fe97      1.0  0.94002  0.36637  0.65810  1.0000
  C   C1377     1.0  0.60151  0.48956  0.71336  1.0000
  S   S192      1.0  0.93745  0.35395  0.59645  1.0000
  C   C1378     1.0  0.91661  0.47168  0.69500  1.0000
  C   C1379     1.0  0.95100  0.31228  0.57576  1.0000
  Fe  Fe98      1.0  0.94532  0.40353  0.70312  1.0000
  C   C1380     1.0  0.58358  0.47962  0.59580  1.0000
  S   S193      1.0  0.94105  0.34662  0.71566  1.0000
  S   S194      1.0  0.91499  0.37954  0.68575  1.0000
  C   C1381     1.0  0.94734  0.45735  0.68605  1.0000
  C   C1382     1.0  0.92438  0.45483  0.69546  1.0000
  C   C1383     1.0  0.89587  0.27852  0.69088  1.0000
  H   H1110     1.0  0.95475  0.36555  0.92170  1.0000
  P   P47       1.0  0.90902  0.28431  0.56543  1.0000
  H   H1111     1.0  0.96097  0.30820  0.74032  1.0000
  H   H1112     1.0  0.91268  0.43998  0.70313  1.0000
  H   H1113     1.0  0.89388  0.32599  0.66936  1.0000
  C   C1384     1.0  0.89131  0.43652  0.60624  1.0000
  H   H1114     1.0  0.89926  0.45127  0.61553  1.0000
  H   H1115     1.0  0.85619  0.35398  0.72385  1.0000
  H   H1116     1.0  0.81879  0.38163  0.61553  1.0000
  C   C1385     1.0  0.90085  0.42125  0.61566  1.0000
  C   C1386     1.0  0.90078  0.35674  0.89353  1.0000
  P   P48       1.0  0.94134  0.33670  0.99470  1.0000
  S   S195      1.0  0.89045  0.26104  0.00770  1.0000
  C   C1387     1.0  0.95892  0.37678  0.00916  1.0000
  C   C1388     1.0  0.92224  0.24993  0.57573  1.0000
  C   C1389     1.0  0.89508  0.31136  0.66421  1.0000
  C   C1390     1.0  0.90020  0.27430  0.65087  1.0000
  C   C1391     1.0  0.95780  0.43847  0.56445  1.0000
  C   C1392     1.0  0.95515  0.32140  0.96946  1.0000
  C   C1393     1.0  0.96236  0.47673  0.67634  1.0000
  C   C1394     1.0  0.52378  0.46223  0.67981  1.0000
  C   C1395     1.0  0.50191  0.44888  0.68910  1.0000
  C   C1396     1.0  0.48524  0.45552  0.70774  1.0000
  C   C1397     1.0  0.49086  0.47511  0.71912  1.0000
  C   C1398     1.0  0.89901  0.30706  0.62423  1.0000
  H   H1117     1.0  0.53659  0.45726  0.66464  1.0000
  H   H1118     1.0  0.86410  0.44454  0.57806  1.0000
  C   C1399     1.0  0.90188  0.28861  0.61723  1.0000
  H   H1119     1.0  0.59867  0.46826  0.84083  1.0000
  H   H1120     1.0  0.89887  0.46971  0.70239  1.0000
  C   C1400     1.0  0.88947  0.34211  0.92536  1.0000
  C   C1401     1.0  0.88064  0.27154  0.80780  1.0000
  C   C1402     1.0  0.85988  0.29301  0.88813  1.0000
  C   C1403     1.0  0.84527  0.30081  0.86548  1.0000
  C   C1404     1.0  0.85365  0.31611  0.83334  1.0000
  C   C1405     1.0  0.87691  0.32405  0.82277  1.0000
  C   C1406     1.0  0.89190  0.31637  0.84514  1.0000
  C   C1407     1.0  0.88339  0.30086  0.87804  1.0000
  H   H1121     1.0  0.82718  0.29503  0.87303  1.0000
  H   H1122     1.0  0.84191  0.32195  0.81665  1.0000
  C   C1408     1.0  0.94922  0.30570  0.84161  1.0000
  H   H1123     1.0  0.86321  0.28796  0.57662  1.0000
  C   C1409     1.0  0.95384  0.44998  0.53027  1.0000
  C   C1410     1.0  0.91644  0.26430  0.81214  1.0000
  H   H1124     1.0  0.76443  0.36053  0.53751  1.0000
  C   C1411     1.0  0.52521  0.46163  0.82203  1.0000
  C   C1412     1.0  0.85363  0.34857  0.69382  1.0000
  C   C1413     1.0  0.85622  0.36211  0.65873  1.0000
  S   S196      1.0  0.95835  0.43704  0.68468  1.0000
  H   H1125     1.0  0.93308  0.37604  0.86696  1.0000
  C   C1414     1.0  0.95057  0.27571  0.74490  1.0000
  C   C1415     1.0  0.88497  0.35364  0.53822  1.0000
  C   C1416     1.0  0.52932  0.48181  0.69083  1.0000
  H   H1126     1.0  0.94337  0.31560  0.60335  1.0000
  H   H1127     1.0  0.87130  0.28180  0.79887  1.0000
  H   H1128     1.0  0.49289  0.41589  0.79891  1.0000
  H   H1129     1.0  0.93691  0.25894  0.58949  1.0000
  H   H1130     1.0  0.86030  0.37782  0.66263  1.0000
  C   C1417     1.0  0.87029  0.39795  0.58455  1.0000
  H   H1131     1.0  0.55057  0.45790  0.75164  1.0000
  C   C1418     1.0  0.86929  0.29271  0.54474  1.0000
  H   H1132     1.0  0.94225  0.27585  0.93318  1.0000
  C   C1419     1.0  0.79016  0.37193  0.57917  1.0000
  C   C1420     1.0  0.92517  0.34483  0.95602  1.0000
  H   H1133     1.0  0.95081  0.33307  0.86750  1.0000
  C   C1421     1.0  0.94218  0.30253  0.96001  1.0000
  C   C1422     1.0  0.58101  0.47417  0.71550  1.0000
  H   H1134     1.0  0.85127  0.24908  0.83782  1.0000
  C   C1423     1.0  0.95923  0.25360  0.82225  1.0000
  C   C1424     1.0  0.84452  0.32113  0.65171  1.0000
  H   H1135     1.0  0.84007  0.30525  0.64911  1.0000
  C   C1425     1.0  0.90163  0.33595  0.95623  1.0000
  C   C1426     1.0  0.94589  0.25919  0.72204  1.0000
  C   C1427     1.0  0.95804  0.29508  0.72394  1.0000
  C   C1428     1.0  0.96868  0.25537  0.98927  1.0000
  C   C1429     1.0  0.48294  0.45472  0.54995  1.0000
  C   C1430     1.0  0.95894  0.28129  0.65902  1.0000
  C   C1431     1.0  0.95049  0.26199  0.67932  1.0000
  H   H1136     1.0  0.87136  0.33500  0.92524  1.0000
  H   H1137     1.0  0.84650  0.31779  0.71773  1.0000
  C   C1432     1.0  0.50825  0.47103  0.82322  1.0000
  H   H1138     1.0  0.89139  0.36106  0.86897  1.0000
  H   H1139     1.0  0.57627  0.46569  0.68948  1.0000
  H   H1140     1.0  0.93070  0.39204  0.56998  1.0000
  C   C1433     1.0  0.94593  0.24588  0.00272  1.0000
  H   H1141     1.0  0.89265  0.32397  0.97951  1.0000
  H   H1142     1.0  0.84403  0.32898  0.58682  1.0000
  C   C1434     1.0  0.48586  0.46045  0.81678  1.0000
  C   C1435     1.0  0.92429  0.36513  0.89235  1.0000
  H   H1143     1.0  0.94418  0.42631  0.58007  1.0000
  C   C1436     1.0  0.56638  0.46979  0.75109  1.0000
  H   H1144     1.0  0.53216  0.43397  0.81267  1.0000
  H   H1145     1.0  0.91603  0.42416  0.63257  1.0000
  H   H1146     1.0  0.57035  0.44805  0.59060  1.0000
  C   C1437     1.0  0.89340  0.29709  0.69754  1.0000
  P   P49       1.0  0.94677  0.27200  0.80053  1.0000
  C   C1438     1.0  0.93855  0.29788  0.55156  1.0000
  C   C1439     1.0  0.78199  0.36296  0.54411  1.0000
  C   C1440     1.0  0.87284  0.36742  0.53210  1.0000
  C   C1441     1.0  0.95235  0.29056  0.93955  1.0000
  H   H1147     1.0  0.56201  0.48672  0.91603  1.0000
  C   C1442     1.0  0.89067  0.40218  0.60400  1.0000
  C   C1443     1.0  0.59409  0.44594  0.89195  1.0000
  C   C1444     1.0  0.57899  0.43321  0.92271  1.0000
  C   C1445     1.0  0.55643  0.43310  0.92598  1.0000
  C   C1446     1.0  0.54892  0.44564  0.89837  1.0000
  C   C1447     1.0  0.56389  0.45823  0.86688  1.0000
  C   C1448     1.0  0.58663  0.45848  0.86423  1.0000
  P   P50       1.0  0.55410  0.47474  0.83207  1.0000
  S   S197      1.0  0.97009  0.39104  0.67170  1.0000
  C   C1449     1.0  0.93647  0.35916  0.92339  1.0000
  H   H1148     1.0  0.51219  0.48658  0.82839  1.0000
  C   C1450     1.0  0.96136  0.35758  0.01427  1.0000
  C   C1451     1.0  0.90412  0.27721  0.79927  1.0000
  H   H1149     1.0  0.92418  0.29706  0.96856  1.0000
  C   C1452     1.0  0.81277  0.37496  0.58786  1.0000
  H   H1150     1.0  0.89827  0.39049  0.61121  1.0000
  H   H1151     1.0  0.96328  0.28342  0.62616  1.0000
  H   H1152     1.0  0.90064  0.31841  0.59874  1.0000
  H   H1153     1.0  0.91279  0.29184  0.78333  1.0000
  C   C1453     1.0  0.51938  0.44153  0.81402  1.0000
  H   H1154     1.0  0.96659  0.26280  0.53260  1.0000
  C   C1454     1.0  0.88713  0.24627  0.54278  1.0000
  C   C1455     1.0  0.90561  0.25821  0.56172  1.0000
  H   H1155     1.0  0.77892  0.37638  0.59986  1.0000
  C   C1456     1.0  0.84700  0.33463  0.61649  1.0000
  H   H1156     1.0  0.90254  0.26003  0.64648  1.0000
  H   H1157     1.0  0.61162  0.44611  0.88953  1.0000
  H   H1158     1.0  0.58480  0.42344  0.94404  1.0000
  H   H1159     1.0  0.54474  0.42325  0.94990  1.0000
  H   H1160     1.0  0.53142  0.44549  0.90154  1.0000
  H   H1161     1.0  0.94503  0.37949  0.99317  1.0000
  C   C1457     1.0  0.96117  0.29539  0.81967  1.0000
  H   H1162     1.0  0.89046  0.30064  0.72845  1.0000
  C   C1458     1.0  0.48030  0.44056  0.80829  1.0000
  H   H1163     1.0  0.47810  0.48004  0.73455  1.0000
  P   P51       1.0  0.85630  0.37262  0.57399  1.0000
  H   H1164     1.0  0.93153  0.29895  0.85146  1.0000
  C   C1459     1.0  0.49708  0.43114  0.80671  1.0000
  C   C1460     1.0  0.93791  0.38709  0.54401  1.0000
  C   C1461     1.0  0.82746  0.36927  0.56120  1.0000
  C   C1462     1.0  0.86102  0.41347  0.57424  1.0000
  C   C1463     1.0  0.86931  0.25306  0.82964  1.0000
  H   H1165     1.0  0.88582  0.34651  0.56852  1.0000
  H   H1166     1.0  0.84568  0.41080  0.55812  1.0000
  C   C1464     1.0  0.57211  0.48087  0.78485  1.0000
  C   C1465     1.0  0.87149  0.43267  0.58525  1.0000
  H   H1167     1.0  0.94519  0.25295  0.88429  1.0000
  H   H1168     1.0  0.53816  0.45087  0.55190  1.0000
  C   C1466     1.0  0.89097  0.29265  0.53060  1.0000
  C   C1467     1.0  0.54997  0.46430  0.56083  1.0000
  H   H1169     1.0  0.87428  0.25233  0.53090  1.0000
  H   H1170     1.0  0.83840  0.29859  0.52857  1.0000
  H   H1171     1.0  0.93951  0.24415  0.73741  1.0000
  C   C1468     1.0  0.51307  0.48812  0.71168  1.0000
  H   H1172     1.0  0.47299  0.46794  0.81676  1.0000
  H   H1173     1.0  0.94820  0.24923  0.66195  1.0000
  C   C1469     1.0  0.56825  0.46262  0.58301  1.0000
  C   C1470     1.0  0.96229  0.29781  0.68120  1.0000
  H   H1174     1.0  0.59773  0.47831  0.61292  1.0000
  Fe  Fe99      1.0  0.96892  0.37297  0.73173  1.0000
  H   H1175     1.0  0.51100  0.48611  0.61130  1.0000
  H   H1176     1.0  0.61363  0.54289  0.44786  1.0000
  H   H1177     1.0  0.60625  0.51106  0.49274  1.0000
  H   H1178     1.0  0.94775  0.73789  0.49377  1.0000
  S   S198      1.0  0.91273  0.62465  0.11393  1.0000
  H   H1179     1.0  0.69646  0.72442  0.10829  1.0000
  Fe  Fe100     1.0  0.92626  0.67916  0.31521  1.0000
  S   S199      1.0  0.89671  0.65518  0.34844  1.0000
  S   S200      1.0  0.93148  0.68726  0.24609  1.0000
  C   C1471     1.0  0.58335  0.70678  0.19424  1.0000
  S   S201      1.0  0.91512  0.67469  0.43396  1.0000
  Fe  Fe101     1.0  0.92198  0.65251  0.39440  1.0000
  Fe  Fe102     1.0  0.89241  0.67938  0.38508  1.0000
  S   S202      1.0  0.85938  0.68569  0.39939  1.0000
  Fe  Fe103     1.0  0.71657  0.66642  0.37214  1.0000
  S   S203      1.0  0.71776  0.63629  0.39772  1.0000
  S   S204      1.0  0.72526  0.69098  0.41451  1.0000
  Fe  Fe104     1.0  0.70993  0.65350  0.28535  1.0000
  S   S205      1.0  0.71079  0.62247  0.30511  1.0000
  S   S206      1.0  0.70696  0.66538  0.21957  1.0000
  Fe  Fe105     1.0  0.68865  0.62435  0.35939  1.0000
  S   S207      1.0  0.66158  0.59760  0.38993  1.0000
  Fe  Fe106     1.0  0.73981  0.63736  0.34147  1.0000
  S   S208      1.0  0.76969  0.62555  0.34525  1.0000
  S   S209      1.0  0.68547  0.65440  0.33777  1.0000
  S   S210      1.0  0.74086  0.66837  0.31777  1.0000
  H   H1180     1.0  0.64072  0.73764  0.42467  1.0000
  C   C1472     1.0  0.68185  0.69183  0.43450  1.0000
  S   S211      1.0  0.70320  0.60825  0.07859  1.0000
  C   C1473     1.0  0.64096  0.55907  0.48184  1.0000
  C   C1474     1.0  0.66613  0.69829  0.45715  1.0000
  C   C1475     1.0  0.96098  0.59139  0.03049  1.0000
  S   S212      1.0  0.56039  0.65587  0.05195  1.0000
  S   S213      1.0  0.60610  0.70533  0.07264  1.0000
  Fe  Fe107     1.0  0.55078  0.56640  0.30196  1.0000
  S   S214      1.0  0.55822  0.59613  0.32649  1.0000
  S   S215      1.0  0.57847  0.55251  0.29350  1.0000
  Fe  Fe108     1.0  0.50037  0.56000  0.30169  1.0000
  S   S216      1.0  0.50401  0.58966  0.32535  1.0000
  Fe  Fe109     1.0  0.53444  0.60173  0.28006  1.0000
  S   S217      1.0  0.54335  0.63283  0.24585  1.0000
  Fe  Fe110     1.0  0.52740  0.58125  0.36903  1.0000
  S   S218      1.0  0.52357  0.58482  0.43672  1.0000
  S   S219      1.0  0.52891  0.57274  0.25258  1.0000
  S   S220      1.0  0.52183  0.55093  0.34832  1.0000
  H   H1181     1.0  0.49288  0.51706  0.26951  1.0000
  C   C1476     1.0  0.54028  0.57506  0.46979  1.0000
  C   C1477     1.0  0.55708  0.56757  0.45452  1.0000
  H   H1182     1.0  0.88627  0.71945  0.43297  1.0000
  H   H1183     1.0  0.80303  0.60815  0.28332  1.0000
  H   H1184     1.0  0.55957  0.56707  0.42171  1.0000
  C   C1478     1.0  0.48170  0.53176  0.43505  1.0000
  C   C1479     1.0  0.85913  0.69041  0.08757  1.0000
  C   C1480     1.0  0.55612  0.64934  0.10584  1.0000
  C   C1481     1.0  0.55208  0.62940  0.12231  1.0000
  C   C1482     1.0  0.54823  0.62396  0.16523  1.0000
  C   C1483     1.0  0.54796  0.63842  0.19175  1.0000
  C   C1484     1.0  0.55165  0.65822  0.17504  1.0000
  C   C1485     1.0  0.55603  0.66373  0.13242  1.0000
  H   H1185     1.0  0.55194  0.61822  0.10178  1.0000
  H   H1186     1.0  0.54529  0.60863  0.17778  1.0000
  H   H1187     1.0  0.55059  0.66925  0.19524  1.0000
  H   H1188     1.0  0.55851  0.67901  0.11996  1.0000
  C   C1486     1.0  0.55868  0.55432  0.18639  1.0000
  C   C1487     1.0  0.53008  0.65251  0.34241  1.0000
  H   H1189     1.0  0.90714  0.73641  0.28412  1.0000
  C   C1488     1.0  0.63916  0.58570  0.36109  1.0000
  C   C1489     1.0  0.63152  0.56481  0.36478  1.0000
  C   C1490     1.0  0.61325  0.55473  0.34311  1.0000
  C   C1491     1.0  0.60217  0.56550  0.31842  1.0000
  C   C1492     1.0  0.60989  0.58644  0.31441  1.0000
  C   C1493     1.0  0.62849  0.59658  0.33561  1.0000
  H   H1190     1.0  0.63993  0.55641  0.38408  1.0000
  H   H1191     1.0  0.60743  0.53858  0.34605  1.0000
  H   H1192     1.0  0.60180  0.59480  0.29435  1.0000
  H   H1193     1.0  0.63446  0.61273  0.33241  1.0000
  C   C1494     1.0  0.70476  0.62489  0.11630  1.0000
  C   C1495     1.0  0.70511  0.61761  0.15747  1.0000
  C   C1496     1.0  0.70606  0.63000  0.18900  1.0000
  C   C1497     1.0  0.70639  0.64977  0.17989  1.0000
  C   C1498     1.0  0.70610  0.65716  0.13860  1.0000
  C   C1499     1.0  0.70549  0.64481  0.10673  1.0000
  H   H1194     1.0  0.70456  0.60223  0.16512  1.0000
  H   H1195     1.0  0.70621  0.62405  0.22040  1.0000
  H   H1196     1.0  0.70608  0.67238  0.13132  1.0000
  H   H1197     1.0  0.70509  0.65053  0.07503  1.0000
  C   C1500     1.0  0.70433  0.69664  0.44499  1.0000
  C   C1501     1.0  0.92960  0.49694  0.32442  1.0000
  C   C1502     1.0  0.86953  0.67643  0.07657  1.0000
  S   S221      1.0  0.95222  0.67438  0.35799  1.0000
  C   C1503     1.0  0.61007  0.70216  0.34580  1.0000
  C   C1504     1.0  0.83503  0.66920  0.38196  1.0000
  C   C1505     1.0  0.83404  0.64960  0.37610  1.0000
  C   C1506     1.0  0.81391  0.63631  0.36475  1.0000
  C   C1507     1.0  0.79485  0.64264  0.35845  1.0000
  C   C1508     1.0  0.79597  0.66234  0.36362  1.0000
  C   C1509     1.0  0.81599  0.67556  0.37548  1.0000
  H   H1198     1.0  0.84854  0.64450  0.38150  1.0000
  H   H1199     1.0  0.81304  0.62101  0.36140  1.0000
  H   H1200     1.0  0.78127  0.66729  0.35954  1.0000
  H   H1201     1.0  0.81653  0.69061  0.38027  1.0000
  C   C1510     1.0  0.91794  0.64216  0.15049  1.0000
  C   C1511     1.0  0.92488  0.66268  0.13828  1.0000
  C   C1512     1.0  0.92893  0.67630  0.16801  1.0000
  C   C1513     1.0  0.92606  0.66952  0.21013  1.0000
  C   C1514     1.0  0.91905  0.64901  0.22247  1.0000
  C   C1515     1.0  0.91504  0.63536  0.19268  1.0000
  H   H1202     1.0  0.92732  0.66809  0.10594  1.0000
  C   C1516     1.0  0.63202  0.72793  0.40256  1.0000
  H   H1203     1.0  0.90974  0.61948  0.20231  1.0000
  S   S222      1.0  0.92040  0.70363  0.34917  1.0000
  C   C1517     1.0  0.60718  0.63889  0.03619  1.0000
  C   C1518     1.0  0.77924  0.67440  0.18219  1.0000
  H   H1204     1.0  0.85878  0.61432  0.16449  1.0000
  C   C1519     1.0  0.68161  0.63849  0.49002  1.0000
  H   H1205     1.0  0.75064  0.60358  0.27919  1.0000
  H   H1206     1.0  0.76132  0.63387  0.15739  1.0000
  C   C1520     1.0  0.58901  0.69521  0.22657  1.0000
  C   C1521     1.0  0.71163  0.71579  0.25647  1.0000
  C   C1522     1.0  0.65348  0.67444  0.26519  1.0000
  C   C1523     1.0  0.64507  0.65513  0.25389  1.0000
  C   C1524     1.0  0.62187  0.64503  0.25927  1.0000
  H   H1207     1.0  0.67149  0.68214  0.26071  1.0000
  H   H1208     1.0  0.65667  0.64811  0.24092  1.0000
  H   H1209     1.0  0.61529  0.63004  0.25039  1.0000
  C   C1525     1.0  0.51727  0.49204  0.43995  1.0000
  C   C1526     1.0  0.61988  0.65180  0.42948  1.0000
  H   H1210     1.0  0.90570  0.57577  0.46432  1.0000
  C   C1527     1.0  0.76358  0.59130  0.08583  1.0000
  C   C1528     1.0  0.80071  0.67173  0.18137  1.0000
  C   C1529     1.0  0.64873  0.65315  0.11056  1.0000
  C   C1530     1.0  0.63293  0.66139  0.12708  1.0000
  C   C1531     1.0  0.61367  0.64906  0.15057  1.0000
  C   C1532     1.0  0.61013  0.62846  0.15712  1.0000
  C   C1533     1.0  0.62554  0.61999  0.13918  1.0000
  C   C1534     1.0  0.64506  0.63253  0.11641  1.0000
  P   P52       1.0  0.62172  0.59355  0.14917  1.0000
  C   C1535     1.0  0.59155  0.58048  0.15365  1.0000
  C   C1536     1.0  0.63336  0.58554  0.10452  1.0000
  C   C1537     1.0  0.62691  0.59042  0.06528  1.0000
  H   H1211     1.0  0.63671  0.66485  0.02844  1.0000
  H   H1212     1.0  0.95416  0.59649  0.05699  1.0000
  C   C1538     1.0  0.65749  0.56853  0.07309  1.0000
  C   C1539     1.0  0.64920  0.57494  0.10798  1.0000
  C   C1540     1.0  0.58189  0.56444  0.18404  1.0000
  H   H1213     1.0  0.64360  0.57285  0.46226  1.0000
  C   C1541     1.0  0.78634  0.63364  0.08450  1.0000
  C   C1542     1.0  0.55401  0.57656  0.12924  1.0000
  C   C1543     1.0  0.57731  0.58653  0.12644  1.0000
  C   C1544     1.0  0.63602  0.58918  0.19471  1.0000
  C   C1545     1.0  0.64823  0.60538  0.21490  1.0000
  C   C1546     1.0  0.65960  0.60226  0.24962  1.0000
  C   C1547     1.0  0.65930  0.58299  0.26420  1.0000
  C   C1548     1.0  0.64733  0.56675  0.24429  1.0000
  C   C1549     1.0  0.63581  0.56981  0.20961  1.0000
  H   H1214     1.0  0.66378  0.66275  0.09292  1.0000
  H   H1215     1.0  0.63563  0.67732  0.12132  1.0000
  H   H1216     1.0  0.60140  0.65541  0.16359  1.0000
  H   H1217     1.0  0.59535  0.61921  0.17614  1.0000
  H   H1218     1.0  0.65754  0.62642  0.10341  1.0000
  H   H1219     1.0  0.61563  0.59933  0.06143  1.0000
  H   H1220     1.0  0.73682  0.65240  0.46888  1.0000
  C   C1550     1.0  0.75558  0.62055  0.21965  1.0000
  H   H1221     1.0  0.94786  0.62988  0.27288  1.0000
  H   H1222     1.0  0.65598  0.57216  0.13696  1.0000
  H   H1223     1.0  0.59186  0.55987  0.20686  1.0000
  H   H1224     1.0  0.75158  0.70198  0.08050  1.0000
  H   H1225     1.0  0.92785  0.59011  0.30726  1.0000
  H   H1226     1.0  0.54304  0.58163  0.10892  1.0000
  H   H1227     1.0  0.58410  0.59930  0.10375  1.0000
  H   H1228     1.0  0.64929  0.62050  0.20377  1.0000
  H   H1229     1.0  0.66849  0.61485  0.26542  1.0000
  H   H1230     1.0  0.66798  0.58064  0.29143  1.0000
  H   H1231     1.0  0.64673  0.55177  0.25611  1.0000
  H   H1232     1.0  0.62695  0.55705  0.19422  1.0000
  C   C1551     1.0  0.90709  0.53120  0.40434  1.0000
  H   H1233     1.0  0.58942  0.52912  0.04907  1.0000
  C   C1552     1.0  0.85309  0.59792  0.11163  1.0000
  C   C1553     1.0  0.96476  0.67587  0.52227  1.0000
  C   C1554     1.0  0.96541  0.54022  0.48134  1.0000
  C   C1555     1.0  0.62570  0.72090  0.33204  1.0000
  H   H1234     1.0  0.91105  0.73432  0.20903  1.0000
  C   C1556     1.0  0.91637  0.54918  0.46470  1.0000
  H   H1235     1.0  0.91302  0.51705  0.29594  1.0000
  H   H1236     1.0  0.57322  0.73278  0.17643  1.0000
  H   H1237     1.0  0.90801  0.51918  0.38670  1.0000
  H   H1238     1.0  0.61283  0.70524  0.44940  1.0000
  C   C1557     1.0  0.77533  0.59263  0.19331  1.0000
  H   H1239     1.0  0.67018  0.56088  0.07581  1.0000
  C   C1558     1.0  0.91630  0.53292  0.44270  1.0000
  H   H1240     1.0  0.52391  0.58086  0.52423  1.0000
  C   C1559     1.0  0.89726  0.54535  0.38814  1.0000
  C   C1560     1.0  0.89635  0.56105  0.41058  1.0000
  C   C1561     1.0  0.90593  0.56303  0.44856  1.0000
  C   C1562     1.0  0.72999  0.56243  0.08722  1.0000
  C   C1563     1.0  0.96998  0.50565  0.30708  1.0000
  C   C1564     1.0  0.57137  0.56152  0.48168  1.0000
  H   H1241     1.0  0.60204  0.64177  0.06648  1.0000
  C   C1565     1.0  0.95906  0.58890  0.39013  1.0000
  C   C1566     1.0  0.55346  0.51114  0.46226  1.0000
  H   H1242     1.0  0.69476  0.65229  0.47926  1.0000
  H   H1243     1.0  0.63310  0.66308  0.41038  1.0000
  H   H1244     1.0  0.74950  0.72923  0.19225  1.0000
  C   C1567     1.0  0.62384  0.54205  0.47363  1.0000
  C   C1568     1.0  0.91792  0.73041  0.46029  1.0000
  H   H1245     1.0  0.74252  0.57610  0.14084  1.0000
  H   H1246     1.0  0.57850  0.61315  0.03494  1.0000
  H   H1247     1.0  0.54356  0.62923  0.50960  1.0000
  C   C1569     1.0  0.67239  0.70882  0.49151  1.0000
  C   C1570     1.0  0.81101  0.72146  0.44198  1.0000
  H   H1248     1.0  0.89072  0.54439  0.35791  1.0000
  H   H1249     1.0  0.88904  0.57222  0.39784  1.0000
  H   H1250     1.0  0.65506  0.65225  0.48942  1.0000
  H   H1251     1.0  0.80558  0.66407  0.15702  1.0000
  C   C1571     1.0  0.72086  0.72707  0.15518  1.0000
  C   C1572     1.0  0.93457  0.60958  0.39909  1.0000
  H   H1252     1.0  0.96468  0.54927  0.45312  1.0000
  H   H1253     1.0  0.76801  0.57872  0.25586  1.0000
  C   C1573     1.0  0.86343  0.69464  0.23386  1.0000
  C   C1574     1.0  0.88131  0.70880  0.20960  1.0000
  C   C1575     1.0  0.89694  0.72383  0.22770  1.0000
  C   C1576     1.0  0.89480  0.72496  0.27000  1.0000
  C   C1577     1.0  0.87726  0.71084  0.29436  1.0000
  C   C1578     1.0  0.86197  0.69545  0.27661  1.0000
  H   H1254     1.0  0.88374  0.70810  0.17694  1.0000
  H   H1255     1.0  0.58355  0.70259  0.16317  1.0000
  H   H1256     1.0  0.97039  0.56421  0.09038  1.0000
  C   C1579     1.0  0.53255  0.63709  0.36994  1.0000
  H   H1257     1.0  0.78128  0.69743  0.26959  1.0000
  H   H1258     1.0  0.48071  0.55878  0.40015  1.0000
  H   H1259     1.0  0.76783  0.66911  0.15850  1.0000
  C   C1580     1.0  0.81104  0.60523  0.11110  1.0000
  C   C1581     1.0  0.58662  0.62235  0.47990  1.0000
  Fe  Fe111     1.0  0.94372  0.69682  0.39483  1.0000
  H   H1260     1.0  0.56546  0.70387  0.47614  1.0000
  C   C1582     1.0  0.69476  0.71313  0.50259  1.0000
  H   H1261     1.0  0.87593  0.71145  0.32727  1.0000
  H   H1262     1.0  0.58904  0.64637  0.27880  1.0000
  H   H1263     1.0  0.71486  0.69715  0.31034  1.0000
  H   H1264     1.0  0.93436  0.69217  0.15830  1.0000
  C   C1583     1.0  0.64743  0.60291  0.51716  1.0000
  C   C1584     1.0  0.54923  0.66742  0.32389  1.0000
  H   H1265     1.0  0.96214  0.66713  0.49628  1.0000
  H   H1266     1.0  0.86657  0.65016  0.16960  1.0000
  H   H1267     1.0  0.49860  0.49459  0.17058  1.0000
  C   C1585     1.0  0.80257  0.73227  0.37341  1.0000
  H   H1268     1.0  0.70449  0.62110  0.49421  1.0000
  H   H1269     1.0  0.92375  0.52176  0.45466  1.0000
  C   C1586     1.0  0.53724  0.57559  0.51229  1.0000
  H   H1270     1.0  0.57464  0.61052  0.49995  1.0000
  H   H1271     1.0  0.51332  0.65259  0.33453  1.0000
  C   C1587     1.0  0.85065  0.68955  0.12815  1.0000
  C   C1588     1.0  0.77371  0.60827  0.16507  1.0000
  C   C1589     1.0  0.95078  0.58494  0.35166  1.0000
  C   C1590     1.0  0.71186  0.72157  0.11764  1.0000
  C   C1591     1.0  0.68701  0.62074  0.49836  1.0000
  H   H1272     1.0  0.79040  0.73477  0.35237  1.0000
  H   H1273     1.0  0.91679  0.64370  0.25489  1.0000
  C   C1592     1.0  0.96915  0.52236  0.28168  1.0000
  H   H1274     1.0  0.62947  0.72563  0.29939  1.0000
  H   H1275     1.0  0.75381  0.68633  0.48611  1.0000
  C   C1593     1.0  0.93439  0.59330  0.33691  1.0000
  H   H1276     1.0  0.84275  0.70057  0.13631  1.0000
  H   H1277     1.0  0.85765  0.70186  0.06449  1.0000
  C   C1594     1.0  0.92675  0.60608  0.36012  1.0000
  H   H1278     1.0  0.75013  0.62816  0.08504  1.0000
  C   C1595     1.0  0.85294  0.67491  0.15822  1.0000
  Fe  Fe112     1.0  0.59730  0.73227  0.04619  1.0000
  C   C1596     1.0  0.86383  0.66117  0.14704  1.0000
  C   C1597     1.0  0.94865  0.52650  0.27786  1.0000
  C   C1598     1.0  0.83350  0.72448  0.42730  1.0000
  H   H1279     1.0  0.61870  0.73259  0.14124  1.0000
  H   H1280     1.0  0.54689  0.67893  0.30200  1.0000
  H   H1281     1.0  0.76840  0.71257  0.14556  1.0000
  C   C1599     1.0  0.76583  0.59197  0.04275  1.0000
  H   H1282     1.0  0.82189  0.62113  0.16417  1.0000
  H   H1283     1.0  0.58990  0.65013  0.36571  1.0000
  C   C1600     1.0  0.74313  0.59164  0.48070  1.0000
  C   C1601     1.0  0.83831  0.59087  0.08143  1.0000
  H   H1284     1.0  0.86936  0.59516  0.11166  1.0000
  C   C1602     1.0  0.75710  0.60488  0.24743  1.0000
  C   C1603     1.0  0.78806  0.68433  0.48593  1.0000
  C   C1604     1.0  0.75253  0.71496  0.13795  1.0000
  C   C1605     1.0  0.61090  0.65650  0.46577  1.0000
  H   H1285     1.0  0.62485  0.62053  0.51312  1.0000
  H   H1286     1.0  0.61755  0.67136  0.47506  1.0000
  S   S223      1.0  0.92426  0.62452  0.42965  1.0000
  C   C1606     1.0  0.80827  0.68790  0.24392  1.0000
  C   C1607     1.0  0.54533  0.51496  0.39062  1.0000
  H   H1287     1.0  0.81886  0.69296  0.26861  1.0000
  H   H1288     1.0  0.87766  0.65894  0.24503  1.0000
  C   C1608     1.0  0.58882  0.70063  0.26683  1.0000
  H   H1289     1.0  0.68357  0.57336  0.43899  1.0000
  H   H1290     1.0  0.75582  0.59079  0.41863  1.0000
  H   H1291     1.0  0.51205  0.52252  0.49758  1.0000
  C   C1609     1.0  0.76460  0.67697  0.48259  1.0000
  H   H1292     1.0  0.64586  0.69865  0.29069  1.0000
  H   H1293     1.0  0.75542  0.68530  0.21506  1.0000
  C   C1610     1.0  0.63880  0.68369  0.28231  1.0000
  H   H1294     1.0  0.67680  0.68380  0.40803  1.0000
  P   P53       1.0  0.84321  0.67494  0.21101  1.0000
  H   H1295     1.0  0.58482  0.55643  0.46959  1.0000
  H   H1296     1.0  0.76105  0.63143  0.45231  1.0000
  H   H1297     1.0  0.91434  0.61276  0.34844  1.0000
  C   C1611     1.0  0.57329  0.65114  0.35977  1.0000
  C   C1612     1.0  0.74089  0.58798  0.43951  1.0000
  C   C1613     1.0  0.76666  0.63859  0.07539  1.0000
  H   H1298     1.0  0.57636  0.53131  0.41474  1.0000
  C   C1614     1.0  0.72386  0.58904  0.50699  1.0000
  H   H1299     1.0  0.51775  0.62534  0.38376  1.0000
  C   C1615     1.0  0.60530  0.69665  0.38840  1.0000
  H   H1300     1.0  0.84540  0.72044  0.44693  1.0000
  H   H1301     1.0  0.84914  0.68410  0.29636  1.0000
  H   H1302     1.0  0.59325  0.68194  0.22003  1.0000
  C   C1616     1.0  0.57462  0.67900  0.50505  1.0000
  C   C1617     1.0  0.61542  0.67365  0.28808  1.0000
  C   C1618     1.0  0.93004  0.72913  0.49495  1.0000
  C   C1619     1.0  0.53210  0.49682  0.47159  1.0000
  C   C1620     1.0  0.84137  0.65166  0.24072  1.0000
  C   C1621     1.0  0.86127  0.64782  0.25266  1.0000
  C   C1622     1.0  0.81555  0.67868  0.21204  1.0000
  C   C1623     1.0  0.78677  0.69043  0.24470  1.0000
  C   C1624     1.0  0.77223  0.68362  0.21399  1.0000
  H   H1303     1.0  0.71732  0.70690  0.23575  1.0000
  C   C1625     1.0  0.79184  0.65296  0.46675  1.0000
  C   C1626     1.0  0.60705  0.65431  0.27588  1.0000
  C   C1627     1.0  0.82034  0.63709  0.25136  1.0000
  H   H1304     1.0  0.80467  0.63973  0.24331  1.0000
  H   H1305     1.0  0.56754  0.54943  0.07846  1.0000
  H   H1306     1.0  0.87560  0.62668  0.28343  1.0000
  C   C1628     1.0  0.63562  0.58436  0.03042  1.0000
  H   H1307     1.0  0.59011  0.60258  0.43508  1.0000
  C   C1629     1.0  0.92886  0.51378  0.29915  1.0000
  C   C1630     1.0  0.86017  0.62955  0.27441  1.0000
  C   C1631     1.0  0.81932  0.61898  0.27370  1.0000
  C   C1632     1.0  0.95030  0.49304  0.32926  1.0000
  C   C1633     1.0  0.59430  0.64183  0.49135  1.0000
  P   P54       1.0  0.80108  0.71010  0.49364  1.0000
  H   H1308     1.0  0.49949  0.53788  0.44028  1.0000
  P   P55       1.0  0.59609  0.68574  0.30874  1.0000
  C   C1634     1.0  0.83921  0.61516  0.28507  1.0000
  C   C1635     1.0  0.80757  0.64702  0.07012  1.0000
  C   C1636     1.0  0.61242  0.63231  0.41862  1.0000
  H   H1309     1.0  0.61978  0.62843  0.39114  1.0000
  H   H1310     1.0  0.55603  0.62424  0.39938  1.0000
  C   C1637     1.0  0.74531  0.57658  0.10788  1.0000
  C   C1638     1.0  0.55416  0.63646  0.37873  1.0000
  C   C1639     1.0  0.57657  0.72896  0.24194  1.0000
  C   C1640     1.0  0.94365  0.57818  0.51873  1.0000
  C   C1641     1.0  0.59559  0.61770  0.44348  1.0000
  C   C1642     1.0  0.61622  0.70954  0.41653  1.0000
  C   C1643     1.0  0.66992  0.60279  0.51187  1.0000
  C   C1644     1.0  0.78929  0.67011  0.03913  1.0000
  H   H1311     1.0  0.83836  0.60121  0.30276  1.0000
  H   H1312     1.0  0.75986  0.59713  0.49184  1.0000
  C   C1645     1.0  0.61976  0.52413  0.49882  1.0000
  H   H1313     1.0  0.56496  0.51579  0.48598  1.0000
  C   C1646     1.0  0.57154  0.69788  0.50344  1.0000
  H   H1314     1.0  0.74806  0.63146  0.23001  1.0000
  C   C1647     1.0  0.57102  0.66688  0.33264  1.0000
  H   H1315     1.0  0.64918  0.69536  0.44760  1.0000
  H   H1316     1.0  0.86765  0.69603  0.49413  1.0000
  C   C1648     1.0  0.64198  0.71732  0.16333  1.0000
  C   C1649     1.0  0.74163  0.72418  0.16455  1.0000
  C   C1650     1.0  0.80896  0.66514  0.04737  1.0000
  H   H1317     1.0  0.80252  0.64404  0.45852  1.0000
  C   C1651     1.0  0.64217  0.62066  0.50878  1.0000
  H   H1318     1.0  0.52660  0.55292  0.16194  1.0000
  H   H1319     1.0  0.87595  0.67707  0.04507  1.0000
  H   H1320     1.0  0.59323  0.68250  0.40021  1.0000
  H   H1321     1.0  0.96439  0.60281  0.26093  1.0000
  C   C1652     1.0  0.57735  0.72375  0.20178  1.0000
  C   C1653     1.0  0.74317  0.70911  0.10119  1.0000
  H   H1322     1.0  0.82305  0.64334  0.07516  1.0000
  C   C1654     1.0  0.80167  0.67224  0.47766  1.0000
  Fe  Fe113     1.0  0.91328  0.63490  0.04606  1.0000
  C   C1655     1.0  0.87178  0.66177  0.10620  1.0000
  C   C1656     1.0  0.76813  0.65685  0.05329  1.0000
  C   C1657     1.0  0.95058  0.60089  0.41413  1.0000
  C   C1658     1.0  0.70995  0.70998  0.29883  1.0000
  H   H1323     1.0  0.88005  0.65102  0.09765  1.0000
  C   C1659     1.0  0.70005  0.57813  0.45131  1.0000
  H   H1324     1.0  0.68951  0.68122  0.03897  1.0000
  H   H1325     1.0  0.55143  0.54227  0.21069  1.0000
  H   H1326     1.0  0.71759  0.57897  0.39264  1.0000
  H   H1327     1.0  0.95700  0.60404  0.44376  1.0000
  C   C1660     1.0  0.70192  0.72067  0.32649  1.0000
  C   C1661     1.0  0.76689  0.59088  0.23424  1.0000
  H   H1328     1.0  0.58104  0.72144  0.30546  1.0000
  C   C1662     1.0  0.47572  0.50725  0.27607  1.0000
  C   C1663     1.0  0.81739  0.59450  0.08106  1.0000
  C   C1664     1.0  0.76347  0.62205  0.17847  1.0000
  H   H1329     1.0  0.71575  0.55133  0.10426  1.0000
  H   H1330     1.0  0.93071  0.49294  0.41230  1.0000
  C   C1665     1.0  0.71072  0.70730  0.47906  1.0000
  C   C1666     1.0  0.65919  0.63846  0.49542  1.0000
  H   H1331     1.0  0.75275  0.66037  0.04624  1.0000
  H   H1332     1.0  0.80641  0.58890  0.05718  1.0000
  C   C1667     1.0  0.57500  0.55336  0.04712  1.0000
  H   H1333     1.0  0.89026  0.51631  0.52283  1.0000
  C   C1668     1.0  0.54472  0.56036  0.15903  1.0000
  C   C1669     1.0  0.56002  0.52008  0.42188  1.0000
  H   H1334     1.0  0.78286  0.58164  0.18348  1.0000
  H   H1335     1.0  0.93841  0.68860  0.50813  1.0000
  C   C1670     1.0  0.82618  0.61254  0.14106  1.0000
  H   H1336     1.0  0.55047  0.52204  0.35943  1.0000
  H   H1337     1.0  0.71607  0.70877  0.06179  1.0000
  C   C1671     1.0  0.72302  0.71269  0.09083  1.0000
  H   H1338     1.0  0.94820  0.53973  0.25881  1.0000
  H   H1339     1.0  0.77770  0.72163  0.42455  1.0000
  C   C1672     1.0  0.70211  0.58193  0.49265  1.0000
  P   P56       1.0  0.78375  0.60961  0.11185  1.0000
  C   C1673     1.0  0.89538  0.71870  0.46029  1.0000
  H   H1340     1.0  0.66892  0.70627  0.18334  1.0000
  C   C1674     1.0  0.58205  0.71735  0.27445  1.0000
  C   C1675     1.0  0.84706  0.60876  0.14141  1.0000
  H   H1341     1.0  0.57061  0.67043  0.47897  1.0000
  C   C1676     1.0  0.71935  0.58128  0.42484  1.0000
  C   C1677     1.0  0.95021  0.53857  0.51552  1.0000
  C   C1678     1.0  0.65437  0.55827  0.51515  1.0000
  H   H1342     1.0  0.97082  0.53797  0.14518  1.0000
  C   C1679     1.0  0.52389  0.50106  0.39969  1.0000
  P   P57       1.0  0.92969  0.55214  0.51305  1.0000
  H   H1343     1.0  0.72816  0.71131  0.48696  1.0000
  C   C1680     1.0  0.75485  0.65768  0.47209  1.0000
  H   H1344     1.0  0.82529  0.67494  0.03457  1.0000
  C   C1681     1.0  0.73286  0.56280  0.04452  1.0000
  H   H1345     1.0  0.84320  0.58272  0.05799  1.0000
  C   C1682     1.0  0.88496  0.70554  0.49490  1.0000
  H   H1346     1.0  0.62996  0.70258  0.16334  1.0000
  C   C1683     1.0  0.66401  0.71949  0.17464  1.0000
  S   S224      1.0  0.96043  0.56936  0.32179  1.0000
  C   C1684     1.0  0.76847  0.64579  0.46343  1.0000
  S   S225      1.0  0.65218  0.71718  0.51851  1.0000
  H   H1347     1.0  0.81997  0.67802  0.47749  1.0000
  C   C1685     1.0  0.82513  0.73573  0.35927  1.0000
  H   H1348     1.0  0.47801  0.50280  0.46643  1.0000
  H   H1349     1.0  0.70091  0.71622  0.35931  1.0000
  H   H1350     1.0  0.56336  0.57893  0.03713  1.0000
  P   P58       1.0  0.67706  0.58012  0.52498  1.0000
  C   C1686     1.0  0.56862  0.56245  0.52421  1.0000
  H   H1351     1.0  0.51232  0.49746  0.37549  1.0000
  H   H1352     1.0  0.92637  0.73998  0.43286  1.0000
  C   C1687     1.0  0.63664  0.73368  0.36032  1.0000
  C   C1688     1.0  0.63553  0.73418  0.15112  1.0000
  C   C1689     1.0  0.70568  0.73266  0.24155  1.0000
  C   C1690     1.0  0.96741  0.58566  0.51698  1.0000
  C   C1691     1.0  0.65060  0.57313  0.03437  1.0000
  C   C1692     1.0  0.67974  0.73861  0.17370  1.0000
  H   H1353     1.0  0.85781  0.73361  0.37490  1.0000
  C   C1693     1.0  0.78113  0.72077  0.51683  1.0000
  C   C1694     1.0  0.69525  0.73708  0.31183  1.0000
  Fe  Fe114     1.0  0.58158  0.68790  0.03138  1.0000
  S   S226      1.0  0.96776  0.72283  0.42216  1.0000
  C   C1695     1.0  0.96599  0.63333  0.26704  1.0000
  H   H1354     1.0  0.96670  0.72111  0.26752  1.0000
  C   C1696     1.0  0.58721  0.54182  0.03054  1.0000
  C   C1697     1.0  0.79547  0.72501  0.41452  1.0000
  C   C1698     1.0  0.84056  0.73177  0.38619  1.0000
  S   S227      1.0  0.66469  0.70942  0.03522  1.0000
  H   H1355     1.0  0.72094  0.55195  0.02839  1.0000
  H   H1356     1.0  0.93186  0.62070  0.53928  1.0000
  H   H1357     1.0  0.62984  0.50927  0.55158  1.0000
  Fe  Fe115     1.0  0.93820  0.66057  0.96971  1.0000
  C   C1699     1.0  0.95869  0.58586  0.83833  1.0000
  S   S228      1.0  0.90230  0.59158  0.92678  1.0000
  S   S229      1.0  0.91023  0.64816  0.92912  1.0000
  Fe  Fe116     1.0  0.68219  0.59563  0.93407  1.0000
  S   S230      1.0  0.70891  0.61654  0.88914  1.0000
  S   S231      1.0  0.65065  0.57173  0.91892  1.0000
  Fe  Fe117     1.0  0.73392  0.61243  0.93447  1.0000
  S   S232      1.0  0.76625  0.60572  0.91704  1.0000
  Fe  Fe118     1.0  0.70533  0.63995  0.92854  1.0000
  S   S233      1.0  0.70050  0.66779  0.89770  1.0000
  Fe  Fe119     1.0  0.65769  0.72429  0.58481  1.0000
  S   S234      1.0  0.68956  0.72392  0.61439  1.0000
  H   H1358     1.0  0.94813  0.61809  0.90296  1.0000
  H   H1359     1.0  0.88712  0.67250  0.72174  1.0000
  C   C1700     1.0  0.67423  0.72258  0.80716  1.0000
  H   H1360     1.0  0.57261  0.62927  0.62756  1.0000
  Fe  Fe120     1.0  0.66609  0.70547  0.66722  1.0000
  S   S235      1.0  0.66900  0.67628  0.69612  1.0000
  S   S236      1.0  0.63436  0.70450  0.63625  1.0000
  H   H1361     1.0  0.65748  0.56861  0.00723  1.0000
  H   H1362     1.0  0.76496  0.70645  0.89943  1.0000
  H   H1363     1.0  0.52858  0.69968  0.95564  1.0000
  H   H1364     1.0  0.73028  0.72864  0.79071  1.0000
  H   H1365     1.0  0.93451  0.55816  0.82680  1.0000
  Fe  Fe121     1.0  0.59789  0.72058  0.95870  1.0000
  H   H1366     1.0  0.88669  0.65512  0.65892  1.0000
  C   C1701     1.0  0.95232  0.52757  0.55232  1.0000
  Fe  Fe122     1.0  0.60427  0.55281  0.70696  1.0000
  S   S237      1.0  0.57503  0.55608  0.74481  1.0000
  S   S238      1.0  0.63784  0.55399  0.73285  1.0000
  Fe  Fe123     1.0  0.58123  0.55550  0.62603  1.0000
  S   S239      1.0  0.55064  0.55978  0.65810  1.0000
  S   S240      1.0  0.58712  0.55507  0.55732  1.0000
  Fe  Fe124     1.0  0.57557  0.58013  0.69521  1.0000
  S   S241      1.0  0.57344  0.60957  0.71296  1.0000
  Fe  Fe125     1.0  0.55304  0.53512  0.70436  1.0000
  S   S242      1.0  0.52015  0.51194  0.72967  1.0000
  S   S243      1.0  0.60592  0.57801  0.65904  1.0000
  S   S244      1.0  0.58247  0.52962  0.67043  1.0000
  H   H1367     1.0  0.74584  0.65693  0.79770  1.0000
  S   S245      1.0  0.93932  0.56654  0.71839  1.0000
  C   C1702     1.0  0.76118  0.69593  0.87658  1.0000
  S   S246      1.0  0.92175  0.51203  0.68585  1.0000
  C   C1703     1.0  0.50772  0.59830  0.98036  1.0000
  H   H1368     1.0  0.50675  0.60807  0.54255  1.0000
  H   H1369     1.0  0.70440  0.63334  0.68296  1.0000
  H   H1370     1.0  0.91318  0.70471  0.93620  1.0000
  C   C1704     1.0  0.73092  0.71298  0.70339  1.0000
  H   H1371     1.0  0.54899  0.57018  0.57204  1.0000
  C   C1705     1.0  0.64243  0.65773  0.70550  1.0000
  C   C1706     1.0  0.64117  0.63752  0.70891  1.0000
  C   C1707     1.0  0.62009  0.62261  0.71213  1.0000
  C   C1708     1.0  0.60008  0.62785  0.71185  1.0000
  C   C1709     1.0  0.60127  0.64798  0.71043  1.0000
  C   C1710     1.0  0.62238  0.66287  0.70782  1.0000
  H   H1372     1.0  0.65650  0.63340  0.70723  1.0000
  H   H1373     1.0  0.61943  0.60712  0.71428  1.0000
  H   H1374     1.0  0.58583  0.65203  0.71052  1.0000
  H   H1375     1.0  0.62318  0.67833  0.70751  1.0000
  H   H1376     1.0  0.72105  0.66812  0.69801  1.0000
  S   S247      1.0  0.67690  0.61950  0.97074  1.0000
  H   H1377     1.0  0.55961  0.65601  0.92319  1.0000
  H   H1378     1.0  0.81537  0.66900  0.95611  1.0000
  C   C1711     1.0  0.61208  0.72582  0.82671  1.0000
  C   C1712     1.0  0.59968  0.61917  0.97792  1.0000
  C   C1713     1.0  0.60232  0.73423  0.75682  1.0000
  S   S248      1.0  0.57009  0.71422  0.00964  1.0000
  C   C1714     1.0  0.69247  0.68081  0.93519  1.0000
  C   C1715     1.0  0.95459  0.57549  0.96748  1.0000
  H   H1379     1.0  0.71308  0.71178  0.70681  1.0000
  C   C1716     1.0  0.67303  0.70399  0.95505  1.0000
  C   C1717     1.0  0.68165  0.69509  0.92427  1.0000
  H   H1380     1.0  0.66410  0.71463  0.94684  1.0000
  H   H1381     1.0  0.67932  0.69876  0.89223  1.0000
  C   C1718     1.0  0.64746  0.56649  0.86731  1.0000
  C   C1719     1.0  0.66580  0.57296  0.83780  1.0000
  C   C1720     1.0  0.66269  0.56886  0.79674  1.0000
  C   C1721     1.0  0.64111  0.55891  0.78460  1.0000
  C   C1722     1.0  0.62274  0.55247  0.81408  1.0000
  C   C1723     1.0  0.62600  0.55591  0.85544  1.0000
  H   H1382     1.0  0.68246  0.58082  0.84673  1.0000
  H   H1383     1.0  0.67707  0.57351  0.77434  1.0000
  H   H1384     1.0  0.60612  0.54451  0.80520  1.0000
  H   H1385     1.0  0.61177  0.55069  0.87807  1.0000
  C   C1724     1.0  0.54783  0.61624  0.97126  1.0000
  C   C1725     1.0  0.83215  0.64634  0.95930  1.0000
  C   C1726     1.0  0.81372  0.65355  0.95271  1.0000
  C   C1727     1.0  0.79317  0.64088  0.94144  1.0000
  C   C1728     1.0  0.79117  0.62115  0.93514  1.0000
  C   C1729     1.0  0.80960  0.61390  0.94165  1.0000
  C   C1730     1.0  0.82993  0.62637  0.95443  1.0000
  H   H1386     1.0  0.83251  0.64653  0.86446  1.0000
  H   H1387     1.0  0.77905  0.64650  0.93650  1.0000
  H   H1388     1.0  0.80817  0.59864  0.93671  1.0000
  C   C1731     1.0  0.55587  0.53215  0.84711  1.0000
  C   C1732     1.0  0.92402  0.59025  0.89164  1.0000
  C   C1733     1.0  0.92041  0.57338  0.87012  1.0000
  C   C1734     1.0  0.93750  0.57132  0.84303  1.0000
  H   H1389     1.0  0.53610  0.60719  0.65939  1.0000
  H   H1390     1.0  0.62336  0.51242  0.74529  1.0000
  C   C1735     1.0  0.94510  0.60505  0.88634  1.0000
  H   H1391     1.0  0.90453  0.56158  0.87523  1.0000
  C   C1736     1.0  0.56224  0.51719  0.91314  1.0000
  H   H1392     1.0  0.55085  0.51337  0.79780  1.0000
  H   H1393     1.0  0.63037  0.72333  0.77029  1.0000
  H   H1394     1.0  0.63535  0.61636  0.62572  1.0000
  C   C1737     1.0  0.54242  0.68899  0.86042  1.0000
  S   S249      1.0  0.58776  0.73143  0.89690  1.0000
  C   C1738     1.0  0.95472  0.69968  0.56247  1.0000
  H   H1395     1.0  0.61279  0.49312  0.68571  1.0000
  C   C1739     1.0  0.95847  0.64132  0.76793  1.0000
  C   C1740     1.0  0.57656  0.70914  0.53689  1.0000
  C   C1741     1.0  0.56017  0.53367  0.88848  1.0000
  H   H1396     1.0  0.86538  0.51527  0.64774  1.0000
  H   H1397     1.0  0.95940  0.68030  0.84665  1.0000
  H   H1398     1.0  0.67310  0.67592  0.78721  1.0000
  C   C1742     1.0  0.68023  0.69136  0.79281  1.0000
  H   H1399     1.0  0.59276  0.67649  0.60197  1.0000
  Fe  Fe126     1.0  0.95836  0.58719  0.66378  1.0000
  C   C1743     1.0  0.93894  0.71376  0.88589  1.0000
  C   C1744     1.0  0.69758  0.73185  0.80397  1.0000
  S   S250      1.0  0.96956  0.68224  0.93736  1.0000
  C   C1745     1.0  0.91730  0.70347  0.90420  1.0000
  C   C1746     1.0  0.90114  0.69110  0.88173  1.0000
  C   C1747     1.0  0.90663  0.68881  0.84099  1.0000
  C   C1748     1.0  0.92824  0.69904  0.82258  1.0000
  H   H1400     1.0  0.56559  0.51836  0.94522  1.0000
  H   H1401     1.0  0.86277  0.50003  0.58183  1.0000
  C   C1749     1.0  0.55136  0.56937  0.53945  1.0000
  P   P59       1.0  0.58734  0.64723  0.54226  1.0000
  C   C1750     1.0  0.65025  0.66495  0.58619  1.0000
  C   C1751     1.0  0.68748  0.68528  0.00705  1.0000
  C   C1752     1.0  0.89350  0.54086  0.62488  1.0000
  C   C1753     1.0  0.95212  0.66661  0.67097  1.0000
  H   H1402     1.0  0.62301  0.72078  0.84706  1.0000
  C   C1754     1.0  0.86241  0.59296  0.64678  1.0000
  C   C1755     1.0  0.91962  0.70183  0.61978  1.0000
  Fe  Fe127     1.0  0.70450  0.61501  0.00926  1.0000
  H   H1403     1.0  0.89497  0.54729  0.65395  1.0000
  C   C1756     1.0  0.94345  0.64819  0.65526  1.0000
  H   H1404     1.0  0.62956  0.67840  0.55060  1.0000
  S   S251      1.0  0.94437  0.61133  0.63724  1.0000
  H   H1405     1.0  0.64741  0.69558  0.80107  1.0000
  C   C1757     1.0  0.57284  0.57019  0.02367  1.0000
  H   H1406     1.0  0.88452  0.68294  0.89628  1.0000
  H   H1407     1.0  0.89425  0.67879  0.82405  1.0000
  C   C1758     1.0  0.91970  0.71618  0.53012  1.0000
  H   H1408     1.0  0.85795  0.58960  0.61594  1.0000
  H   H1409     1.0  0.96479  0.61322  0.76401  1.0000
  H   H1410     1.0  0.84109  0.68751  0.60696  1.0000
  C   C1759     1.0  0.62658  0.65198  0.01467  1.0000
  C   C1760     1.0  0.67264  0.58447  0.64902  1.0000
  C   C1761     1.0  0.68626  0.57334  0.66440  1.0000
  C   C1762     1.0  0.69752  0.56459  0.63747  1.0000
  C   C1763     1.0  0.69516  0.56698  0.59509  1.0000
  C   C1764     1.0  0.68179  0.57843  0.57927  1.0000
  C   C1765     1.0  0.67030  0.58694  0.60670  1.0000
  H   H1411     1.0  0.60021  0.61576  0.59211  1.0000
  C   C1766     1.0  0.84106  0.69973  0.58443  1.0000
  C   C1767     1.0  0.87686  0.52278  0.62136  1.0000
  C   C1768     1.0  0.88416  0.60506  0.65304  1.0000
  C   C1769     1.0  0.96249  0.60270  0.86018  1.0000
  H   H1412     1.0  0.52812  0.71091  0.88170  1.0000
  C   C1770     1.0  0.74992  0.73713  0.55296  1.0000
  H   H1413     1.0  0.92833  0.58083  0.00539  1.0000
  C   C1771     1.0  0.69605  0.64752  0.79303  1.0000
  H   H1414     1.0  0.68239  0.60739  0.73797  1.0000
  H   H1415     1.0  0.77002  0.65273  0.85361  1.0000
  C   C1772     1.0  0.76961  0.67967  0.87927  1.0000
  H   H1416     1.0  0.58809  0.71009  0.59826  1.0000
  C   C1773     1.0  0.90825  0.70094  0.69222  1.0000
  H   H1417     1.0  0.75282  0.57801  0.98916  1.0000
  C   C1774     1.0  0.68991  0.62263  0.74478  1.0000
  S   S252      1.0  0.66682  0.73189  0.70113  1.0000
  C   C1775     1.0  0.58414  0.70134  0.57234  1.0000
  H   H1418     1.0  0.66324  0.59059  0.67015  1.0000
  H   H1419     1.0  0.68748  0.57098  0.69737  1.0000
  H   H1420     1.0  0.70765  0.55559  0.64963  1.0000
  H   H1421     1.0  0.70335  0.55952  0.57478  1.0000
  H   H1422     1.0  0.65909  0.59510  0.59577  1.0000
  C   C1776     1.0  0.49583  0.52840  0.59463  1.0000
  P   P60       1.0  0.72316  0.68708  0.77566  1.0000
  C   C1777     1.0  0.49998  0.51194  0.61587  1.0000
  C   C1778     1.0  0.90901  0.55021  0.59159  1.0000
  S   S253      1.0  0.88317  0.61987  0.01177  1.0000
  C   C1779     1.0  0.56016  0.49921  0.89639  1.0000
  H   H1423     1.0  0.94129  0.52644  0.57959  1.0000
  H   H1424     1.0  0.81050  0.68304  0.55933  1.0000
  H   H1425     1.0  0.74025  0.71055  0.84519  1.0000
  H   H1426     1.0  0.59770  0.50515  0.80789  1.0000
  H   H1427     1.0  0.90919  0.70835  0.72004  1.0000
  C   C1780     1.0  0.52122  0.61256  0.56097  1.0000
  C   C1781     1.0  0.52931  0.60617  0.79574  1.0000
  C   C1782     1.0  0.54407  0.62538  0.79767  1.0000
  C   C1783     1.0  0.54365  0.63528  0.83302  1.0000
  P   P61       1.0  0.56184  0.66074  0.83333  1.0000
  C   C1784     1.0  0.55110  0.67320  0.87178  1.0000
  C   C1785     1.0  0.59044  0.66092  0.84307  1.0000
  C   C1786     1.0  0.60062  0.64880  0.82260  1.0000
  C   C1787     1.0  0.62283  0.64916  0.82970  1.0000
  C   C1788     1.0  0.63486  0.66123  0.85801  1.0000
  C   C1789     1.0  0.62503  0.67360  0.87792  1.0000
  C   C1790     1.0  0.60310  0.67375  0.86997  1.0000
  S   S254      1.0  0.73270  0.63783  0.97021  1.0000
  C   C1791     1.0  0.56084  0.67249  0.78242  1.0000
  C   C1792     1.0  0.58076  0.68224  0.75773  1.0000
  C   C1793     1.0  0.57955  0.68952  0.71699  1.0000
  C   C1794     1.0  0.55860  0.68773  0.70098  1.0000
  C   C1795     1.0  0.53867  0.67828  0.72558  1.0000
  C   C1796     1.0  0.53976  0.67054  0.76608  1.0000
  H   H1428     1.0  0.52981  0.59879  0.76813  1.0000
  H   H1429     1.0  0.55558  0.63258  0.77112  1.0000
  H   H1430     1.0  0.59169  0.63933  0.80055  1.0000
  H   H1431     1.0  0.63079  0.64021  0.81287  1.0000
  H   H1432     1.0  0.65203  0.66139  0.86380  1.0000
  H   H1433     1.0  0.63456  0.68338  0.89906  1.0000
  H   H1434     1.0  0.59629  0.68409  0.88459  1.0000
  H   H1435     1.0  0.54262  0.69460  0.82851  1.0000
  H   H1436     1.0  0.55792  0.69377  0.66958  1.0000
  H   H1437     1.0  0.52240  0.67684  0.71317  1.0000
  H   H1438     1.0  0.52418  0.66291  0.78462  1.0000
  C   C1797     1.0  0.92012  0.71145  0.65571  1.0000
  H   H1439     1.0  0.85113  0.55050  0.89180  1.0000
  H   H1440     1.0  0.78020  0.67780  0.90386  1.0000
  H   H1441     1.0  0.96652  0.50836  0.66946  1.0000
  H   H1442     1.0  0.60672  0.53820  0.97732  1.0000
  C   C1798     1.0  0.95470  0.49352  0.67657  1.0000
  C   C1799     1.0  0.63388  0.62984  0.60937  1.0000
  C   C1800     1.0  0.76397  0.66566  0.85078  1.0000
  C   C1801     1.0  0.96535  0.61805  0.53160  1.0000
  C   C1802     1.0  0.61901  0.63272  0.95629  1.0000
  C   C1803     1.0  0.58917  0.59849  0.90023  1.0000
  C   C1804     1.0  0.57275  0.59616  0.87108  1.0000
  C   C1805     1.0  0.57851  0.59483  0.82980  1.0000
  C   C1806     1.0  0.60069  0.59623  0.81708  1.0000
  C   C1807     1.0  0.61720  0.59893  0.84554  1.0000
  C   C1808     1.0  0.61145  0.59975  0.88696  1.0000
  C   C1809     1.0  0.70878  0.66228  0.76233  1.0000
  H   H1443     1.0  0.73740  0.70900  0.59083  1.0000
  H   H1444     1.0  0.62440  0.60086  0.90873  1.0000
  H   H1445     1.0  0.55546  0.59514  0.88001  1.0000
  H   H1446     1.0  0.56588  0.59271  0.80731  1.0000
  H   H1447     1.0  0.60506  0.59508  0.78518  1.0000
  H   H1448     1.0  0.63442  0.59995  0.83563  1.0000
  H   H1449     1.0  0.94168  0.67622  0.67407  1.0000
  C   C1810     1.0  0.71173  0.65701  0.72250  1.0000
  C   C1811     1.0  0.58290  0.67136  0.54009  1.0000
  C   C1812     1.0  0.55861  0.62426  0.60830  1.0000
  C   C1813     1.0  0.74448  0.72580  0.67091  1.0000
  C   C1814     1.0  0.94175  0.61091  0.53272  1.0000
  S   S255      1.0  0.60726  0.69284  0.97780  1.0000
  C   C1815     1.0  0.85817  0.71802  0.58277  1.0000
  H   H1450     1.0  0.66015  0.53896  0.56617  1.0000
  C   C1816     1.0  0.84670  0.58481  0.68042  1.0000
  C   C1817     1.0  0.70378  0.70046  0.79029  1.0000
  C   C1818     1.0  0.94625  0.58238  0.00160  1.0000
  H   H1451     1.0  0.60233  0.56696  0.93569  1.0000
  C   C1819     1.0  0.59684  0.54685  0.99018  1.0000
  H   H1452     1.0  0.53766  0.56749  0.95403  1.0000
  C   C1820     1.0  0.53412  0.69835  0.89061  1.0000
  C   C1821     1.0  0.90802  0.54151  0.55439  1.0000
  C   C1822     1.0  0.65198  0.64747  0.60725  1.0000
  C   C1823     1.0  0.51214  0.58093  0.97022  1.0000
  C   C1824     1.0  0.51173  0.50211  0.55129  1.0000
  H   H1453     1.0  0.49006  0.53871  0.61145  1.0000
  H   H1454     1.0  0.90807  0.67337  0.59474  1.0000
  C   C1825     1.0  0.53776  0.61199  0.62667  1.0000
  C   C1826     1.0  0.83531  0.63213  0.80986  1.0000
  C   C1827     1.0  0.84224  0.63901  0.84742  1.0000
  C   C1828     1.0  0.86147  0.63578  0.86359  1.0000
  C   C1829     1.0  0.87361  0.62540  0.84265  1.0000
  C   C1830     1.0  0.86676  0.61839  0.80486  1.0000
  C   C1831     1.0  0.84758  0.62197  0.78845  1.0000
  P   P62       1.0  0.88266  0.60481  0.77867  1.0000
  C   C1832     1.0  0.91240  0.61894  0.77667  1.0000
  C   C1833     1.0  0.87691  0.57981  0.80414  1.0000
  C   C1834     1.0  0.88254  0.56519  0.78325  1.0000
  C   C1835     1.0  0.87691  0.54547  0.80135  1.0000
  C   C1836     1.0  0.86530  0.54009  0.84022  1.0000
  C   C1837     1.0  0.85956  0.55449  0.86118  1.0000
  C   C1838     1.0  0.86541  0.57429  0.84335  1.0000
  C   C1839     1.0  0.91905  0.63988  0.77552  1.0000
  C   C1840     1.0  0.94201  0.65097  0.77159  1.0000
  C   C1841     1.0  0.55395  0.51425  0.83013  1.0000
  C   C1842     1.0  0.95202  0.62063  0.76792  1.0000
  C   C1843     1.0  0.92911  0.60943  0.77279  1.0000
  C   C1844     1.0  0.87444  0.60124  0.72676  1.0000
  C   C1845     1.0  0.85274  0.58877  0.72029  1.0000
  H   H1455     1.0  0.52228  0.62940  0.98917  1.0000
  H   H1456     1.0  0.64736  0.65913  0.95791  1.0000
  C   C1846     1.0  0.59273  0.49639  0.78231  1.0000
  C   C1847     1.0  0.89017  0.60915  0.69284  1.0000
  H   H1457     1.0  0.82018  0.63440  0.79773  1.0000
  H   H1458     1.0  0.88819  0.62257  0.85621  1.0000
  H   H1459     1.0  0.84189  0.61690  0.75942  1.0000
  H   H1460     1.0  0.89129  0.56900  0.75288  1.0000
  H   H1461     1.0  0.88174  0.53441  0.78533  1.0000
  H   H1462     1.0  0.86119  0.52486  0.85446  1.0000
  H   H1463     1.0  0.89667  0.61084  0.62720  1.0000
  H   H1464     1.0  0.86107  0.58513  0.86064  1.0000
  H   H1465     1.0  0.90658  0.64772  0.77705  1.0000
  H   H1466     1.0  0.94718  0.66712  0.77008  1.0000
  C   C1848     1.0  0.95663  0.63528  0.65298  1.0000
  C   C1849     1.0  0.63249  0.64884  0.97482  1.0000
  H   H1467     1.0  0.92463  0.59342  0.77303  1.0000
  H   H1468     1.0  0.84065  0.58186  0.74624  1.0000
  C   C1850     1.0  0.75008  0.66804  0.81928  1.0000
  H   H1469     1.0  0.56204  0.54767  0.90127  1.0000
  C   C1851     1.0  0.70234  0.63725  0.71384  1.0000
  H   H1470     1.0  0.90737  0.61786  0.69704  1.0000
  H   H1471     1.0  0.70364  0.66481  0.98498  1.0000
  C   C1852     1.0  0.63040  0.66481  0.56743  1.0000
  C   C1853     1.0  0.68664  0.62780  0.78429  1.0000
  H   H1472     1.0  0.49828  0.56725  0.96995  1.0000
  H   H1473     1.0  0.66423  0.67868  0.58458  1.0000
  C   C1854     1.0  0.96930  0.51833  0.55476  1.0000
  C   C1855     1.0  0.76343  0.70361  0.72574  1.0000
  H   H1474     1.0  0.56133  0.63008  0.97226  1.0000
  H   H1475     1.0  0.88869  0.69381  0.55588  1.0000
  C   C1856     1.0  0.57971  0.73754  0.81673  1.0000
  H   H1476     1.0  0.92209  0.56391  0.59560  1.0000
  S   S256      1.0  0.70740  0.58928  0.97599  1.0000
  H   H1477     1.0  0.93248  0.69682  0.79124  1.0000
  C   C1857     1.0  0.58296  0.57568  0.98337  1.0000
  P   P63       1.0  0.58141  0.59834  0.95448  1.0000
  H   H1478     1.0  0.92637  0.64380  0.64564  1.0000
  H   H1479     1.0  0.84404  0.62065  0.95933  1.0000
  Fe  Fe128     1.0  0.90862  0.61860  0.96198  1.0000
  H   H1480     1.0  0.55417  0.54490  0.82806  1.0000
  C   C1858     1.0  0.74717  0.69829  0.84532  1.0000
  C   C1859     1.0  0.89110  0.52344  0.55093  1.0000
  C   C1860     1.0  0.69545  0.67595  0.97650  1.0000
  C   C1861     1.0  0.55251  0.59870  0.96243  1.0000
  H   H1481     1.0  0.67696  0.61652  0.80830  1.0000
  C   C1862     1.0  0.74042  0.70213  0.73163  1.0000
  C   C1863     1.0  0.52830  0.62544  0.86658  1.0000
  H   H1482     1.0  0.59726  0.68402  0.76942  1.0000
  H   H1483     1.0  0.59497  0.69672  0.69783  1.0000
  C   C1864     1.0  0.89554  0.67097  0.65779  1.0000
  H   H1484     1.0  0.55958  0.51450  0.55962  1.0000
  C   C1865     1.0  0.61632  0.72735  0.78331  1.0000
  H   H1485     1.0  0.86667  0.64096  0.89291  1.0000
  Fe  Fe129     1.0  0.88713  0.65051  0.98154  1.0000
  S   S257      1.0  0.85791  0.66293  0.97186  1.0000
  C   C1866     1.0  0.51415  0.59651  0.82925  1.0000
  C   C1867     1.0  0.53456  0.69214  0.93229  1.0000
  C   C1868     1.0  0.55202  0.66747  0.91377  1.0000
  C   C1869     1.0  0.61387  0.62968  0.59087  1.0000
  C   C1870     1.0  0.94456  0.71165  0.84486  1.0000
  C   C1871     1.0  0.74144  0.68436  0.81631  1.0000
  C   C1872     1.0  0.87553  0.51415  0.58430  1.0000
  H   H1486     1.0  0.52715  0.63262  0.89398  1.0000
  C   C1873     1.0  0.59448  0.56351  0.96655  1.0000
  C   C1874     1.0  0.51363  0.60615  0.86463  1.0000
  C   C1875     1.0  0.54359  0.67675  0.94387  1.0000
  H   H1487     1.0  0.50274  0.58161  0.82763  1.0000
  C   C1876     1.0  0.60740  0.50057  0.74685  1.0000
  H   H1488     1.0  0.87156  0.71993  0.60379  1.0000
  S   S258      1.0  0.93844  0.63069  0.99889  1.0000
  Fe  Fe130     1.0  0.63630  0.73204  0.66740  1.0000
  H   H1489     1.0  0.54454  0.67233  0.97622  1.0000
  H   H1490     1.0  0.77108  0.69526  0.74685  1.0000
  Fe  Fe131     1.0  0.94811  0.54228  0.68742  1.0000
  H   H1491     1.0  0.72605  0.59310  0.53803  1.0000
  H   H1492     1.0  0.95124  0.72291  0.90421  1.0000
  C   C1877     1.0  0.90756  0.68140  0.62136  1.0000
  C   C1878     1.0  0.66555  0.70247  0.80077  1.0000
  C   C1879     1.0  0.89590  0.68073  0.69323  1.0000
  C   C1880     1.0  0.53445  0.58112  0.96120  1.0000
  H   H1493     1.0  0.62372  0.63140  0.92492  1.0000
  C   C1881     1.0  0.58700  0.68240  0.57418  1.0000
  H   H1494     1.0  0.82998  0.57509  0.67569  1.0000
  C   C1882     1.0  0.52557  0.61595  0.98073  1.0000
  H   H1495     1.0  0.76544  0.69480  0.56050  1.0000
  H   H1496     1.0  0.59218  0.51156  0.59681  1.0000
  H   H1497     1.0  0.50165  0.59877  0.89039  1.0000
  S   S259      1.0  0.96375  0.56244  0.62972  1.0000
  C   C1883     1.0  0.50774  0.49875  0.59432  1.0000
  C   C1884     1.0  0.67605  0.69910  0.99641  1.0000
  H   H1498     1.0  0.69369  0.65120  0.82393  1.0000
  C   C1885     1.0  0.74986  0.71780  0.56679  1.0000
  C   C1886     1.0  0.59386  0.73127  0.84345  1.0000
  C   C1887     1.0  0.56111  0.63017  0.56576  1.0000
  C   C1888     1.0  0.89705  0.70424  0.52977  1.0000
  C   C1889     1.0  0.71227  0.72095  0.79494  1.0000
  P   P64       1.0  0.93653  0.71455  0.57337  1.0000
  H   H1499     1.0  0.50295  0.59658  0.61734  1.0000
  H   H1500     1.0  0.66723  0.64769  0.62250  1.0000
  H   H1501     1.0  0.63123  0.58874  0.00008  1.0000
  C   C1890     1.0  0.93091  0.59102  0.52672  1.0000
  H   H1502     1.0  0.97107  0.51025  0.58358  1.0000
  H   H1503     1.0  0.49050  0.59808  0.98817  1.0000
  H   H1504     1.0  0.94312  0.56838  0.94532  1.0000
  C   C1891     1.0  0.54218  0.62445  0.54230  1.0000
  C   C1892     1.0  0.61190  0.64732  0.57017  1.0000
  H   H1505     1.0  0.70001  0.72163  0.52824  1.0000
  C   C1893     1.0  0.59386  0.62256  0.01806  1.0000
  H   H1506     1.0  0.49738  0.50952  0.64915  1.0000
  C   C1894     1.0  0.93179  0.49108  0.68595  1.0000
  C   C1895     1.0  0.51908  0.60609  0.60302  1.0000
  C   C1896     1.0  0.56204  0.49997  0.56529  1.0000
  Fe  Fe132     1.0  0.63107  0.71221  0.01825  1.0000
  S   S260      1.0  0.91551  0.66592  0.01936  1.0000
  C   C1897     1.0  0.63301  0.52316  0.53202  1.0000
  C   C1898     1.0  0.58045  0.49828  0.58692  1.0000
  C   C1899     1.0  0.76563  0.70975  0.54927  1.0000
  C   C1900     1.0  0.82385  0.69719  0.55711  1.0000
  H   H1507     1.0  0.66288  0.73115  0.81349  1.0000
  H   H1508     1.0  0.79463  0.71737  0.68840  1.0000
  H   H1509     1.0  0.93028  0.72682  0.65618  1.0000
  H   H1510     1.0  0.54632  0.49182  0.68418  1.0000
  C   C1901     1.0  0.95130  0.68814  0.52910  1.0000
  C   C1902     1.0  0.65023  0.54012  0.54020  1.0000
  H   H1511     1.0  0.91259  0.58564  0.52917  1.0000
  C   C1903     1.0  0.96895  0.73514  0.77021  1.0000
  H   H1512     1.0  0.57459  0.72392  0.53542  1.0000
  S   S261      1.0  0.60700  0.73783  0.70225  1.0000
  C   C1904     1.0  0.77684  0.71614  0.69263  1.0000
  H   H1513     1.0  0.79043  0.68396  0.02075  1.0000
  C   C1905     1.0  0.55601  0.49761  0.85467  1.0000
  H   H1514     1.0  0.96736  0.69786  0.01678  1.0000
  C   C1906     1.0  0.49961  0.53177  0.55182  1.0000
  C   C1907     1.0  0.58372  0.73874  0.77398  1.0000
  C   C1908     1.0  0.75080  0.57754  0.02236  1.0000
  C   C1909     1.0  0.76741  0.72737  0.66545  1.0000
  H   H1515     1.0  0.77928  0.60360  0.02481  1.0000
  C   C1910     1.0  0.84082  0.73132  0.52658  1.0000
  C   C1911     1.0  0.95200  0.74018  0.57991  1.0000
  C   C1912     1.0  0.85805  0.73380  0.55385  1.0000
  H   H1516     1.0  0.77785  0.73735  0.64022  1.0000
  H   H1517     1.0  0.73716  0.73469  0.65025  1.0000
  C   C1913     1.0  0.82389  0.71285  0.52741  1.0000
  C   C1914     1.0  0.50798  0.51893  0.53032  1.0000
  H   H1518     1.0  0.49669  0.54467  0.53530  1.0000
  H   H1519     1.0  0.63394  0.58937  0.52820  1.0000
  H   H1520     1.0  0.51971  0.94302  0.32920  1.0000
  Fe  Fe133     1.0  0.64114  0.89215  0.08711  1.0000
  C   C1915     1.0  0.53441  0.95592  0.45131  1.0000
  S   S262      1.0  0.64899  0.90003  0.15258  1.0000
  H   H1521     1.0  0.56023  0.88138  0.49832  1.0000
  C   C1916     1.0  0.48243  0.97304  0.34107  1.0000
  H   H1522     1.0  0.83054  0.74100  0.32725  1.0000
  H   H1523     1.0  0.48015  0.97612  0.37250  1.0000
  C   C1917     1.0  0.58509  0.92856  0.52315  1.0000
  H   H1524     1.0  0.49819  0.92629  0.17204  1.0000
  H   H1525     1.0  0.49267  0.91012  0.51664  1.0000
  S   S263      1.0  0.56956  0.95679  0.36272  1.0000
  C   C1918     1.0  0.51512  0.92749  0.34156  1.0000
  C   C1919     1.0  0.49615  0.93578  0.47370  1.0000
  H   H1526     1.0  0.49018  0.96214  0.22827  1.0000
  H   H1527     1.0  0.54629  0.92389  0.31841  1.0000
  Fe  Fe134     1.0  0.59183  0.96020  0.30452  1.0000
  S   S264      1.0  0.58554  0.93465  0.26360  1.0000
  Fe  Fe135     1.0  0.59931  0.97787  0.38826  1.0000
  S   S265      1.0  0.60690  0.97237  0.45479  1.0000
  H   H1528     1.0  0.54596  0.96884  0.43301  1.0000
  C   C1920     1.0  0.59894  0.95329  0.08766  1.0000
  H   H1529     1.0  0.78389  0.96943  0.29067  1.0000
  C   C1921     1.0  0.54919  0.88441  0.08086  1.0000
  C   C1922     1.0  0.50715  0.97243  0.28235  1.0000
  C   C1923     1.0  0.48848  0.89836  0.37959  1.0000
  H   H1530     1.0  0.48251  0.92691  0.36755  1.0000
  C   C1924     1.0  0.53028  0.91667  0.33588  1.0000
  H   H1531     1.0  0.69177  0.75577  0.25852  1.0000
  H   H1532     1.0  0.49322  0.85525  0.45572  1.0000
  H   H1533     1.0  0.76507  0.82143  0.15030  1.0000
  C   C1925     1.0  0.61158  0.97364  0.08204  1.0000
  C   C1926     1.0  0.68160  0.89911  0.28209  1.0000
  C   C1927     1.0  0.52907  0.93473  0.13259  1.0000
  H   H1534     1.0  0.76572  0.76339  0.51096  1.0000
  S   S266      1.0  0.62266  0.97865  0.33303  1.0000
  C   C1928     1.0  0.63146  0.91053  0.18181  1.0000
  C   C1929     1.0  0.64095  0.92371  0.21080  1.0000
  C   C1930     1.0  0.62727  0.93159  0.23554  1.0000
  C   C1931     1.0  0.60394  0.92642  0.23147  1.0000
  C   C1932     1.0  0.59453  0.91355  0.20204  1.0000
  C   C1933     1.0  0.60811  0.90551  0.17764  1.0000
  H   H1535     1.0  0.65897  0.92796  0.21391  1.0000
  H   H1536     1.0  0.63467  0.94144  0.25802  1.0000
  H   H1537     1.0  0.57661  0.90977  0.19814  1.0000
  H   H1538     1.0  0.60047  0.89523  0.15590  1.0000
  P   P65       1.0  0.56879  0.94534  0.08151  1.0000
  C   C1934     1.0  0.56128  0.92057  0.06448  1.0000
  C   C1935     1.0  0.69867  0.93499  0.27728  1.0000
  C   C1936     1.0  0.65086  0.75324  0.15114  1.0000
  C   C1937     1.0  0.50373  0.88750  0.37410  1.0000
  H   H1539     1.0  0.68898  0.74530  0.33341  1.0000
  H   H1540     1.0  0.70586  0.94907  0.25822  1.0000
  C   C1938     1.0  0.54152  0.84165  0.44413  1.0000
  C   C1939     1.0  0.50457  0.92292  0.49880  1.0000
  C   C1940     1.0  0.51281  0.87882  0.48914  1.0000
  H   H1541     1.0  0.62608  0.96891  0.19760  1.0000
  H   H1542     1.0  0.71951  0.76821  0.11170  1.0000
  C   C1941     1.0  0.63508  0.98363  0.18249  1.0000
  H   H1543     1.0  0.70393  0.98347  0.52309  1.0000
  C   C1942     1.0  0.75433  0.80612  0.15749  1.0000
  C   C1943     1.0  0.48805  0.96502  0.25987  1.0000
  C   C1944     1.0  0.55353  0.90357  0.09343  1.0000
  C   C1945     1.0  0.63375  0.94492  0.09704  1.0000
  C   C1946     1.0  0.61016  0.93909  0.09660  1.0000
  C   C1947     1.0  0.56325  0.95221  0.16372  1.0000
  C   C1948     1.0  0.55041  0.95104  0.20055  1.0000
  C   C1949     1.0  0.52705  0.94163  0.20362  1.0000
  H   H1544     1.0  0.64239  0.93380  0.10242  1.0000
  H   H1545     1.0  0.60079  0.92345  0.10206  1.0000
  H   H1546     1.0  0.58143  0.95907  0.16255  1.0000
  H   H1547     1.0  0.55867  0.95704  0.22713  1.0000
  H   H1548     1.0  0.51731  0.94051  0.23253  1.0000
  C   C1950     1.0  0.49423  0.91840  0.36345  1.0000
  H   H1549     1.0  0.66509  0.94451  0.50892  1.0000
  C   C1951     1.0  0.78225  0.98316  0.34646  1.0000
  C   C1952     1.0  0.72855  0.77607  0.13594  1.0000
  H   H1550     1.0  0.66498  0.98118  0.51002  1.0000
  C   C1953     1.0  0.66320  0.95629  0.44628  1.0000
  H   H1551     1.0  0.51684  0.88985  0.46242  1.0000
  H   H1552     1.0  0.56105  0.94619  0.47594  1.0000
  H   H1553     1.0  0.63071  0.91393  0.49653  1.0000
  C   C1954     1.0  0.70106  0.94417  0.42785  1.0000
  C   C1955     1.0  0.61313  0.91331  0.50141  1.0000
  H   H1554     1.0  0.54982  0.84074  0.47249  1.0000
  H   H1555     1.0  0.55164  0.90508  0.12594  1.0000
  C   C1956     1.0  0.52433  0.82510  0.43415  1.0000
  C   C1957     1.0  0.54292  0.94303  0.47614  1.0000
  P   P66       1.0  0.70828  0.74107  0.18719  1.0000
  S   S267      1.0  0.60695  0.89063  0.06549  1.0000
  H   H1556     1.0  0.47213  0.89127  0.39614  1.0000
  H   H1557     1.0  0.53405  0.96646  0.07643  1.0000
  C   C1958     1.0  0.64631  0.96502  0.08919  1.0000
  H   H1558     1.0  0.52402  0.97514  0.26828  1.0000
  H   H1559     1.0  0.67131  0.88426  0.34334  1.0000
  C   C1959     1.0  0.75799  0.98624  0.49499  1.0000
  C   C1960     1.0  0.69502  0.97551  0.31340  1.0000
  C   C1961     1.0  0.73502  0.96709  0.34546  1.0000
  C   C1962     1.0  0.67396  0.96942  0.29635  1.0000
  H   H1560     1.0  0.61383  0.79457  0.11319  1.0000
  H   H1561     1.0  0.66744  0.97818  0.17934  1.0000
  H   H1562     1.0  0.69335  0.91786  0.22503  1.0000
  H   H1563     1.0  0.74401  0.80310  0.09563  1.0000
  H   H1564     1.0  0.73393  0.98225  0.40016  1.0000
  C   C1963     1.0  0.73856  0.77691  0.20684  1.0000
  C   C1964     1.0  0.78135  0.74031  0.50362  1.0000
  H   H1565     1.0  0.47804  0.93299  0.47248  1.0000
  C   C1965     1.0  0.51107  0.95226  0.44992  1.0000
  S   S268      1.0  0.59599  0.75492  0.09009  1.0000
  C   C1966     1.0  0.74939  0.96372  0.31452  1.0000
  H   H1566     1.0  0.66332  0.95405  0.30191  1.0000
  C   C1967     1.0  0.71955  0.97978  0.52258  1.0000
  H   H1567     1.0  0.54372  0.87140  0.10336  1.0000
  H   H1568     1.0  0.51934  0.81136  0.45473  1.0000
  C   C1968     1.0  0.54812  0.85934  0.41748  1.0000
  C   C1969     1.0  0.53758  0.86059  0.38051  1.0000
  C   C1970     1.0  0.52028  0.84391  0.37077  1.0000
  P   P67       1.0  0.54542  0.88345  0.34615  1.0000
  C   C1971     1.0  0.57275  0.89936  0.35834  1.0000
  C   C1972     1.0  0.54674  0.87695  0.29399  1.0000
  C   C1973     1.0  0.55762  0.86289  0.28474  1.0000
  C   C1974     1.0  0.55875  0.85769  0.24458  1.0000
  C   C1975     1.0  0.54865  0.86617  0.21351  1.0000
  C   C1976     1.0  0.53743  0.87989  0.22258  1.0000
  C   C1977     1.0  0.53665  0.88543  0.26252  1.0000
  C   C1978     1.0  0.57413  0.91075  0.39184  1.0000
  C   C1979     1.0  0.59510  0.92304  0.40180  1.0000
  C   C1980     1.0  0.61485  0.92408  0.37854  1.0000
  C   C1981     1.0  0.61370  0.91278  0.34528  1.0000
  C   C1982     1.0  0.59276  0.90044  0.33519  1.0000
  C   C1983     1.0  0.52490  0.89670  0.35254  1.0000
  C   C1984     1.0  0.69156  0.91736  0.25833  1.0000
  H   H1569     1.0  0.48423  0.82963  0.51596  1.0000
  H   H1570     1.0  0.56157  0.87187  0.42574  1.0000
  H   H1571     1.0  0.51189  0.84459  0.34245  1.0000
  H   H1572     1.0  0.56559  0.85621  0.30844  1.0000
  H   H1573     1.0  0.56769  0.84724  0.23738  1.0000
  H   H1574     1.0  0.54981  0.86228  0.18234  1.0000
  H   H1575     1.0  0.52984  0.88668  0.19843  1.0000
  H   H1576     1.0  0.52837  0.89646  0.26838  1.0000
  H   H1577     1.0  0.55900  0.91038  0.40999  1.0000
  H   H1578     1.0  0.59601  0.93213  0.42712  1.0000
  H   H1579     1.0  0.63097  0.93389  0.38592  1.0000
  H   H1580     1.0  0.62895  0.91392  0.32658  1.0000
  H   H1581     1.0  0.59234  0.89243  0.30843  1.0000
  H   H1582     1.0  0.49886  0.87202  0.38652  1.0000
  H   H1583     1.0  0.69867  0.93387  0.49251  1.0000
  C   C1985     1.0  0.60066  0.81362  0.07282  1.0000
  H   H1584     1.0  0.68433  0.77046  0.16286  1.0000
  C   C1986     1.0  0.75247  0.79664  0.19747  1.0000
  C   C1987     1.0  0.69623  0.93446  0.32035  1.0000
  C   C1988     1.0  0.72618  0.76660  0.17625  1.0000
  H   H1585     1.0  0.67574  0.88555  0.26713  1.0000
  C   C1989     1.0  0.49954  0.85926  0.48515  1.0000
  C   C1990     1.0  0.60358  0.79529  0.08744  1.0000
  C   C1991     1.0  0.74245  0.79580  0.12670  1.0000
  H   H1586     1.0  0.50044  0.81339  0.38965  1.0000
  C   C1992     1.0  0.68634  0.91601  0.34406  1.0000
  P   P68       1.0  0.70459  0.95751  0.34422  1.0000
  H   H1587     1.0  0.68401  0.91508  0.37721  1.0000
  C   C1993     1.0  0.67904  0.89843  0.32493  1.0000
  H   H1588     1.0  0.66588  0.96751  0.38264  1.0000
  C   C1994     1.0  0.69697  0.74299  0.26950  1.0000
  H   H1589     1.0  0.60860  0.82688  0.08743  1.0000
  H   H1590     1.0  0.50456  0.96215  0.43021  1.0000
  C   C1995     1.0  0.74456  0.97880  0.37663  1.0000
  H   H1591     1.0  0.76188  0.80460  0.22122  1.0000
  H   H1592     1.0  0.71583  0.93949  0.42130  1.0000
  C   C1996     1.0  0.59324  0.77790  0.06905  1.0000
  C   C1997     1.0  0.63522  0.97938  0.08221  1.0000
  C   C1998     1.0  0.69202  0.95371  0.39639  1.0000
  H   H1593     1.0  0.60018  0.88350  0.48434  1.0000
  C   C1999     1.0  0.55262  0.94415  0.12937  1.0000
  C   C2000     1.0  0.51371  0.82624  0.39750  1.0000
  C   C2001     1.0  0.51635  0.93353  0.16959  1.0000
  C   C2002     1.0  0.67240  0.94690  0.47743  1.0000
  C   C2003     1.0  0.69131  0.94085  0.46818  1.0000
  C   C2004     1.0  0.57319  0.89507  0.50255  1.0000
  H   H1594     1.0  0.52059  0.92828  0.10648  1.0000
  S   S269      1.0  0.64363  0.86543  0.05549  1.0000
  H   H1595     1.0  0.73773  0.76979  0.23782  1.0000
  H   H1596     1.0  0.74258  0.95520  0.28959  1.0000
  C   C2005     1.0  0.59588  0.89613  0.49474  1.0000
  C   C2006     1.0  0.67304  0.95983  0.40596  1.0000
  C   C2007     1.0  0.60773  0.92955  0.51535  1.0000
  C   C2008     1.0  0.52806  0.92643  0.50040  1.0000
  C   C2009     1.0  0.56760  0.91130  0.51697  1.0000
  H   H1597     1.0  0.64563  0.76620  0.14157  1.0000
  C   C2010     1.0  0.75983  0.97013  0.52207  1.0000
  H   H1598     1.0  0.62112  0.94280  0.52105  1.0000
  C   C2011     1.0  0.59986  0.98734  0.49058  1.0000
  H   H1599     1.0  0.64862  0.96116  0.45342  1.0000
  C   C2012     1.0  0.67286  0.75551  0.16278  1.0000
  H   H1600     1.0  0.66466  0.96945  0.08817  1.0000
  C   C2013     1.0  0.55320  0.88204  0.03955  1.0000
  C   C2014     1.0  0.77291  0.97178  0.31502  1.0000
  C   C2015     1.0  0.66635  0.98323  0.27250  1.0000
  Fe  Fe136     1.0  0.56210  0.98426  0.33670  1.0000
  S   S270      1.0  0.66049  0.91362  0.03367  1.0000
  H   H1601     1.0  0.77555  0.96647  0.52194  1.0000
  C   C2016     1.0  0.50429  0.97667  0.32288  1.0000
  H   H1602     1.0  0.65003  0.97850  0.25976  1.0000
  H   H1603     1.0  0.79349  0.74930  0.47940  1.0000
  C   C2017     1.0  0.47839  0.98706  0.50069  1.0000
  H   H1604     1.0  0.64869  0.74806  0.34954  1.0000
  C   C2018     1.0  0.76807  0.98655  0.37733  1.0000
  C   C2019     1.0  0.54541  0.97105  0.04899  1.0000
  C   C2020     1.0  0.57980  0.77891  0.03605  1.0000
  S   S271      1.0  0.58206  0.98651  0.27704  1.0000
  H   H1605     1.0  0.84073  0.74379  0.50478  1.0000
  H   H1606     1.0  0.53892  0.98572  0.50783  1.0000
  C   C2021     1.0  0.49452  0.84478  0.51910  1.0000
  S   S272      1.0  0.52742  0.98668  0.35205  1.0000
  C   C2022     1.0  0.58675  0.81458  0.04058  1.0000
  C   C2023     1.0  0.56328  0.96300  0.04283  1.0000
  H   H1607     1.0  0.60336  0.98500  0.07608  1.0000
  H   H1608     1.0  0.57162  0.74199  0.24777  1.0000
  C   C2024     1.0  0.76574  0.74840  0.52158  1.0000
  H   H1609     1.0  0.80045  0.98959  0.34661  1.0000
  C   C2025     1.0  0.65836  0.98884  0.17215  1.0000
  H   H1610     1.0  0.55098  0.86723  0.03025  1.0000
  Fe  Fe137     1.0  0.61034  0.86541  0.03098  1.0000
  Fe  Fe138     1.0  0.65875  0.88713  0.99913  1.0000
  S   S273      1.0  0.62547  0.88564  0.97344  1.0000
  S   S274      1.0  0.68521  0.88426  0.95185  1.0000
  S   S275      1.0  0.61996  0.93942  0.98573  1.0000
  Fe  Fe139     1.0  0.71371  0.92201  0.62803  1.0000
  S   S276      1.0  0.68494  0.89889  0.60378  1.0000
  S   S277      1.0  0.74451  0.93947  0.58520  1.0000
  Fe  Fe140     1.0  0.68886  0.91738  0.71332  1.0000
  S   S278      1.0  0.65835  0.89466  0.69421  1.0000
  S   S279      1.0  0.68543  0.92963  0.77420  1.0000
  Fe  Fe141     1.0  0.68308  0.88124  0.66558  1.0000
  S   S280      1.0  0.66994  0.84768  0.68206  1.0000
  Fe  Fe142     1.0  0.66319  0.91429  0.63503  1.0000
  S   S281      1.0  0.63577  0.92405  0.60489  1.0000
  S   S282      1.0  0.71375  0.90311  0.68808  1.0000
  S   S283      1.0  0.69186  0.93824  0.65583  1.0000
  H   H1611     1.0  0.63534  0.96441  0.86962  1.0000
  S   S284      1.0  0.71369  0.77957  0.64711  1.0000
  C   C2026     1.0  0.96570  0.75704  0.69588  1.0000
  H   H1612     1.0  0.49904  0.83855  0.58339  1.0000
  H   H1613     1.0  0.52618  0.97289  0.87571  1.0000
  H   H1614     1.0  0.53360  0.90067  0.90264  1.0000
  H   H1615     1.0  0.96464  0.76557  0.66734  1.0000
  C   C2027     1.0  0.62330  0.93566  0.64021  1.0000
  C   C2028     1.0  0.60847  0.94617  0.62725  1.0000
  C   C2029     1.0  0.59792  0.95482  0.65590  1.0000
  C   C2030     1.0  0.62807  0.93439  0.68161  1.0000
  H   H1616     1.0  0.60506  0.94753  0.59521  1.0000
  H   H1617     1.0  0.58631  0.96274  0.64589  1.0000
  H   H1618     1.0  0.64002  0.92693  0.69178  1.0000
  C   C2031     1.0  0.68279  0.82952  0.66995  1.0000
  C   C2032     1.0  0.66975  0.80939  0.67719  1.0000
  C   C2033     1.0  0.67913  0.79422  0.66935  1.0000
  C   C2034     1.0  0.70187  0.79894  0.65523  1.0000
  C   C2035     1.0  0.71510  0.81910  0.64827  1.0000
  C   C2036     1.0  0.70550  0.83441  0.65513  1.0000
  H   H1619     1.0  0.65227  0.80545  0.68901  1.0000
  H   H1620     1.0  0.66881  0.77880  0.67543  1.0000
  H   H1621     1.0  0.73269  0.82288  0.63720  1.0000
  H   H1622     1.0  0.71565  0.84991  0.64928  1.0000
  H   H1623     1.0  0.63880  0.77204  0.91633  1.0000
  S   S285      1.0  0.65543  0.75200  0.61164  1.0000
  H   H1624     1.0  0.93850  0.74161  0.79068  1.0000
  C   C2037     1.0  0.51869  0.96932  0.62280  1.0000
  C   C2038     1.0  0.68532  0.89680  0.90223  1.0000
  C   C2039     1.0  0.69774  0.89319  0.86846  1.0000
  C   C2040     1.0  0.69740  0.90264  0.82871  1.0000
  C   C2041     1.0  0.68517  0.91628  0.82273  1.0000
  C   C2042     1.0  0.67337  0.92035  0.85667  1.0000
  C   C2043     1.0  0.67311  0.91041  0.89600  1.0000
  H   H1625     1.0  0.70752  0.88298  0.87287  1.0000
  H   H1626     1.0  0.70683  0.89960  0.80288  1.0000
  H   H1627     1.0  0.66442  0.93129  0.85257  1.0000
  H   H1628     1.0  0.66376  0.91355  0.92168  1.0000
  H   H1629     1.0  0.71063  0.98278  0.88786  1.0000
  H   H1630     1.0  0.72177  0.95204  0.89555  1.0000
  C   C2044     1.0  0.51604  0.86935  0.56127  1.0000
  C   C2045     1.0  0.64616  0.95848  0.97916  1.0000
  C   C2046     1.0  0.66600  0.95407  0.96845  1.0000
  H   H1631     1.0  0.50206  0.90115  0.02162  1.0000
  C   C2047     1.0  0.64726  0.78152  0.79434  1.0000
  C   C2048     1.0  0.66180  0.77461  0.77025  1.0000
  C   C2049     1.0  0.68504  0.78474  0.76640  1.0000
  C   C2050     1.0  0.69367  0.80208  0.78579  1.0000
  C   C2051     1.0  0.67901  0.80954  0.80879  1.0000
  C   C2052     1.0  0.65592  0.79881  0.81385  1.0000
  P   P69       1.0  0.68989  0.83133  0.83581  1.0000
  C   C2053     1.0  0.69593  0.82341  0.88728  1.0000
  C   C2054     1.0  0.71481  0.84837  0.80718  1.0000
  C   C2055     1.0  0.73266  0.86027  0.82756  1.0000
  C   C2056     1.0  0.75117  0.87428  0.80504  1.0000
  C   C2057     1.0  0.75206  0.87649  0.76203  1.0000
  C   C2058     1.0  0.73449  0.86462  0.74151  1.0000
  C   C2059     1.0  0.71594  0.85067  0.76390  1.0000
  C   C2060     1.0  0.69978  0.83671  0.91769  1.0000
  C   C2061     1.0  0.70298  0.83029  0.95804  1.0000
  C   C2062     1.0  0.73282  0.95413  0.83153  1.0000
  C   C2063     1.0  0.69910  0.79727  0.93834  1.0000
  C   C2064     1.0  0.69576  0.80363  0.89796  1.0000
  C   C2065     1.0  0.66913  0.84469  0.83800  1.0000
  C   C2066     1.0  0.65658  0.84428  0.87503  1.0000
  C   C2067     1.0  0.64249  0.85634  0.87767  1.0000
  C   C2068     1.0  0.64029  0.86853  0.84312  1.0000
  C   C2069     1.0  0.65168  0.86824  0.80561  1.0000
  C   C2070     1.0  0.66602  0.85638  0.80293  1.0000
  H   H1632     1.0  0.62925  0.77360  0.79742  1.0000
  H   H1633     1.0  0.65500  0.76160  0.75406  1.0000
  H   H1634     1.0  0.69626  0.77946  0.74725  1.0000
  H   H1635     1.0  0.71171  0.80972  0.78235  1.0000
  H   H1636     1.0  0.64469  0.80394  0.83277  1.0000
  H   H1637     1.0  0.73226  0.85908  0.86075  1.0000
  H   H1638     1.0  0.76468  0.88364  0.82099  1.0000
  H   H1639     1.0  0.76624  0.88751  0.74456  1.0000
  H   H1640     1.0  0.73497  0.86645  0.70817  1.0000
  H   H1641     1.0  0.70227  0.84196  0.74727  1.0000
  H   H1642     1.0  0.69960  0.85193  0.91069  1.0000
  H   H1643     1.0  0.51266  0.93812  0.01104  1.0000
  C   C2071     1.0  0.61522  0.78757  0.89792  1.0000
  C   C2072     1.0  0.54423  0.97045  0.56417  1.0000
  H   H1644     1.0  0.69277  0.79295  0.87544  1.0000
  H   H1645     1.0  0.65803  0.83514  0.90235  1.0000
  H   H1646     1.0  0.63393  0.85680  0.90696  1.0000
  H   H1647     1.0  0.63017  0.87850  0.84562  1.0000
  H   H1648     1.0  0.65016  0.87787  0.77897  1.0000
  H   H1649     1.0  0.67494  0.85680  0.77360  1.0000
  C   C2073     1.0  0.60543  0.92417  0.88376  1.0000
  C   C2074     1.0  0.58730  0.93157  0.89162  1.0000
  H   H1650     1.0  0.54729  0.95800  0.62528  1.0000
  P   P70       1.0  0.54935  0.94280  0.87121  1.0000
  C   C2075     1.0  0.55976  0.96956  0.87264  1.0000
  C   C2076     1.0  0.50282  0.84981  0.55709  1.0000
  S   S286      1.0  0.58190  0.83730  0.02334  1.0000
  C   C2077     1.0  0.74152  0.95892  0.54973  1.0000
  C   C2078     1.0  0.62854  0.80949  0.96460  1.0000
  H   H1651     1.0  0.94225  0.78467  0.59018  1.0000
  C   C2079     1.0  0.53014  0.93894  0.83028  1.0000
  C   C2080     1.0  0.57227  0.93261  0.86104  1.0000
  H   H1652     1.0  0.53113  0.92015  0.70265  1.0000
  C   C2081     1.0  0.58315  0.84466  0.84640  1.0000
  H   H1653     1.0  0.61728  0.92375  0.90712  1.0000
  H   H1654     1.0  0.58531  0.93682  0.92128  1.0000
  C   C2082     1.0  0.60311  0.80044  0.74074  1.0000
  C   C2083     1.0  0.58035  0.86331  0.85096  1.0000
  C   C2084     1.0  0.64743  0.97807  0.98578  1.0000
  H   H1655     1.0  0.47841  0.90974  0.80635  1.0000
  H   H1656     1.0  0.55185  0.96382  0.78956  1.0000
  H   H1657     1.0  0.47925  0.96731  0.73146  1.0000
  H   H1658     1.0  0.60965  0.77837  0.87318  1.0000
  C   C2085     1.0  0.55190  0.91484  0.65347  1.0000
  C   C2086     1.0  0.53241  0.91799  0.67031  1.0000
  C   C2087     1.0  0.51479  0.91854  0.64535  1.0000
  C   C2088     1.0  0.51690  0.91640  0.60331  1.0000
  C   C2089     1.0  0.53666  0.91363  0.58587  1.0000
  C   C2090     1.0  0.55397  0.91245  0.61163  1.0000
  C   C2091     1.0  0.51105  0.90916  0.99309  1.0000
  C   C2092     1.0  0.71982  0.98900  0.82231  1.0000
  C   C2093     1.0  0.56501  0.91798  0.02299  1.0000
  C   C2094     1.0  0.95159  0.77412  0.58674  1.0000
  H   H1659     1.0  0.63312  0.82467  0.74799  1.0000
  C   C2095     1.0  0.50077  0.93409  0.76601  1.0000
  C   C2096     1.0  0.58306  0.97989  0.86825  1.0000
  C   C2097     1.0  0.78983  0.98193  0.61705  1.0000
  H   H1660     1.0  0.53336  0.95643  0.94669  1.0000
  H   H1661     1.0  0.50074  0.74516  0.93398  1.0000
  P   P71       1.0  0.58277  0.80576  0.87574  1.0000
  H   H1662     1.0  0.65357  0.96656  0.58226  1.0000
  C   C2098     1.0  0.61227  0.81345  0.93968  1.0000
  C   C2099     1.0  0.53285  0.98102  0.53966  1.0000
  H   H1663     1.0  0.59624  0.91367  0.78528  1.0000
  C   C2100     1.0  0.54231  0.98561  0.01987  1.0000
  H   H1664     1.0  0.56918  0.90968  0.59987  1.0000
  H   H1665     1.0  0.56565  0.82251  0.94396  1.0000
  H   H1666     1.0  0.70536  0.84065  0.98130  1.0000
  H   H1667     1.0  0.70488  0.80557  0.99979  1.0000
  C   C2101     1.0  0.58259  0.78774  0.75955  1.0000
  H   H1668     1.0  0.74081  0.95924  0.76608  1.0000
  H   H1669     1.0  0.49955  0.77608  0.89280  1.0000
  C   C2102     1.0  0.53717  0.75405  0.93172  1.0000
  H   H1670     1.0  0.56050  0.77890  0.81463  1.0000
  C   C2103     1.0  0.55687  0.78648  0.89447  1.0000
  C   C2104     1.0  0.53464  0.92990  0.91936  1.0000
  H   H1671     1.0  0.51350  0.96520  0.65523  1.0000
  C   C2105     1.0  0.59030  0.80358  0.82269  1.0000
  C   C2106     1.0  0.50923  0.92371  0.83469  1.0000
  C   C2107     1.0  0.63168  0.78383  0.92256  1.0000
  C   C2108     1.0  0.60872  0.91782  0.84541  1.0000
  C   C2109     1.0  0.95095  0.74321  0.76539  1.0000
  C   C2110     1.0  0.52895  0.90899  0.92596  1.0000
  H   H1672     1.0  0.70239  0.96506  0.95955  1.0000
  H   H1673     1.0  0.79102  0.95173  0.61956  1.0000
  H   H1674     1.0  0.67144  0.97418  0.82730  1.0000
  C   C2111     1.0  0.70263  0.81057  0.96840  1.0000
  H   H1675     1.0  0.70428  0.74761  0.80757  1.0000
  C   C2112     1.0  0.51570  0.77406  0.89966  1.0000
  C   C2113     1.0  0.60604  0.98576  0.53131  1.0000
  H   H1676     1.0  0.57161  0.76554  0.02191  1.0000
  H   H1677     1.0  0.48939  0.93236  0.74134  1.0000
  H   H1678     1.0  0.59540  0.97206  0.86417  1.0000
  C   C2114     1.0  0.59361  0.91847  0.81516  1.0000
  H   H1679     1.0  0.62315  0.91262  0.83896  1.0000
  H   H1680     1.0  0.52653  0.95904  0.73293  1.0000
  C   C2115     1.0  0.57548  0.92586  0.82282  1.0000
  C   C2116     1.0  0.60549  0.80255  0.90598  1.0000
  H   H1681     1.0  0.56186  0.85562  0.95222  1.0000
  C   C2117     1.0  0.57807  0.96997  0.00733  1.0000
  H   H1682     1.0  0.77341  0.97813  0.60437  1.0000
  H   H1683     1.0  0.57176  0.77666  0.74237  1.0000
  H   H1684     1.0  0.49252  0.98280  0.61199  1.0000
  H   H1685     1.0  0.58898  0.84208  0.81647  1.0000
  Fe  Fe143     1.0  0.62634  0.91091  0.01064  1.0000
  H   H1686     1.0  0.59233  0.96442  0.00235  1.0000
  H   H1687     1.0  0.65054  0.79144  0.97586  1.0000
  C   C2118     1.0  0.56750  0.85256  0.92241  1.0000
  C   C2119     1.0  0.52882  0.94035  0.95045  1.0000
  C   C2120     1.0  0.61078  0.81633  0.80341  1.0000
  C   C2121     1.0  0.93999  0.75389  0.58499  1.0000
  C   C2122     1.0  0.50696  0.97950  0.59817  1.0000
  C   C2123     1.0  0.57852  0.82985  0.88015  1.0000
  H   H1688     1.0  0.50312  0.91703  0.58463  1.0000
  C   C2124     1.0  0.53600  0.95177  0.79350  1.0000
  C   C2125     1.0  0.54423  0.98047  0.87446  1.0000
  C   C2126     1.0  0.53587  0.78892  0.88545  1.0000
  C   C2127     1.0  0.72130  0.96374  0.54948  1.0000
  H   H1689     1.0  0.50395  0.91374  0.86273  1.0000
  H   H1690     1.0  0.52253  0.87289  0.59086  1.0000
  H   H1691     1.0  0.57127  0.88199  0.89286  1.0000
  H   H1692     1.0  0.57313  0.76636  0.92523  1.0000
  H   H1693     1.0  0.49965  0.92099  0.65840  1.0000
  H   H1694     1.0  0.63334  0.81774  0.99099  1.0000
  H   H1695     1.0  0.82885  0.95974  0.64831  1.0000
  C   C2128     1.0  0.68711  0.96882  0.96666  1.0000
  H   H1696     1.0  0.73762  0.74336  0.56637  1.0000
  C   C2129     1.0  0.57286  0.86737  0.88910  1.0000
  C   C2130     1.0  0.72413  0.96071  0.86570  1.0000
  H   H1697     1.0  0.51738  0.98972  0.74320  1.0000
  H   H1698     1.0  0.56562  0.91443  0.67280  1.0000
  H   H1699     1.0  0.53512  0.80232  0.86745  1.0000
  H   H1700     1.0  0.70699  0.95522  0.57023  1.0000
  H   H1701     1.0  0.61465  0.97509  0.54078  1.0000
  C   C2131     1.0  0.51707  0.92999  0.98715  1.0000
  C   C2132     1.0  0.57615  0.79711  0.02250  1.0000
  S   S287      1.0  0.58588  0.96000  0.73481  1.0000
  H   H1702     1.0  0.60823  0.79908  0.70928  1.0000
  C   C2133     1.0  0.56133  0.89884  0.01074  1.0000
  C   C2134     1.0  0.52154  0.94919  0.76136  1.0000
  C   C2135     1.0  0.61716  0.81482  0.76262  1.0000
  C   C2136     1.0  0.61708  0.94252  0.71035  1.0000
  C   C2137     1.0  0.51695  0.89867  0.96247  1.0000
  C   C2138     1.0  0.56994  0.83380  0.91776  1.0000
  H   H1703     1.0  0.69865  0.78192  0.94645  1.0000
  C   C2139     1.0  0.51453  0.98613  0.55672  1.0000
  C   C2140     1.0  0.94923  0.75393  0.72823  1.0000
  C   C2141     1.0  0.71769  0.97807  0.86114  1.0000
  H   H1704     1.0  0.73704  0.94029  0.83486  1.0000
  C   C2142     1.0  0.53762  0.96518  0.60596  1.0000
  C   C2143     1.0  0.73503  0.96490  0.79276  1.0000
  H   H1705     1.0  0.93538  0.76017  0.72483  1.0000
  C   C2144     1.0  0.60166  0.95236  0.69770  1.0000
  H   H1706     1.0  0.66516  0.93924  0.96158  1.0000
  C   C2145     1.0  0.48163  0.98288  0.73487  1.0000
  H   H1707     1.0  0.71767  0.97654  0.68953  1.0000
  C   C2146     1.0  0.57623  0.78917  0.80049  1.0000
  H   H1708     1.0  0.62076  0.94135  0.74235  1.0000
  H   H1709     1.0  0.51253  0.88253  0.96731  1.0000
  C   C2147     1.0  0.63825  0.79471  0.95605  1.0000
  H   H1710     1.0  0.92164  0.74895  0.58672  1.0000
  Fe  Fe144     1.0  0.68603  0.75048  0.64436  1.0000
  C   C2148     1.0  0.55734  0.76887  0.91768  1.0000
  C   C2149     1.0  0.51635  0.75664  0.92282  1.0000
  H   H1711     1.0  0.58431  0.87470  0.82492  1.0000
  H   H1712     1.0  0.56540  0.89711  0.97903  1.0000
  H   H1713     1.0  0.55875  0.96707  0.55106  1.0000
  S   S288      1.0  0.62428  0.74048  0.99446  1.0000
  H   H1714     1.0  0.57155  0.93065  0.00011  1.0000
  H   H1715     1.0  0.58132  0.94114  0.53499  1.0000
  C   C2150     1.0  0.49461  0.92136  0.80267  1.0000
  H   H1716     1.0  0.56439  0.92664  0.79845  1.0000
  H   H1717     1.0  0.62184  0.82742  0.82009  1.0000
  H   H1718     1.0  0.60502  0.82486  0.94747  1.0000
  C   C2151     1.0  0.64703  0.97927  0.86975  1.0000
  C   C2152     1.0  0.79986  0.96690  0.62560  1.0000
  C   C2153     1.0  0.65705  0.98244  0.57418  1.0000
  C   C2154     1.0  0.72848  0.98223  0.78807  1.0000
  C   C2155     1.0  0.57511  0.98467  0.97862  1.0000
  H   H1719     1.0  0.57240  0.74339  0.75396  1.0000
  H   H1720     1.0  0.72958  0.98984  0.75761  1.0000
  H   H1721     1.0  0.56519  0.79759  0.99785  1.0000
  H   H1722     1.0  0.63220  0.98177  0.99333  1.0000
  H   H1723     1.0  0.62617  0.98821  0.91345  1.0000
  C   C2156     1.0  0.82112  0.97143  0.64173  1.0000
  H   H1724     1.0  0.69215  0.98488  0.63977  1.0000
  H   H1725     1.0  0.87129  0.74799  0.55254  1.0000
  C   C2157     1.0  0.66762  0.98483  0.84610  1.0000
  H   H1726     1.0  0.56549  0.74159  0.82922  1.0000
  H   H1727     1.0  0.64889  0.98815  0.63556  1.0000
  C   C2158     1.0  0.72470  0.98735  0.66300  1.0000
  C   C2159     1.0  0.68850  0.98831  0.97437  1.0000
  P   P72       1.0  0.53852  0.90917  0.53225  1.0000
  H   H1728     1.0  0.53785  0.74058  0.94963  1.0000
  C   C2160     1.0  0.52092  0.88405  0.52741  1.0000
