data_image0
_chemical_formula_structural       S2FeSCFeCSHC2H2CHCH3C5HC3H2C2H4C3FeHC3HCH3CHC4H3SC3HCSHPCSH3CHC3HCHCHCFeCSFeCH2CHCH3SC2SHSFeS2FeS2FeSFeSHS2HC7H3C3HFeH2C6H3C3H2C2HFeCHC2H5CHCSH2FeCH3SCHC6PC4H2C12H6C3H2CH8C6PCHC6H9CH3FeHSHPHSHCHCH3CHPHCFeHSCHC3SHCHC5H2C7H2C3HCHCH4C2H3CH2CSCHC3HCH2C2H2CHCHC2H2CHCH2C4FeCSH3CH2C3HC4HFeH2C4H3CHCHC2HC2HFeSC2FeSFeS2FeS2FeSFeS2C6HCH2C6H4C2HC6H4CHC3H4C6PC17H17CHC2HCHC2H3C3PHCH2C2H3SHC2HCSCHC2HC2HCHC3HC2HCPC3SHCH2CHCSH4C2HC4HSC5HFeCSCSC4HCFeHSCSHFeCH2C4PFeSH2SHC6H2C2SCH2CH2C2FeH2SCHCHCSH3C3H7CH2CHCHC2H3CH2C2H2C7PC9H3CHCSH4CH2SCHCHC2FeS2FeS2FeSFeS3C4H2CH2CHC6H3C5H3C5H2C3H2CHCH2CPFeH3C2HCPC2HSC4HC6HC2H2C5HCH5CH3CHC2H3C3H2PHC3HC6HC2H2CH3CHC3HC4PC2H2C2H3C4HC3H2SHCH6C3HC4H3C3HC3HC4H4C2PCHC4HCH2CSHCH5CHCHCHCHSC2HCHSFeSFeS2FeSFeS3HSFeSCHCHC6H4C4H2C6H3CH2PC3HC4PC18PC2H14CH2SHC6HCHCH2C2H3C7H6CHCH3CHSPH2C4HCHC7HC2H3C5H2C8HCH3CHC5H5C4H2CH4C2HSHPCHCH2C2HC2H2C2HCPC4H6CH2C3SC2H2C2SC2SCFeH5SC2HC2HC3H2C6H4CH2C3HFeCSC2H3S2C2Fe2CHCH6C3H4C3H7CHC3PC7H2CH2C2HSHC5HCSCHCFeCFeSH3FeS2FeS2FeSFeS3C4HCH3C3HCPH2C8H5C4H2C3HC5PC5H2C4HCHCH8C4H2C6HC2H5C2HCHC2SHCHC2H2CH2CHC2SC3H2CH2C2H2FeCH4C2HC3H4C6HPHC3H2CHC3H2CH2CHCH2C3HCH2C2HSHC2H2C2HCSHCH4C3HCHCH3SHC3H3CH3C2S2FeSCPCSHCH3C5H2C3H2CSHFeC3HCH3CHC2SCH2C3H2CHCH2C2H3CHC2FeSC2H2C3H3CH2CH3C3H4C3H2FeHCH2CH4CSHCFeS2FeS2FeSFeSFeSCSC7H4C5H2CHC3HC2HCH2CH3CHCH3C5PC4SC2HCHCFeCH4CH4SH2CHSC9PC7H2C4HSC2H9FeHCH2C3HCH3FeH2CSHC2HFeCHC3HCHCSCH2C5HSC4HC2HSH3SH2CFe2SH4C5H2C6H7PC3SH2PCH2C2HC2HC2HC2HCH3C3PH3CH2CHCHC2H2C4HC4HC9SC2H3C5H2CHC2FeC3HCH4CHCPH
_chemical_formula_sum              "S128 Fe64 C960 H768 P32"
_cell_length_a       40.2587
_cell_length_b       31.6451
_cell_length_c       48.0567
_cell_angle_alpha    89.9514
_cell_angle_beta     81.9835
_cell_angle_gamma    90.1263

_space_group_name_H-M_alt    "P 1"
_space_group_IT_number       1

loop_
  _space_group_symop_operation_xyz
  'x, y, z'

loop_
  _atom_site_type_symbol
  _atom_site_label
  _atom_site_symmetry_multiplicity
  _atom_site_fract_x
  _atom_site_fract_y
  _atom_site_fract_z
  _atom_site_occupancy
  S   S1        1.0  0.37735  0.05792  0.30525  1.0000
  S   S2        1.0  0.41953  0.16901  0.31602  1.0000
  Fe  Fe1       1.0  0.38291  0.01811  0.14497  1.0000
  S   S3        1.0  0.35543  0.06344  0.17670  1.0000
  C   C1        1.0  0.45749  0.16893  0.06607  1.0000
  Fe  Fe2       1.0  0.40719  0.00728  0.08202  1.0000
  C   C2        1.0  0.40328  0.25550  0.25762  1.0000
  S   S4        1.0  0.42670  0.04437  0.11616  1.0000
  H   H1        1.0  0.35413  0.12492  0.27070  1.0000
  C   C3        1.0  0.40892  0.15084  0.13304  1.0000
  C   C4        1.0  0.40458  0.17233  0.15881  1.0000
  H   H2        1.0  0.40456  0.15754  0.22866  1.0000
  H   H3        1.0  0.45338  0.02543  0.31567  1.0000
  C   C5        1.0  0.43442  0.25598  0.21065  1.0000
  H   H4        1.0  0.00492  0.42752  0.21271  1.0000
  C   C6        1.0  0.32088  0.34154  0.34300  1.0000
  H   H5        1.0  0.38450  0.12242  0.10042  1.0000
  H   H6        1.0  0.03826  0.43174  0.29409  1.0000
  H   H7        1.0  0.39312  0.27210  0.27668  1.0000
  C   C7        1.0  0.37164  0.06074  0.26946  1.0000
  C   C8        1.0  0.37433  0.02556  0.22395  1.0000
  C   C9        1.0  0.36245  0.06200  0.21220  1.0000
  C   C10       1.0  0.35496  0.09771  0.22927  1.0000
  C   C11       1.0  0.36008  0.09737  0.25770  1.0000
  H   H8        1.0  0.34515  0.12574  0.22045  1.0000
  C   C12       1.0  0.39699  0.21238  0.25503  1.0000
  C   C13       1.0  0.34447  0.17399  0.15744  1.0000
  C   C14       1.0  0.03664  0.44573  0.27375  1.0000
  H   H9        1.0  0.38161  0.19582  0.27192  1.0000
  H   H10       1.0  0.42662  0.31082  0.23749  1.0000
  C   C15       1.0  0.42815  0.21255  0.20797  1.0000
  C   C16       1.0  0.30217  0.27334  0.32882  1.0000
  H   H11       1.0  0.45311  0.10110  0.06714  1.0000
  H   H12       1.0  0.45934  0.30472  0.10943  1.0000
  H   H13       1.0  0.45250  0.02916  0.18205  1.0000
  H   H14       1.0  0.43133  0.17406  0.07413  1.0000
  C   C17       1.0  0.44700  0.09675  0.18005  1.0000
  C   C18       1.0  0.40985  0.19085  0.23052  1.0000
  C   C19       1.0  0.26357  0.33377  0.33255  1.0000
  Fe  Fe3       1.0  0.38497  0.11565  0.33165  1.0000
  H   H15       1.0  0.44825  0.27374  0.19362  1.0000
  C   C20       1.0  0.01940  0.42514  0.25435  1.0000
  C   C21       1.0  0.45174  0.25174  0.13783  1.0000
  C   C22       1.0  0.46630  0.05688  0.26089  1.0000
  H   H16       1.0  0.44699  0.03631  0.25497  1.0000
  C   C23       1.0  0.46673  0.21799  0.15044  1.0000
  H   H17       1.0  0.37953  0.99760  0.21122  1.0000
  H   H18       1.0  0.43372  0.14089  0.12371  1.0000
  H   H19       1.0  0.42280  0.09415  0.17293  1.0000
  C   C24       1.0  0.46163  0.13634  0.18373  1.0000
  H   H20       1.0  0.42502  0.25742  0.14281  1.0000
  C   C25       1.0  0.32775  0.29867  0.33682  1.0000
  C   C26       1.0  0.34897  0.15190  0.13203  1.0000
  C   C27       1.0  0.37213  0.18437  0.17078  1.0000
  C   C28       1.0  0.27036  0.29080  0.32671  1.0000
  H   H21       1.0  0.43783  0.11287  0.25554  1.0000
  H   H22       1.0  0.32742  0.14259  0.12225  1.0000
  H   H23       1.0  0.38602  0.99600  0.26179  1.0000
  S   S5        1.0  0.22334  0.35429  0.32828  1.0000
  C   C29       1.0  0.38120  0.14052  0.11976  1.0000
  C   C30       1.0  0.48059  0.96674  0.30576  1.0000
  C   C31       1.0  0.48533  0.12785  0.26915  1.0000
  H   H24       1.0  0.31938  0.18200  0.16721  1.0000
  C   C32       1.0  0.42216  0.27725  0.23550  1.0000
  S   S6        1.0  0.36908  0.27890  0.33773  1.0000
  H   H25       1.0  0.48101  0.16162  0.26966  1.0000
  P   P1        1.0  0.44099  0.18473  0.17547  1.0000
  C   C33       1.0  0.37813  0.02472  0.25259  1.0000
  S   S7        1.0  0.41655  0.03949  0.03942  1.0000
  H   H26       1.0  0.00749  0.39495  0.25961  1.0000
  H   H27       1.0  0.36778  0.20110  0.19053  1.0000
  H   H28       1.0  0.46918  0.23519  0.06230  1.0000
  C   C34       1.0  0.36525  0.00421  0.01399  1.0000
  H   H29       1.0  0.48111  0.00573  0.01592  1.0000
  C   C35       1.0  0.28895  0.35894  0.34111  1.0000
  C   C36       1.0  0.01786  0.44345  0.22805  1.0000
  C   C37       1.0  0.00664  0.35691  0.32741  1.0000
  H   H30       1.0  0.98957  0.34386  0.07901  1.0000
  C   C38       1.0  0.45795  0.99350  0.32227  1.0000
  H   H31       1.0  0.99822  0.45711  0.06580  1.0000
  C   C39       1.0  0.46104  0.10051  0.26117  1.0000
  H   H32       1.0  0.35363  0.99521  0.03481  1.0000
  C   C40       1.0  0.46975  0.12781  0.06205  1.0000
  Fe  Fe4       1.0  0.45361  0.98566  0.12532  1.0000
  C   C41       1.0  0.47112  0.27864  0.11892  1.0000
  S   S8        1.0  0.36032  0.98621  0.10986  1.0000
  Fe  Fe5       1.0  0.20331  0.42140  0.33736  1.0000
  C   C42       1.0  0.46365  0.05958  0.18548  1.0000
  H   H33       1.0  0.25100  0.27101  0.32003  1.0000
  H   H34       1.0  0.98796  0.45734  0.01632  1.0000
  C   C43       1.0  0.47881  0.20337  0.05925  1.0000
  H   H35       1.0  0.15066  0.45699  0.16933  1.0000
  C   C44       1.0  0.39592  0.02575  0.01054  1.0000
  H   H36       1.0  0.01788  0.32913  0.31681  1.0000
  H   H37       1.0  0.30710  0.24050  0.32357  1.0000
  H   H38       1.0  0.30810  0.38894  0.64163  1.0000
  S   S9        1.0  0.34748  0.15772  0.35762  1.0000
  C   C45       1.0  0.41906  0.02759  0.47988  1.0000
  C   C46       1.0  0.31824  0.42655  0.54617  1.0000
  S   S10       1.0  0.41191  0.09950  0.36827  1.0000
  H   H39       1.0  0.40801  0.23267  0.49548  1.0000
  S   S11       1.0  0.24426  0.35428  0.62879  1.0000
  Fe  Fe6       1.0  0.37841  0.14714  0.39256  1.0000
  S   S12       1.0  0.35204  0.14204  0.43727  1.0000
  S   S13       1.0  0.41370  0.20090  0.38076  1.0000
  Fe  Fe7       1.0  0.42815  0.13867  0.57973  1.0000
  S   S14       1.0  0.45346  0.19521  0.59526  1.0000
  S   S15       1.0  0.44377  0.12660  0.53345  1.0000
  Fe  Fe8       1.0  0.40360  0.10977  0.63989  1.0000
  S   S16       1.0  0.42785  0.16472  0.65867  1.0000
  Fe  Fe9       1.0  0.40643  0.20329  0.62583  1.0000
  S   S17       1.0  0.38815  0.27102  0.63437  1.0000
  H   H40       1.0  0.16613  0.44135  0.49222  1.0000
  S   S18       1.0  0.37955  0.14884  0.60847  1.0000
  S   S19       1.0  0.44904  0.09393  0.60907  1.0000
  H   H41       1.0  0.41167  0.33892  0.42020  1.0000
  C   C47       1.0  0.39712  0.28385  0.52539  1.0000
  C   C48       1.0  0.40879  0.30624  0.54733  1.0000
  C   C49       1.0  0.34799  0.29325  0.63220  1.0000
  C   C50       1.0  0.32114  0.26928  0.62509  1.0000
  C   C51       1.0  0.28969  0.28848  0.62395  1.0000
  C   C52       1.0  0.31158  0.35571  0.63681  1.0000
  C   C53       1.0  0.34295  0.33652  0.63803  1.0000
  H   H42       1.0  0.32456  0.23598  0.62054  1.0000
  H   H43       1.0  0.26911  0.26961  0.61851  1.0000
  H   H44       1.0  0.36346  0.35537  0.64362  1.0000
  C   C54       1.0  0.38565  0.03746  0.47790  1.0000
  C   C55       1.0  0.32732  0.42005  0.51740  1.0000
  C   C56       1.0  0.42972  0.01828  0.42934  1.0000
  H   H45       1.0  0.36045  0.22097  0.55110  1.0000
  Fe  Fe10      1.0  0.38399  0.21030  0.34480  1.0000
  H   H46       1.0  0.14865  0.36901  0.66098  1.0000
  H   H47       1.0  0.33617  0.14602  0.49745  1.0000
  C   C57       1.0  0.37780  0.14257  0.46404  1.0000
  C   C58       1.0  0.41264  0.13951  0.45751  1.0000
  C   C59       1.0  0.43257  0.13575  0.47915  1.0000
  C   C60       1.0  0.41787  0.13538  0.50738  1.0000
  C   C61       1.0  0.38315  0.14004  0.51400  1.0000
  C   C62       1.0  0.36313  0.14358  0.49232  1.0000
  H   H48       1.0  0.42410  0.13864  0.43578  1.0000
  H   H49       1.0  0.45944  0.13233  0.47397  1.0000
  H   H50       1.0  0.37169  0.13954  0.53572  1.0000
  C   C63       1.0  0.28473  0.33187  0.62963  1.0000
  C   C64       1.0  0.31595  0.42986  0.40494  1.0000
  C   C65       1.0  0.33050  0.35331  0.55508  1.0000
  H   H51       1.0  0.33106  0.32768  0.57001  1.0000
  H   H52       1.0  0.02551  0.43619  0.37027  1.0000
  C   C66       1.0  0.43999  0.29656  0.55532  1.0000
  C   C67       1.0  0.13222  0.38757  0.67607  1.0000
  H   H53       1.0  0.43749  0.00668  0.65659  1.0000
  Fe  Fe11      1.0  0.23071  0.42404  0.62358  1.0000
  C   C68       1.0  0.44808  0.24180  0.51992  1.0000
  H   H54       1.0  0.46288  0.21610  0.50977  1.0000
  C   C69       1.0  0.45739  0.98463  0.65891  1.0000
  C   C70       1.0  0.37425  0.03776  0.45175  1.0000
  H   H55       1.0  0.44661  0.01127  0.41031  1.0000
  H   H56       1.0  0.35437  0.38448  0.41001  1.0000
  H   H57       1.0  0.19927  0.45589  0.53066  1.0000
  H   H58       1.0  0.25722  0.39682  0.53390  1.0000
  H   H59       1.0  0.42719  0.02809  0.50039  1.0000
  C   C71       1.0  0.44138  0.01799  0.45557  1.0000
  H   H60       1.0  0.47695  0.06431  0.35828  1.0000
  C   C72       1.0  0.41686  0.25123  0.51195  1.0000
  S   S20       1.0  0.20135  0.43573  0.58773  1.0000
  H   H61       1.0  0.36877  0.04612  0.49658  1.0000
  H   H62       1.0  0.33340  0.45365  0.39554  1.0000
  Fe  Fe12      1.0  0.44511  0.15409  0.35351  1.0000
  C   C73       1.0  0.28153  0.43797  0.40862  1.0000
  H   H63       1.0  0.39397  0.33087  0.55853  1.0000
  H   H64       1.0  0.33035  0.12482  0.65582  1.0000
  H   H65       1.0  0.21724  0.34967  0.56281  1.0000
  S   S21       1.0  0.15691  0.42562  0.36905  1.0000
  C   C74       1.0  0.32774  0.39098  0.41318  1.0000
  H   H66       1.0  0.32505  0.44582  0.50288  1.0000
  C   C75       1.0  0.27072  0.20379  0.44596  1.0000
  C   C76       1.0  0.28275  0.19574  0.41781  1.0000
  C   C77       1.0  0.28386  0.22819  0.39803  1.0000
  C   C78       1.0  0.27245  0.26855  0.40625  1.0000
  C   C79       1.0  0.25891  0.27660  0.43428  1.0000
  C   C80       1.0  0.25868  0.24396  0.45420  1.0000
  P   P2        1.0  0.24141  0.32817  0.44383  1.0000
  C   C81       1.0  0.23420  0.33510  0.48159  1.0000
  C   C82       1.0  0.27045  0.36786  0.42828  1.0000
  C   C83       1.0  0.30511  0.36026  0.42512  1.0000
  C   C84       1.0  0.45979  0.26473  0.54140  1.0000
  H   H67       1.0  0.48384  0.25709  0.54769  1.0000
  H   H68       1.0  0.31095  0.39793  0.58707  1.0000
  C   C85       1.0  0.25878  0.40699  0.42001  1.0000
  C   C86       1.0  0.25119  0.36655  0.49474  1.0000
  C   C87       1.0  0.24479  0.37184  0.52389  1.0000
  C   C88       1.0  0.22173  0.34575  0.54017  1.0000
  C   C89       1.0  0.20403  0.31524  0.52720  1.0000
  C   C90       1.0  0.20997  0.31020  0.49801  1.0000
  C   C91       1.0  0.20170  0.33402  0.43063  1.0000
  C   C92       1.0  0.17542  0.35661  0.44623  1.0000
  C   C93       1.0  0.14451  0.36069  0.43639  1.0000
  C   C94       1.0  0.13963  0.34262  0.41076  1.0000
  C   C95       1.0  0.16595  0.32136  0.39464  1.0000
  C   C96       1.0  0.19686  0.31718  0.40444  1.0000
  H   H69       1.0  0.27105  0.17879  0.46135  1.0000
  H   H70       1.0  0.29204  0.16458  0.41143  1.0000
  H   H71       1.0  0.29392  0.22218  0.37633  1.0000
  H   H72       1.0  0.27408  0.29342  0.39058  1.0000
  H   H73       1.0  0.24959  0.24911  0.47608  1.0000
  H   H74       1.0  0.31460  0.33046  0.43162  1.0000
  C   C97       1.0  0.31922  0.39304  0.56491  1.0000
  C   C98       1.0  0.34125  0.34689  0.52630  1.0000
  C   C99       1.0  0.39624  0.02809  0.42750  1.0000
  H   H75       1.0  0.23217  0.41366  0.42232  1.0000
  H   H76       1.0  0.26887  0.38763  0.48265  1.0000
  C   C100      1.0  0.33852  0.38032  0.50741  1.0000
  H   H77       1.0  0.38733  0.02895  0.40726  1.0000
  H   H78       1.0  0.18548  0.29581  0.53980  1.0000
  H   H79       1.0  0.19563  0.28694  0.48815  1.0000
  H   H80       1.0  0.17895  0.37217  0.46564  1.0000
  H   H81       1.0  0.12480  0.37926  0.44817  1.0000
  H   H82       1.0  0.11602  0.34681  0.40274  1.0000
  H   H83       1.0  0.16291  0.30938  0.37400  1.0000
  H   H84       1.0  0.21688  0.30168  0.39102  1.0000
  C   C101      1.0  0.35607  0.25796  0.43272  1.0000
  C   C102      1.0  0.37792  0.28682  0.41766  1.0000
  C   C103      1.0  0.39397  0.31742  0.43191  1.0000
  C   C104      1.0  0.38746  0.31986  0.46120  1.0000
  C   C105      1.0  0.36411  0.29241  0.47640  1.0000
  C   C106      1.0  0.34909  0.26063  0.46200  1.0000
  P   P3        1.0  0.35711  0.29560  0.51428  1.0000
  C   C107      1.0  0.44035  0.97914  0.34766  1.0000
  H   H85       1.0  0.34861  0.04676  0.45016  1.0000
  C   C108      1.0  0.32632  0.25754  0.52935  1.0000
  C   C109      1.0  0.29285  0.26188  0.52474  1.0000
  C   C110      1.0  0.26842  0.23346  0.53699  1.0000
  C   C111      1.0  0.27723  0.20073  0.55406  1.0000
  C   C112      1.0  0.31047  0.19643  0.55894  1.0000
  C   C113      1.0  0.33496  0.22476  0.54672  1.0000
  H   H86       1.0  0.34501  0.23301  0.42164  1.0000
  H   H87       1.0  0.38284  0.28496  0.39494  1.0000
  H   H88       1.0  0.40065  0.34316  0.47205  1.0000
  H   H89       1.0  0.33266  0.23721  0.47314  1.0000
  H   H90       1.0  0.34449  0.37611  0.48500  1.0000
  H   H91       1.0  0.28569  0.28746  0.51183  1.0000
  H   H92       1.0  0.24261  0.23702  0.53346  1.0000
  H   H93       1.0  0.25829  0.17883  0.56367  1.0000
  H   H94       1.0  0.31732  0.17125  0.57232  1.0000
  C   C114      1.0  0.10389  0.40693  0.66804  1.0000
  H   H95       1.0  0.46581  0.96928  0.61495  1.0000
  H   H96       1.0  0.44853  0.31334  0.57266  1.0000
  H   H97       1.0  0.09828  0.40311  0.64677  1.0000
  Fe  Fe13      1.0  0.47210  0.15082  0.62593  1.0000
  H   H98       1.0  0.47553  0.08530  0.43044  1.0000
  S   S22       1.0  0.38093  0.05543  0.66712  1.0000
  H   H99       1.0  0.42287  0.00010  0.36002  1.0000
  P   P4        1.0  0.48411  0.00251  0.45752  1.0000
  H   H100      1.0  0.30956  0.45733  0.55388  1.0000
  S   S23       1.0  0.19482  0.46344  0.65362  1.0000
  H   H101      1.0  0.28418  0.39198  0.34577  1.0000
  C   C115      1.0  0.01083  0.41705  0.35776  1.0000
  H   H102      1.0  0.34045  0.36156  0.34906  1.0000
  C   C116      1.0  0.18854  0.46051  0.48820  1.0000
  H   H103      1.0  0.12059  0.46216  0.52802  1.0000
  H   H104      1.0  0.98994  0.46056  0.42467  1.0000
  H   H105      1.0  0.05008  0.37132  0.34748  1.0000
  C   C117      1.0  0.02476  0.38048  0.34478  1.0000
  H   H106      1.0  0.43385  0.05525  0.98069  1.0000
  P   P5        1.0  0.30494  0.21972  0.73768  1.0000
  H   H107      1.0  0.37467  0.19373  0.72480  1.0000
  C   C118      1.0  0.03517  0.38509  0.81628  1.0000
  Fe  Fe14      1.0  0.38730  0.01570  0.82903  1.0000
  H   H108      1.0  0.27004  0.13962  0.75248  1.0000
  S   S24       1.0  0.37870  0.06935  0.79940  1.0000
  C   C119      1.0  0.41662  0.17666  0.79595  1.0000
  H   H109      1.0  0.23720  0.30062  0.67814  1.0000
  C   C120      1.0  0.29763  0.23708  0.82278  1.0000
  C   C121      1.0  0.48247  0.04162  0.92010  1.0000
  C   C122      1.0  0.40154  0.29149  0.70270  1.0000
  S   S25       1.0  0.41122  0.03363  0.86720  1.0000
  H   H110      1.0  0.38544  0.13087  0.75565  1.0000
  C   C123      1.0  0.34947  0.99451  0.99037  1.0000
  H   H111      1.0  0.38546  0.12624  0.70426  1.0000
  C   C124      1.0  0.47426  0.12819  0.71519  1.0000
  C   C125      1.0  0.36456  0.00553  0.96318  1.0000
  C   C126      1.0  0.39492  0.02763  0.95984  1.0000
  C   C127      1.0  0.41044  0.03790  0.98344  1.0000
  C   C128      1.0  0.09111  0.43868  0.71434  1.0000
  H   H112      1.0  0.40607  0.03745  0.93909  1.0000
  H   H113      1.0  0.44803  0.05135  0.78362  1.0000
  C   C129      1.0  0.01051  0.43184  0.95631  1.0000
  C   C130      1.0  0.38208  0.05868  0.70373  1.0000
  C   C131      1.0  0.37998  0.02181  0.72025  1.0000
  C   C132      1.0  0.37997  0.02426  0.74958  1.0000
  C   C133      1.0  0.38151  0.06371  0.76252  1.0000
  C   C134      1.0  0.38410  0.10032  0.74588  1.0000
  C   C135      1.0  0.38441  0.09781  0.71669  1.0000
  H   H114      1.0  0.37807  0.99137  0.71038  1.0000
  H   H115      1.0  0.37782  0.99584  0.76224  1.0000
  C   C136      1.0  0.20900  0.28655  0.71854  1.0000
  C   C137      1.0  0.05305  0.42223  0.81946  1.0000
  C   C138      1.0  0.26769  0.24718  0.73081  1.0000
  H   H116      1.0  0.29931  0.06425  0.67906  1.0000
  C   C139      1.0  0.40264  0.24842  0.70886  1.0000
  H   H117      1.0  0.40634  0.15027  0.80880  1.0000
  C   C140      1.0  0.03696  0.40006  0.76668  1.0000
  H   H118      1.0  0.26868  0.07187  0.72732  1.0000
  H   H119      1.0  0.01324  0.34518  0.78744  1.0000
  H   H120      1.0  0.30862  0.19302  0.85457  1.0000
  H   H121      1.0  0.32678  0.14773  0.76993  1.0000
  C   C141      1.0  0.44634  0.17170  0.77739  1.0000
  C   C142      1.0  0.46001  0.20587  0.76091  1.0000
  H   H122      1.0  0.31871  0.30966  0.72334  1.0000
  H   H123      1.0  0.45371  0.99387  0.70331  1.0000
  H   H124      1.0  0.45306  0.98673  0.93250  1.0000
  C   C143      1.0  0.47187  0.03991  0.77316  1.0000
  H   H125      1.0  0.16191  0.37833  0.70947  1.0000
  H   H126      1.0  0.05863  0.43122  0.84006  1.0000
  C   C144      1.0  0.30592  0.21097  0.77474  1.0000
  S   S26       1.0  0.34749  0.97494  0.85350  1.0000
  C   C145      1.0  0.44324  0.24489  0.76318  1.0000
  H   H127      1.0  0.32745  0.13632  0.82033  1.0000
  C   C146      1.0  0.31797  0.17277  0.78438  1.0000
  C   C147      1.0  0.05423  0.43798  0.76986  1.0000
  C   C148      1.0  0.31859  0.16624  0.81308  1.0000
  H   H128      1.0  0.42601  0.23138  0.70443  1.0000
  C   C149      1.0  0.11902  0.41784  0.72253  1.0000
  H   H129      1.0  0.29005  0.26213  0.83768  1.0000
  H   H130      1.0  0.42400  0.30763  0.69307  1.0000
  C   C150      1.0  0.28382  0.13668  0.73155  1.0000
  C   C151      1.0  0.47511  0.00455  0.93563  1.0000
  H   H131      1.0  0.40017  0.27948  0.78277  1.0000
  H   H132      1.0  0.37027  0.34664  0.70299  1.0000
  C   C152      1.0  0.26679  0.26597  0.70442  1.0000
  H   H133      1.0  0.44976  0.14257  0.72004  1.0000
  C   C153      1.0  0.28258  0.09839  0.71724  1.0000
  H   H134      1.0  0.07236  0.42884  0.92481  1.0000
  C   C154      1.0  0.29683  0.24361  0.79406  1.0000
  C   C155      1.0  0.99044  0.42765  0.93475  1.0000
  H   H135      1.0  0.18699  0.26689  0.75995  1.0000
  H   H136      1.0  0.37703  0.21920  0.81225  1.0000
  C   C156      1.0  0.02727  0.37387  0.78986  1.0000
  H   H137      1.0  0.44975  0.98747  0.75424  1.0000
  C   C157      1.0  0.30309  0.17051  0.71905  1.0000
  H   H138      1.0  0.45495  0.07495  0.69455  1.0000
  H   H139      1.0  0.03050  0.39118  0.74633  1.0000
  C   C158      1.0  0.01789  0.39555  0.97121  1.0000
  C   C159      1.0  0.37342  0.22707  0.72013  1.0000
  C   C160      1.0  0.34190  0.29207  0.71936  1.0000
  C   C161      1.0  0.31916  0.16649  0.69131  1.0000
  Fe  Fe15      1.0  0.37489  0.98752  0.89054  1.0000
  C   C162      1.0  0.40003  0.21546  0.79788  1.0000
  S   S27       1.0  0.34457  0.99225  0.93384  1.0000
  H   H140      1.0  0.45871  0.14129  0.77616  1.0000
  H   H141      1.0  0.02707  0.36537  0.83441  1.0000
  H   H142      1.0  0.28890  0.27399  0.78694  1.0000
  C   C163      1.0  0.23764  0.28590  0.69846  1.0000
  H   H143      1.0  0.46602  0.05191  0.90544  1.0000
  H   H144      1.0  0.12522  0.42175  0.74361  1.0000
  C   C164      1.0  0.13970  0.39289  0.70336  1.0000
  C   C165      1.0  0.23854  0.24698  0.75063  1.0000
  C   C166      1.0  0.30814  0.19823  0.83232  1.0000
  H   H145      1.0  0.32574  0.97788  0.99314  1.0000
  C   C167      1.0  0.34268  0.24846  0.72470  1.0000
  C   C168      1.0  0.08335  0.43238  0.68703  1.0000
  C   C169      1.0  0.37123  0.31338  0.70817  1.0000
  C   C170      1.0  0.06248  0.44877  0.79641  1.0000
  H   H146      1.0  0.23802  0.23094  0.77058  1.0000
  Fe  Fe16      1.0  0.44400  0.97730  0.85592  1.0000
  H   H147      1.0  0.03432  0.39736  0.98719  1.0000
  H   H148      1.0  0.45300  0.27188  0.75089  1.0000
  C   C171      1.0  0.20939  0.26695  0.74457  1.0000
  C   C172      1.0  0.00391  0.35643  0.96573  1.0000
  C   C173      1.0  0.29956  0.09415  0.69001  1.0000
  C   C174      1.0  0.41321  0.24947  0.78139  1.0000
  H   H149      1.0  0.28854  0.26513  0.68832  1.0000
  H   H150      1.0  0.00922  0.32881  0.97769  1.0000
  H   H151      1.0  0.06177  0.44698  0.68003  1.0000
  C   C175      1.0  0.47299  0.00364  0.75643  1.0000
  H   H152      1.0  0.33313  0.19260  0.68072  1.0000
  C   C176      1.0  0.08216  0.46074  0.92359  1.0000
  H   H153      1.0  0.18642  0.30182  0.71372  1.0000
  C   C177      1.0  0.46692  0.97745  0.68539  1.0000
  C   C178      1.0  0.47709  0.08984  0.70065  1.0000
  H   H154      1.0  0.12429  0.44437  0.89270  1.0000
  C   C179      1.0  0.31735  0.12837  0.67694  1.0000
  C   C180      1.0  0.03307  0.63963  0.18263  1.0000
  H   H155      1.0  0.12949  0.80620  0.03254  1.0000
  Fe  Fe17      1.0  0.39135  0.93030  0.11977  1.0000
  S   S28       1.0  0.37727  0.86036  0.12128  1.0000
  C   C181      1.0  0.11900  0.77526  0.02944  1.0000
  C   C182      1.0  0.11101  0.59310  0.04773  1.0000
  Fe  Fe18      1.0  0.20528  0.51683  0.33030  1.0000
  S   S29       1.0  0.22425  0.57635  0.30678  1.0000
  Fe  Fe19      1.0  0.22066  0.70898  0.12218  1.0000
  S   S30       1.0  0.26083  0.66026  0.11268  1.0000
  S   S31       1.0  0.23096  0.77905  0.12835  1.0000
  Fe  Fe20      1.0  0.16416  0.64310  0.11911  1.0000
  S   S32       1.0  0.20097  0.59017  0.10939  1.0000
  S   S33       1.0  0.10748  0.63724  0.11953  1.0000
  Fe  Fe21      1.0  0.22766  0.61908  0.14313  1.0000
  S   S34       1.0  0.25088  0.57597  0.17310  1.0000
  Fe  Fe22      1.0  0.23052  0.63630  0.08007  1.0000
  S   S35       1.0  0.18884  0.66939  0.15482  1.0000
  S   S36       1.0  0.19222  0.68780  0.08752  1.0000
  C   C183      1.0  0.22752  0.57429  0.26961  1.0000
  C   C184      1.0  0.24179  0.53928  0.25483  1.0000
  C   C185      1.0  0.24813  0.54010  0.22529  1.0000
  C   C186      1.0  0.23951  0.57542  0.21013  1.0000
  C   C187      1.0  0.22382  0.60983  0.22484  1.0000
  C   C188      1.0  0.21821  0.60939  0.25451  1.0000
  H   H156      1.0  0.24916  0.51210  0.26618  1.0000
  C   C189      1.0  0.07479  0.49037  0.03471  1.0000
  H   H157      1.0  0.21707  0.63729  0.21344  1.0000
  H   H158      1.0  0.20704  0.63649  0.26581  1.0000
  C   C190      1.0  0.04099  0.51801  0.13397  1.0000
  C   C191      1.0  0.07543  0.51565  0.13616  1.0000
  C   C192      1.0  0.09641  0.55148  0.13112  1.0000
  C   C193      1.0  0.08309  0.59012  0.12391  1.0000
  C   C194      1.0  0.04890  0.59211  0.12092  1.0000
  C   C195      1.0  0.02795  0.55641  0.12603  1.0000
  H   H159      1.0  0.12271  0.54940  0.13330  1.0000
  H   H160      1.0  0.03835  0.62174  0.11523  1.0000
  H   H161      1.0  0.13042  0.53149  0.25983  1.0000
  H   H162      1.0  0.09926  0.49830  0.03999  1.0000
  C   C196      1.0  0.10478  0.60226  0.02038  1.0000
  C   C197      1.0  0.02288  0.66486  0.05770  1.0000
  H   H163      1.0  0.12898  0.63290  0.31891  1.0000
  C   C198      1.0  0.33634  0.83884  0.12241  1.0000
  C   C199      1.0  0.33266  0.79480  0.12038  1.0000
  C   C200      1.0  0.30064  0.77601  0.12246  1.0000
  C   C201      1.0  0.27184  0.80119  0.12641  1.0000
  C   C202      1.0  0.27550  0.84527  0.12832  1.0000
  C   C203      1.0  0.30757  0.86406  0.12627  1.0000
  H   H164      1.0  0.35475  0.77509  0.11724  1.0000
  H   H165      1.0  0.29830  0.74209  0.12095  1.0000
  H   H166      1.0  0.25340  0.86503  0.13131  1.0000
  H   H167      1.0  0.30999  0.89799  0.12791  1.0000
  C   C204      1.0  0.05876  0.52660  0.34153  1.0000
  H   H168      1.0  0.05391  0.47774  0.07778  1.0000
  C   C205      1.0  0.99964  0.64121  0.19524  1.0000
  C   C206      1.0  0.42802  0.92345  0.23490  1.0000
  C   C207      1.0  0.20339  0.64230  0.01149  1.0000
  H   H169      1.0  0.19357  0.51321  0.15759  1.0000
  H   H170      1.0  0.40174  0.91562  0.24067  1.0000
  H   H171      1.0  0.43120  0.89487  0.19396  1.0000
  H   H172      1.0  0.43170  0.95441  0.27390  1.0000
  C   C208      1.0  0.32478  0.85842  0.20086  1.0000
  C   C209      1.0  0.32577  0.87775  0.22684  1.0000
  C   C210      1.0  0.31869  0.85410  0.25157  1.0000
  C   C211      1.0  0.31120  0.81095  0.25026  1.0000
  C   C212      1.0  0.31152  0.79094  0.22414  1.0000
  C   C213      1.0  0.31704  0.81543  0.19954  1.0000
  P   P6        1.0  0.30015  0.73581  0.22234  1.0000
  C   C214      1.0  0.25513  0.73495  0.22410  1.0000
  C   C215      1.0  0.31962  0.71117  0.19036  1.0000
  C   C216      1.0  0.35107  0.72501  0.17706  1.0000
  C   C217      1.0  0.36676  0.70428  0.15309  1.0000
  C   C218      1.0  0.35167  0.66891  0.14273  1.0000
  C   C219      1.0  0.32100  0.65409  0.15646  1.0000
  C   C220      1.0  0.30485  0.67527  0.18004  1.0000
  C   C221      1.0  0.23435  0.72622  0.24946  1.0000
  C   C222      1.0  0.19944  0.72653  0.25053  1.0000
  C   C223      1.0  0.18507  0.73666  0.22655  1.0000
  C   C224      1.0  0.20561  0.74676  0.20154  1.0000
  C   C225      1.0  0.24050  0.74565  0.20024  1.0000
  C   C226      1.0  0.31389  0.70366  0.24960  1.0000
  C   C227      1.0  0.29847  0.66442  0.25628  1.0000
  C   C228      1.0  0.35226  0.68972  0.28332  1.0000
  C   C229      1.0  0.34154  0.71561  0.26268  1.0000
  C   C230      1.0  0.11830  0.69970  0.03772  1.0000
  H   H173      1.0  0.33132  0.91124  0.22777  1.0000
  H   H174      1.0  0.31851  0.86942  0.27174  1.0000
  H   H175      1.0  0.30478  0.79336  0.26960  1.0000
  H   H176      1.0  0.31512  0.80150  0.17927  1.0000
  H   H177      1.0  0.36355  0.75177  0.18507  1.0000
  H   H178      1.0  0.39058  0.71579  0.14249  1.0000
  H   H179      1.0  0.36372  0.65283  0.12414  1.0000
  H   H180      1.0  0.30958  0.62610  0.14882  1.0000
  H   H181      1.0  0.28106  0.66314  0.19034  1.0000
  H   H182      1.0  0.24494  0.71909  0.26840  1.0000
  H   H183      1.0  0.18352  0.71883  0.26995  1.0000
  H   H184      1.0  0.15805  0.73689  0.22729  1.0000
  H   H185      1.0  0.19453  0.75535  0.18302  1.0000
  H   H186      1.0  0.25604  0.75342  0.18063  1.0000
  H   H187      1.0  0.27835  0.65347  0.24534  1.0000
  H   H188      1.0  0.37351  0.69910  0.29346  1.0000
  H   H189      1.0  0.35512  0.74450  0.25670  1.0000
  C   C231      1.0  0.03754  0.63304  0.03972  1.0000
  H   H190      1.0  0.05180  0.62523  0.26600  1.0000
  C   C232      1.0  0.27003  0.77629  0.04977  1.0000
  C   C233      1.0  0.01205  0.46746  0.02136  1.0000
  H   H191      1.0  0.03212  0.49614  0.20072  1.0000
  C   C234      1.0  0.04933  0.47833  0.05604  1.0000
  H   H192      1.0  0.14303  0.56154  0.07343  1.0000
  C   C235      1.0  0.05267  0.48427  0.26678  1.0000
  C   C236      1.0  0.98887  0.61588  0.21861  1.0000
  H   H193      1.0  0.04162  0.65925  0.16452  1.0000
  H   H194      1.0  0.13072  0.60201  0.20698  1.0000
  H   H195      1.0  0.18261  0.58531  0.17621  1.0000
  C   C237      1.0  0.48397  0.92481  0.31455  1.0000
  C   C238      1.0  0.13169  0.73975  0.04158  1.0000
  C   C239      1.0  0.11799  0.61722  0.30235  1.0000
  P   P7        1.0  0.07493  0.64323  0.01525  1.0000
  H   H196      1.0  0.09630  0.60808  0.06556  1.0000
  C   C240      1.0  0.47927  0.95615  0.24639  1.0000
  H   H197      1.0  0.03404  0.56766  0.02741  1.0000
  H   H198      1.0  0.15191  0.74324  0.05414  1.0000
  C   C241      1.0  0.33584  0.65145  0.29063  1.0000
  C   C242      1.0  0.05560  0.61212  0.19296  1.0000
  H   H199      1.0  0.15496  0.56771  0.29738  1.0000
  H   H200      1.0  0.19130  0.65066  0.03221  1.0000
  H   H201      1.0  0.12867  0.67301  0.04755  1.0000
  S   S37       1.0  0.25752  0.61874  0.03699  1.0000
  H   H202      1.0  0.00163  0.55894  0.12426  1.0000
  C   C243      1.0  0.01148  0.58870  0.22915  1.0000
  C   C244      1.0  0.30905  0.63873  0.27698  1.0000
  H   H203      1.0  0.26019  0.51334  0.21412  1.0000
  C   C245      1.0  0.10989  0.53904  0.20535  1.0000
  S   S38       1.0  0.41096  0.96116  0.15651  1.0000
  C   C246      1.0  0.13753  0.56669  0.05223  1.0000
  H   H204      1.0  0.08116  0.61118  0.18252  1.0000
  C   C247      1.0  0.02288  0.59267  0.04089  1.0000
  C   C248      1.0  0.27556  0.81292  0.03357  1.0000
  H   H205      1.0  0.07676  0.66082  0.30355  1.0000
  C   C249      1.0  0.13261  0.58040  0.29031  1.0000
  C   C250      1.0  0.26469  0.73779  0.03700  1.0000
  H   H206      1.0  0.29648  0.60877  0.28224  1.0000
  C   C251      1.0  0.17005  0.52022  0.17066  1.0000
  H   H207      1.0  0.08589  0.48605  0.14203  1.0000
  C   C252      1.0  0.16399  0.56099  0.18113  1.0000
  C   C253      1.0  0.08872  0.63298  0.29361  1.0000
  C   C254      1.0  0.44453  0.91199  0.20854  1.0000
  H   H208      1.0  0.27982  0.84267  0.04371  1.0000
  C   C255      1.0  0.07438  0.61235  0.27245  1.0000
  C   C256      1.0  0.13430  0.57038  0.19850  1.0000
  H   H209      1.0  0.32961  0.87684  0.18165  1.0000
  C   C257      1.0  0.04486  0.58606  0.21610  1.0000
  P   P8        1.0  0.07349  0.55105  0.23048  1.0000
  C   C258      1.0  0.08939  0.57582  0.25981  1.0000
  C   C259      1.0  0.03327  0.48244  0.22129  1.0000
  C   C260      1.0  0.11845  0.55977  0.26911  1.0000
  S   S39       1.0  0.01517  0.47249  0.14148  1.0000
  H   H210      1.0  0.26990  0.77764  0.07224  1.0000
  C   C261      1.0  0.05121  0.50276  0.24049  1.0000
  H   H211      1.0  0.03405  0.69598  0.05771  1.0000
  H   H212      1.0  0.43982  0.93366  0.02443  1.0000
  C   C262      1.0  0.11599  0.49793  0.19472  1.0000
  H   H213      1.0  0.00310  0.56981  0.24758  1.0000
  C   C263      1.0  0.09217  0.69479  0.02138  1.0000
  S   S40       1.0  0.08190  0.47864  0.33707  1.0000
  H   H214      1.0  0.09814  0.47269  0.19994  1.0000
  H   H215      1.0  0.26066  0.70935  0.04961  1.0000
  H   H216      1.0  0.17869  0.52873  0.03279  1.0000
  H   H217      1.0  0.38182  0.90821  0.03247  1.0000
  C   C264      1.0  0.44521  0.94554  0.25368  1.0000
  C   C265      1.0  0.47803  0.92342  0.20068  1.0000
  H   H218      1.0  0.34408  0.63130  0.30656  1.0000
  C   C266      1.0  0.39516  0.90912  0.01125  1.0000
  C   C267      1.0  0.99357  0.58443  0.05936  1.0000
  C   C268      1.0  0.15740  0.54801  0.02939  1.0000
  C   C269      1.0  0.14595  0.48869  0.17736  1.0000
  H   H219      1.0  0.06651  0.49923  0.28181  1.0000
  S   S41       1.0  0.43688  0.94945  0.08955  1.0000
  C   C270      1.0  0.46686  0.91081  0.34027  1.0000
  C   C271      1.0  0.00588  0.56448  0.34048  1.0000
  C   C272      1.0  0.99362  0.65649  0.07624  1.0000
  C   C273      1.0  0.09276  0.77082  0.01346  1.0000
  C   C274      1.0  0.02537  0.52749  0.33595  1.0000
  H   H220      1.0  0.01467  0.49969  0.32765  1.0000
  Fe  Fe23      1.0  0.13733  0.47538  0.34251  1.0000
  C   C275      1.0  0.01798  0.46666  0.04932  1.0000
  S   S42       1.0  0.18063  0.46573  0.30798  1.0000
  C   C276      1.0  0.04000  0.49549  0.54470  1.0000
  S   S43       1.0  0.26692  0.47752  0.61178  1.0000
  C   C277      1.0  0.05312  0.60037  0.35579  1.0000
  C   C278      1.0  0.05981  0.50770  0.49544  1.0000
  C   C279      1.0  0.03390  0.50983  0.51819  1.0000
  C   C280      1.0  0.19823  0.47734  0.46132  1.0000
  H   H221      1.0  0.05069  0.62433  0.44359  1.0000
  C   C281      1.0  0.01974  0.60118  0.35039  1.0000
  Fe  Fe24      1.0  0.23560  0.49093  0.57739  1.0000
  H   H222      1.0  0.06412  0.62858  0.36337  1.0000
  S   S44       1.0  0.20176  0.53635  0.60343  1.0000
  C   C282      1.0  0.01593  0.66302  0.50481  1.0000
  S   S45       1.0  0.03011  0.65379  0.63373  1.0000
  H   H223      1.0  0.02822  0.70699  0.53612  1.0000
  Fe  Fe25      1.0  0.22927  0.51770  0.63926  1.0000
  C   C283      1.0  0.09081  0.48994  0.49881  1.0000
  H   H224      1.0  0.43178  0.92721  0.37674  1.0000
  H   H225      1.0  0.00814  0.58020  0.56490  1.0000
  C   C284      1.0  0.01898  0.64467  0.55328  1.0000
  C   C285      1.0  0.23628  0.49357  0.50515  1.0000
  C   C286      1.0  0.24647  0.50976  0.47805  1.0000
  C   C287      1.0  0.22738  0.50185  0.45615  1.0000
  P   P9        1.0  0.99500  0.53629  0.51440  1.0000
  Fe  Fe26      1.0  0.18360  0.47759  0.38848  1.0000
  S   S46       1.0  0.23986  0.57349  0.66651  1.0000
  H   H226      1.0  0.26875  0.52924  0.47416  1.0000
  H   H227      1.0  0.23477  0.51537  0.43554  1.0000
  S   S47       1.0  0.17191  0.46825  0.43564  1.0000
  H   H228      1.0  0.05628  0.52050  0.47524  1.0000
  C   C288      1.0  0.05300  0.60637  0.62674  1.0000
  C   C289      1.0  0.08778  0.60666  0.62726  1.0000
  C   C290      1.0  0.10654  0.56911  0.62331  1.0000
  C   C291      1.0  0.09061  0.53080  0.61911  1.0000
  C   C292      1.0  0.05592  0.53066  0.61801  1.0000
  C   C293      1.0  0.03725  0.56832  0.62151  1.0000
  H   H229      1.0  0.10023  0.63592  0.63125  1.0000
  H   H230      1.0  0.13321  0.56974  0.62420  1.0000
  C   C294      1.0  0.99198  0.49300  0.46387  1.0000
  C   C295      1.0  0.07100  0.47778  0.54803  1.0000
  S   S48       1.0  0.25910  0.50642  0.53281  1.0000
  C   C296      1.0  0.09635  0.47494  0.52512  1.0000
  H   H231      1.0  0.00419  0.54993  0.67369  1.0000
  H   H232      1.0  0.04437  0.50559  0.40189  1.0000
  C   C297      1.0  0.04381  0.56586  0.42288  1.0000
  H   H233      1.0  0.36375  0.62542  0.65090  1.0000
  H   H234      1.0  0.11209  0.68512  0.50316  1.0000
  C   C298      1.0  0.05851  0.75355  0.64660  1.0000
  C   C299      1.0  0.09536  0.58547  0.44057  1.0000
  Fe  Fe27      1.0  0.16933  0.48037  0.61624  1.0000
  H   H235      1.0  0.01876  0.57383  0.41878  1.0000
  H   H236      1.0  0.24637  0.64436  0.38773  1.0000
  S   S49       1.0  0.16112  0.52766  0.36376  1.0000
  C   C300      1.0  0.02183  0.67468  0.53176  1.0000
  H   H237      1.0  0.08674  0.75594  0.50682  1.0000
  C   C301      1.0  0.09083  0.51765  0.41775  1.0000
  H   H238      1.0  0.44632  0.92396  0.46473  1.0000
  C   C302      1.0  0.46885  0.88117  0.43290  1.0000
  S   S50       1.0  0.11290  0.48249  0.61569  1.0000
  H   H239      1.0  0.18234  0.54718  0.52485  1.0000
  H   H240      1.0  0.24050  0.66275  0.43846  1.0000
  H   H241      1.0  0.01776  0.78875  0.63322  1.0000
  C   C303      1.0  0.10152  0.69774  0.48540  1.0000
  C   C304      1.0  0.08738  0.73816  0.48750  1.0000
  C   C305      1.0  0.05813  0.52733  0.41344  1.0000
  H   H242      1.0  0.00288  0.61307  0.47841  1.0000
  H   H243      1.0  0.39496  0.68981  0.66173  1.0000
  H   H244      1.0  0.06349  0.78715  0.46622  1.0000
  H   H245      1.0  0.13486  0.53939  0.43398  1.0000
  H   H246      1.0  0.08247  0.58643  0.55680  1.0000
  H   H247      1.0  0.07447  0.75654  0.62661  1.0000
  H   H248      1.0  0.09191  0.67626  0.41742  1.0000
  C   C306      1.0  0.07250  0.56337  0.35136  1.0000
  H   H249      1.0  0.04333  0.50119  0.61483  1.0000
  H   H250      1.0  0.01053  0.56758  0.62103  1.0000
  C   C307      1.0  0.01013  0.60303  0.54795  1.0000
  H   H251      1.0  0.99251  0.78763  0.56885  1.0000
  C   C308      1.0  0.07440  0.75580  0.46462  1.0000
  H   H252      1.0  0.14257  0.60973  0.39653  1.0000
  C   C309      1.0  0.10931  0.54665  0.43127  1.0000
  C   C310      1.0  0.06224  0.59475  0.43661  1.0000
  H   H253      1.0  0.06641  0.74713  0.42154  1.0000
  H   H254      1.0  0.07582  0.61596  0.51017  1.0000
  H   H255      1.0  0.19728  0.61819  0.36701  1.0000
  C   C311      1.0  0.44518  0.93805  0.35690  1.0000
  H   H256      1.0  0.13589  0.55235  0.56416  1.0000
  H   H257      1.0  0.11086  0.48864  0.48121  1.0000
  C   C312      1.0  0.35358  0.64600  0.66799  1.0000
  C   C313      1.0  0.00717  0.62132  0.49940  1.0000
  H   H258      1.0  0.18590  0.65416  0.46849  1.0000
  H   H259      1.0  0.17552  0.57386  0.47786  1.0000
  C   C314      1.0  0.02651  0.77153  0.65027  1.0000
  C   C315      1.0  0.10292  0.58475  0.53958  1.0000
  C   C316      1.0  0.13299  0.56547  0.54378  1.0000
  C   C317      1.0  0.15912  0.56228  0.52151  1.0000
  C   C318      1.0  0.15535  0.57836  0.49499  1.0000
  C   C319      1.0  0.12583  0.59976  0.49095  1.0000
  C   C320      1.0  0.09927  0.60149  0.51321  1.0000
  P   P10       1.0  0.12067  0.62230  0.45715  1.0000
  C   C321      1.0  0.10232  0.67441  0.46045  1.0000
  C   C322      1.0  0.16045  0.62961  0.43508  1.0000
  C   C323      1.0  0.18812  0.64590  0.44644  1.0000
  C   C324      1.0  0.21905  0.65104  0.42945  1.0000
  C   C325      1.0  0.22238  0.64078  0.40090  1.0000
  C   C326      1.0  0.19469  0.62598  0.38922  1.0000
  C   C327      1.0  0.16374  0.62079  0.40615  1.0000
  C   C328      1.0  0.09033  0.69300  0.43724  1.0000
  C   C329      1.0  0.07603  0.73330  0.43946  1.0000
  H   H260      1.0  0.27241  0.46822  0.40245  1.0000
  H   H261      1.0  0.10227  0.48816  0.40996  1.0000
  H   H262      1.0  0.02331  0.65372  0.57422  1.0000
  C   C330      1.0  0.00398  0.59104  0.52100  1.0000
  H   H263      1.0  0.01773  0.68638  0.48818  1.0000
  C   C331      1.0  0.20742  0.46854  0.51001  1.0000
  S   S51       1.0  0.99667  0.64888  0.35576  1.0000
  H   H264      1.0  0.07574  0.46710  0.56855  1.0000
  H   H265      1.0  0.45116  0.85595  0.43924  1.0000
  H   H266      1.0  0.02123  0.49883  0.56301  1.0000
  H   H267      1.0  0.09804  0.56336  0.35575  1.0000
  C   C332      1.0  0.47341  0.96344  0.63536  1.0000
  H   H268      1.0  0.09371  0.71498  0.66448  1.0000
  H   H269      1.0  0.47015  0.87869  0.34713  1.0000
  S   S52       1.0  0.23089  0.47217  0.35753  1.0000
  C   C333      1.0  0.46629  0.91963  0.44737  1.0000
  H   H270      1.0  0.00923  0.47036  0.47075  1.0000
  C   C334      1.0  0.06936  0.72987  0.66822  1.0000
  H   H271      1.0  0.16687  0.58288  0.67511  1.0000
  C   C335      1.0  0.37103  0.68239  0.67404  1.0000
  C   C336      1.0  0.00548  0.76645  0.67574  1.0000
  Fe  Fe28      1.0  0.14132  0.65459  0.84417  1.0000
  S   S53       1.0  0.16732  0.59822  0.85857  1.0000
  S   S54       1.0  0.08586  0.65300  0.83922  1.0000
  Fe  Fe29      1.0  0.20510  0.71080  0.84424  1.0000
  S   S55       1.0  0.23474  0.65726  0.85900  1.0000
  S   S56       1.0  0.22250  0.77948  0.83982  1.0000
  Fe  Fe30      1.0  0.21095  0.61891  0.82722  1.0000
  S   S57       1.0  0.23699  0.56833  0.79889  1.0000
  Fe  Fe31      1.0  0.18782  0.64221  0.88858  1.0000
  S   S58       1.0  0.17450  0.62963  0.93501  1.0000
  S   S59       1.0  0.18381  0.67329  0.81073  1.0000
  S   S60       1.0  0.15948  0.69799  0.87561  1.0000
  C   C337      1.0  0.14681  0.60352  0.68428  1.0000
  C   C338      1.0  0.20055  0.63358  0.96148  1.0000
  C   C339      1.0  0.23362  0.61899  0.95754  1.0000
  C   C340      1.0  0.25129  0.61530  0.98076  1.0000
  H   H272      1.0  0.28673  0.65329  0.71916  1.0000
  H   H273      1.0  0.13373  0.70424  0.70749  1.0000
  C   C341      1.0  0.18595  0.64624  0.98835  1.0000
  H   H274      1.0  0.24497  0.60866  0.93697  1.0000
  H   H275      1.0  0.27659  0.60304  0.97785  1.0000
  C   C342      1.0  0.15379  0.64523  0.69092  1.0000
  H   H276      1.0  0.16049  0.65771  0.99154  1.0000
  C   C343      1.0  0.23552  0.57027  0.70354  1.0000
  C   C344      1.0  0.24043  0.53235  0.71734  1.0000
  C   C345      1.0  0.24040  0.53203  0.74666  1.0000
  C   C346      1.0  0.23446  0.56928  0.76246  1.0000
  C   C347      1.0  0.22819  0.60682  0.74874  1.0000
  C   C348      1.0  0.22922  0.60737  0.71938  1.0000
  H   H277      1.0  0.24532  0.50289  0.75712  1.0000
  H   H278      1.0  0.22367  0.63574  0.76055  1.0000
  H   H279      1.0  0.22591  0.63690  0.70884  1.0000
  C   C349      1.0  0.00697  0.57087  0.84926  1.0000
  C   C350      1.0  0.02682  0.60777  0.84530  1.0000
  C   C351      1.0  0.06151  0.60632  0.84632  1.0000
  C   C352      1.0  0.07607  0.56769  0.85187  1.0000
  C   C353      1.0  0.05623  0.53095  0.85615  1.0000
  H   H280      1.0  0.01528  0.63759  0.84134  1.0000
  H   H281      1.0  0.10266  0.56586  0.85259  1.0000
  H   H282      1.0  0.06783  0.50141  0.86063  1.0000
  C   C354      1.0  0.32392  0.78944  0.84031  1.0000
  C   C355      1.0  0.29133  0.77228  0.84138  1.0000
  C   C356      1.0  0.26378  0.79906  0.84085  1.0000
  C   C357      1.0  0.26913  0.84300  0.84008  1.0000
  C   C358      1.0  0.30162  0.86011  0.83925  1.0000
  H   H283      1.0  0.28764  0.73841  0.84205  1.0000
  H   H284      1.0  0.24803  0.86401  0.83978  1.0000
  C   C359      1.0  0.33130  0.80718  0.71186  1.0000
  C   C360      1.0  0.02166  0.53219  0.85460  1.0000
  C   C361      1.0  0.24859  0.73164  0.71699  1.0000
  H   H285      1.0  0.19444  0.76656  0.78627  1.0000
  H   H286      1.0  0.16746  0.75268  0.74377  1.0000
  C   C362      1.0  0.23586  0.62596  0.00791  1.0000
  H   H287      1.0  0.44461  0.86747  0.80614  1.0000
  C   C363      1.0  0.44823  0.86977  0.78338  1.0000
  H   H288      1.0  0.37864  0.70047  0.81439  1.0000
  H   H289      1.0  0.34511  0.76856  0.84027  1.0000
  C   C364      1.0  0.19430  0.74878  0.74296  1.0000
  P   P11       1.0  0.30859  0.73324  0.74036  1.0000
  Fe  Fe32      1.0  0.38405  0.92172  0.84391  1.0000
  H   H290      1.0  0.45871  0.87873  0.70219  1.0000
  H   H291      1.0  0.07575  0.47772  0.79967  1.0000
  H   H292      1.0  0.01234  0.62798  0.99019  1.0000
  C   C365      1.0  0.31762  0.70499  0.95414  1.0000
  C   C366      1.0  0.03693  0.48136  0.99993  1.0000
  H   H293      1.0  0.25007  0.85731  0.94963  1.0000
  C   C367      1.0  0.28262  0.70067  0.91710  1.0000
  P   P12       1.0  0.27013  0.76905  0.95382  1.0000
  C   C368      1.0  0.12355  0.52085  0.74048  1.0000
  C   C369      1.0  0.29105  0.81433  0.93643  1.0000
  H   H294      1.0  0.24556  0.50364  0.70531  1.0000
  S   S61       1.0  0.99788  0.48485  0.85989  1.0000
  C   C370      1.0  0.29141  0.88930  0.92535  1.0000
  C   C371      1.0  0.27505  0.85384  0.93814  1.0000
  C   C372      1.0  0.06957  0.76953  0.74845  1.0000
  C   C373      1.0  0.10854  0.54277  0.91961  1.0000
  H   H295      1.0  0.00680  0.65090  0.69770  1.0000
  C   C374      1.0  0.22733  0.76720  0.94647  1.0000
  C   C375      1.0  0.20185  0.74895  0.96573  1.0000
  C   C376      1.0  0.16896  0.74691  0.95959  1.0000
  C   C377      1.0  0.16115  0.76321  0.93430  1.0000
  C   C378      1.0  0.18633  0.78135  0.91499  1.0000
  C   C379      1.0  0.21934  0.78304  0.92089  1.0000
  H   H296      1.0  0.29231  0.64774  0.88898  1.0000
  C   C380      1.0  0.04824  0.72419  0.69377  1.0000
  C   C381      1.0  0.03083  0.51567  0.70240  1.0000
  H   H297      1.0  0.30963  0.60731  0.67988  1.0000
  H   H298      1.0  0.26281  0.71286  0.90627  1.0000
  C   C382      1.0  0.00204  0.53117  0.69269  1.0000
  C   C383      1.0  0.11165  0.46938  0.90537  1.0000
  C   C384      1.0  0.08879  0.51712  0.74892  1.0000
  C   C385      1.0  0.24403  0.75111  0.76609  1.0000
  C   C386      1.0  0.11390  0.58850  0.68916  1.0000
  H   H299      1.0  0.98808  0.62252  0.80023  1.0000
  C   C387      1.0  0.30992  0.66218  0.70634  1.0000
  H   H300      1.0  0.13576  0.76095  0.92938  1.0000
  H   H301      1.0  0.18050  0.79326  0.89508  1.0000
  H   H302      1.0  0.23860  0.79617  0.90523  1.0000
  H   H303      1.0  0.26337  0.72298  0.69727  1.0000
  H   H304      1.0  0.13727  0.49796  0.72676  1.0000
  C   C388      1.0  0.08166  0.79519  0.76854  1.0000
  H   H305      1.0  0.11493  0.66390  0.96189  1.0000
  H   H306      1.0  0.27937  0.91999  0.92705  1.0000
  H   H307      1.0  0.31861  0.79648  0.78311  1.0000
  C   C389      1.0  0.32401  0.78703  0.73807  1.0000
  H   H308      1.0  0.35392  0.90432  0.73363  1.0000
  C   C390      1.0  0.26466  0.73588  0.00799  1.0000
  C   C391      1.0  0.02549  0.66171  0.73734  1.0000
  H   H309      1.0  0.17931  0.65677  0.68664  1.0000
  H   H310      1.0  0.05502  0.78390  0.73370  1.0000
  H   H311      1.0  0.33618  0.78062  0.91932  1.0000
  C   C392      1.0  0.47169  0.89819  0.76966  1.0000
  C   C393      1.0  0.33401  0.66789  0.94432  1.0000
  C   C394      1.0  0.42841  0.84531  0.76796  1.0000
  H   H312      1.0  0.25539  0.75728  0.78484  1.0000
  H   H313      1.0  0.32794  0.79066  0.69273  1.0000
  P   P13       1.0  0.06553  0.47158  0.73964  1.0000
  H   H314      1.0  0.05512  0.52239  0.69050  1.0000
  C   C395      1.0  0.06571  0.49319  0.93996  1.0000
  C   C396      1.0  0.20944  0.75650  0.76691  1.0000
  C   C397      1.0  0.32611  0.81035  0.76261  1.0000
  H   H315      1.0  0.16586  0.54110  0.98435  1.0000
  C   C398      1.0  0.06513  0.64385  0.97964  1.0000
  C   C399      1.0  0.09003  0.65574  0.95762  1.0000
  C   C400      1.0  0.08312  0.65696  0.92994  1.0000
  C   C401      1.0  0.05088  0.64806  0.92408  1.0000
  C   C402      1.0  0.02548  0.63820  0.94601  1.0000
  C   C403      1.0  0.03252  0.63569  0.97368  1.0000
  H   H316      1.0  0.30529  0.89397  0.83817  1.0000
  C   C404      1.0  0.12791  0.67190  0.70267  1.0000
  C   C405      1.0  0.26380  0.73817  0.74125  1.0000
  H   H317      1.0  0.11888  0.57451  0.91807  1.0000
  H   H318      1.0  0.11984  0.58795  0.97624  1.0000
  C   C406      1.0  0.32337  0.81068  0.92129  1.0000
  H   H319      1.0  0.10281  0.66479  0.91301  1.0000
  H   H320      1.0  0.04558  0.64921  0.90256  1.0000
  H   H321      1.0  0.36492  0.73963  0.77313  1.0000
  C   C407      1.0  0.45616  0.87669  0.72485  1.0000
  H   H322      1.0  0.33911  0.86985  0.78007  1.0000
  C   C408      1.0  0.21390  0.73649  0.71797  1.0000
  C   C409      1.0  0.99781  0.52347  0.95944  1.0000
  C   C410      1.0  0.99225  0.62924  0.77793  1.0000
  H   H323      1.0  0.07629  0.82874  0.76918  1.0000
  C   C411      1.0  0.32931  0.83341  0.83884  1.0000
  C   C412      1.0  0.34778  0.71556  0.78253  1.0000
  C   C413      1.0  0.09470  0.65699  0.70772  1.0000
  C   C414      1.0  0.08784  0.61513  0.70059  1.0000
  P   P14       1.0  0.06124  0.69236  0.72161  1.0000
  C   C415      1.0  0.07633  0.72596  0.74762  1.0000
  C   C416      1.0  0.42929  0.91277  0.95653  1.0000
  H   H324      1.0  0.00030  0.63271  0.94149  1.0000
  H   H325      1.0  0.06668  0.55969  0.95017  1.0000
  C   C417      1.0  0.15009  0.55487  0.00215  1.0000
  C   C418      1.0  0.30547  0.65114  0.80642  1.0000
  H   H326      1.0  0.00903  0.52308  0.91409  1.0000
  H   H327      1.0  0.28016  0.83991  0.99247  1.0000
  H   H328      1.0  0.04532  0.54639  0.77298  1.0000
  C   C419      1.0  0.10043  0.77758  0.78799  1.0000
  C   C420      1.0  0.10726  0.73435  0.78727  1.0000
  C   C421      1.0  0.09550  0.70866  0.76708  1.0000
  C   C422      1.0  0.43248  0.84861  0.73869  1.0000
  H   H329      1.0  0.14969  0.73187  0.97426  1.0000
  C   C423      1.0  0.34559  0.87166  0.73479  1.0000
  C   C424      1.0  0.06867  0.49218  0.00674  1.0000
  C   C425      1.0  0.47577  0.90208  0.74028  1.0000
  H   H330      1.0  0.38306  0.89061  0.94376  1.0000
  H   H331      1.0  0.41694  0.82973  0.72680  1.0000
  S   S62       1.0  0.37107  0.85345  0.83402  1.0000
  H   H332      1.0  0.06249  0.60296  0.70358  1.0000
  C   C426      1.0  0.27004  0.77248  0.99143  1.0000
  H   H333      1.0  0.27441  0.66561  0.77500  1.0000
  H   H334      1.0  0.32531  0.72073  0.97221  1.0000
  H   H335      1.0  0.20229  0.73101  0.69928  1.0000
  H   H336      1.0  0.10950  0.79729  0.80380  1.0000
  H   H337      1.0  0.12126  0.72056  0.80270  1.0000
  H   H338      1.0  0.10099  0.67521  0.76696  1.0000
  C   C427      1.0  0.32480  0.64721  0.92088  1.0000
  C   C428      1.0  0.01992  0.65345  0.76637  1.0000
  C   C429      1.0  0.29698  0.67409  0.78358  1.0000
  H   H339      1.0  0.34092  0.64338  0.83566  1.0000
  C   C430      1.0  0.33948  0.84616  0.90831  1.0000
  C   C431      1.0  0.14131  0.55493  0.74966  1.0000
  C   C432      1.0  0.12460  0.58573  0.76702  1.0000
  C   C433      1.0  0.08994  0.58279  0.77491  1.0000
  H   H340      1.0  0.36425  0.84326  0.89635  1.0000
  H   H341      1.0  0.40958  0.82425  0.77882  1.0000
  H   H342      1.0  0.99975  0.73932  0.71706  1.0000
  C   C434      1.0  0.33731  0.85225  0.76095  1.0000
  C   C435      1.0  0.32647  0.69970  0.71180  1.0000
  C   C436      1.0  0.31779  0.70699  0.77175  1.0000
  H   H343      1.0  0.28946  0.62542  0.81516  1.0000
  C   C437      1.0  0.00285  0.64556  0.72023  1.0000
  C   C438      1.0  0.35588  0.69304  0.80573  1.0000
  C   C439      1.0  0.07207  0.54865  0.76599  1.0000
  H   H344      1.0  0.35360  0.65497  0.95511  1.0000
  C   C440      1.0  0.34237  0.84923  0.71024  1.0000
  C   C441      1.0  0.29121  0.72107  0.94103  1.0000
  C   C442      1.0  0.33465  0.66096  0.81775  1.0000
  C   C443      1.0  0.12385  0.58184  0.99761  1.0000
  H   H345      1.0  0.16812  0.55740  0.74329  1.0000
  H   H346      1.0  0.13857  0.61169  0.77451  1.0000
  H   H347      1.0  0.07699  0.60655  0.78842  1.0000
  H   H348      1.0  0.33720  0.61817  0.91349  1.0000
  C   C444      1.0  0.29939  0.66383  0.90712  1.0000
  C   C445      1.0  0.32355  0.88541  0.91042  1.0000
  P   P15       1.0  0.02807  0.48264  0.96402  1.0000
  C   C446      1.0  0.12488  0.51032  0.90347  1.0000
  H   H349      1.0  0.34794  0.86469  0.69000  1.0000
  C   C447      1.0  0.27563  0.81112  0.00447  1.0000
  C   C448      1.0  0.37892  0.89704  0.98865  1.0000
  C   C449      1.0  0.07901  0.53429  0.93774  1.0000
  C   C450      1.0  0.99299  0.53551  0.93217  1.0000
  H   H350      1.0  0.03679  0.66531  0.78022  1.0000
  C   C451      1.0  0.01637  0.74313  0.69749  1.0000
  H   H351      1.0  0.20721  0.73558  0.98530  1.0000
  H   H352      1.0  0.14781  0.51696  0.88947  1.0000
  C   C452      1.0  0.44563  0.92589  0.97904  1.0000
  S   S63       1.0  0.40944  0.93221  0.88210  1.0000
  H   H353      1.0  0.44229  0.91322  0.93524  1.0000
  C   C453      1.0  0.39593  0.89907  0.96130  1.0000
  H   H354      1.0  0.26053  0.70572  0.99847  1.0000
  H   H355      1.0  0.08880  0.50175  0.99067  1.0000
  H   H356      1.0  0.33605  0.91293  0.90053  1.0000
  H   H357      1.0  0.05896  0.72799  0.99706  1.0000
  H   H358      1.0  0.37188  0.73648  0.70087  1.0000
  C   C454      1.0  0.42824  0.92385  0.00650  1.0000
  H   H359      1.0  0.10868  0.55627  0.68356  1.0000
  C   C455      1.0  0.99625  0.48459  0.74255  1.0000
  H   H360      1.0  0.08285  0.79841  0.00412  1.0000
  C   C456      1.0  0.35769  0.70902  0.69605  1.0000
  H   H361      1.0  0.35292  0.88701  0.99228  1.0000
  C   C457      1.0  0.02814  0.49125  0.72703  1.0000
  H   H362      1.0  0.48614  0.91763  0.78209  1.0000
  S   S64       1.0  0.42219  0.96169  0.81654  1.0000
  C   C458      1.0  0.07933  0.73081  0.00948  1.0000
  C   C459      1.0  0.32312  0.63577  0.68427  1.0000
  H   H363      1.0  0.99329  0.46790  0.76241  1.0000
  C   C460      1.0  0.52062  0.23821  0.12453  1.0000
  H   H364      1.0  0.53330  0.10215  0.20698  1.0000
  S   S65       1.0  0.72076  0.06449  0.31808  1.0000
  Fe  Fe33      1.0  0.71504  0.14853  0.09716  1.0000
  S   S66       1.0  0.68063  0.20328  0.10768  1.0000
  Fe  Fe34      1.0  0.70578  0.11931  0.15871  1.0000
  S   S67       1.0  0.67177  0.17378  0.17305  1.0000
  S   S68       1.0  0.71494  0.06338  0.18639  1.0000
  Fe  Fe35      1.0  0.64743  0.15807  0.13483  1.0000
  S   S69       1.0  0.59117  0.15875  0.13304  1.0000
  Fe  Fe36      1.0  0.70890  0.21344  0.14413  1.0000
  S   S70       1.0  0.72480  0.28214  0.14928  1.0000
  S   S71       1.0  0.67981  0.10219  0.12147  1.0000
  S   S72       1.0  0.74469  0.15999  0.13284  1.0000
  H   H365      1.0  0.77869  0.23850  0.08273  1.0000
  S   S73       1.0  0.94030  0.42535  0.10672  1.0000
  Fe  Fe37      1.0  0.89419  0.41789  0.13834  1.0000
  S   S74       1.0  0.87501  0.34994  0.14451  1.0000
  C   C461      1.0  0.71136  0.02698  0.26765  1.0000
  H   H366      1.0  0.72201  0.23330  0.06027  1.0000
  C   C462      1.0  0.62273  0.20114  0.01978  1.0000
  H   H367      1.0  0.87799  0.32077  0.21320  1.0000
  C   C463      1.0  0.76707  0.30015  0.14540  1.0000
  C   C464      1.0  0.77339  0.34385  0.14526  1.0000
  C   C465      1.0  0.80632  0.35972  0.14432  1.0000
  C   C466      1.0  0.83341  0.33188  0.14320  1.0000
  C   C467      1.0  0.82717  0.28814  0.14259  1.0000
  C   C468      1.0  0.79421  0.27231  0.14371  1.0000
  H   H368      1.0  0.75258  0.36544  0.14619  1.0000
  H   H369      1.0  0.81068  0.39337  0.14531  1.0000
  H   H370      1.0  0.84792  0.26630  0.14176  1.0000
  H   H371      1.0  0.78983  0.23858  0.14376  1.0000
  C   C469      1.0  0.71714  0.06441  0.28172  1.0000
  C   C470      1.0  0.72098  0.10242  0.26642  1.0000
  C   C471      1.0  0.71903  0.10300  0.23734  1.0000
  C   C472      1.0  0.71391  0.06537  0.22328  1.0000
  H   H372      1.0  0.72565  0.13145  0.27708  1.0000
  H   H373      1.0  0.72245  0.13221  0.22561  1.0000
  C   C473      1.0  0.56936  0.11013  0.13165  1.0000
  C   C474      1.0  0.58177  0.07254  0.14154  1.0000
  C   C475      1.0  0.56295  0.03489  0.14170  1.0000
  C   C476      1.0  0.53155  0.03441  0.13204  1.0000
  C   C477      1.0  0.51962  0.07179  0.12143  1.0000
  C   C478      1.0  0.53844  0.10938  0.12120  1.0000
  H   H374      1.0  0.60558  0.07259  0.14954  1.0000
  H   H375      1.0  0.73492  0.44727  0.13474  1.0000
  H   H376      1.0  0.52893  0.13784  0.11278  1.0000
  C   C479      1.0  0.66700  0.37750  0.26165  1.0000
  H   H377      1.0  0.49542  0.25426  0.24705  1.0000
  H   H378      1.0  0.94014  0.30754  0.10523  1.0000
  P   P16       1.0  0.76974  0.43750  0.22933  1.0000
  C   C480      1.0  0.63758  0.24705  0.05644  1.0000
  C   C481      1.0  0.83563  0.41190  0.23107  1.0000
  C   C482      1.0  0.92956  0.45865  0.29918  1.0000
  H   H379      1.0  0.92898  0.40821  0.26876  1.0000
  C   C483      1.0  0.51470  0.11149  0.27731  1.0000
  C   C484      1.0  0.61479  0.27216  0.30517  1.0000
  C   C485      1.0  0.59933  0.23464  0.29799  1.0000
  C   C486      1.0  0.57487  0.21557  0.31775  1.0000
  P   P17       1.0  0.60967  0.21176  0.26343  1.0000
  C   C487      1.0  0.64944  0.23280  0.24694  1.0000
  C   C488      1.0  0.61478  0.15538  0.26654  1.0000
  C   C489      1.0  0.61108  0.12872  0.24383  1.0000
  C   C490      1.0  0.61865  0.08577  0.24513  1.0000
  C   C491      1.0  0.62984  0.06911  0.26910  1.0000
  C   C492      1.0  0.63360  0.09536  0.29174  1.0000
  C   C493      1.0  0.62610  0.13832  0.29055  1.0000
  C   C494      1.0  0.65061  0.27044  0.23129  1.0000
  C   C495      1.0  0.68131  0.28609  0.21800  1.0000
  C   C496      1.0  0.71106  0.26473  0.22058  1.0000
  C   C497      1.0  0.71019  0.22775  0.23652  1.0000
  C   C498      1.0  0.67956  0.21183  0.24970  1.0000
  C   C499      1.0  0.57728  0.22343  0.24196  1.0000
  C   C500      1.0  0.54475  0.23466  0.25427  1.0000
  C   C501      1.0  0.52044  0.24556  0.23739  1.0000
  C   C502      1.0  0.52837  0.24533  0.20815  1.0000
  C   C503      1.0  0.56029  0.23291  0.19572  1.0000
  C   C504      1.0  0.58464  0.22203  0.21252  1.0000
  P   P18       1.0  0.86836  0.32775  0.03088  1.0000
  C   C505      1.0  0.74737  0.33617  0.01915  1.0000
  C   C506      1.0  0.85403  0.20261  0.05116  1.0000
  H   H380      1.0  0.63357  0.28764  0.29033  1.0000
  H   H381      1.0  0.56220  0.18697  0.31256  1.0000
  H   H382      1.0  0.60345  0.14101  0.22471  1.0000
  H   H383      1.0  0.61694  0.06578  0.22713  1.0000
  H   H384      1.0  0.63667  0.03617  0.26992  1.0000
  H   H385      1.0  0.81057  0.17223  0.07421  1.0000
  H   H386      1.0  0.63040  0.15827  0.30797  1.0000
  H   H387      1.0  0.62782  0.28735  0.22893  1.0000
  H   H388      1.0  0.68211  0.31422  0.20503  1.0000
  H   H389      1.0  0.73470  0.27630  0.20960  1.0000
  H   H390      1.0  0.73322  0.21077  0.23810  1.0000
  H   H391      1.0  0.67958  0.18279  0.26158  1.0000
  H   H392      1.0  0.53794  0.23534  0.27683  1.0000
  H   H393      1.0  0.96133  0.35201  0.30883  1.0000
  C   C507      1.0  0.74959  0.44353  0.17613  1.0000
  H   H394      1.0  0.56629  0.23147  0.17302  1.0000
  H   H395      1.0  0.60927  0.21271  0.20243  1.0000
  S   S75       1.0  0.74433  0.14737  0.05330  1.0000
  H   H396      1.0  0.72542  0.30061  0.08621  1.0000
  C   C508      1.0  0.83684  0.38544  0.06980  1.0000
  C   C509      1.0  0.57533  0.06007  0.01947  1.0000
  C   C510      1.0  0.93458  0.35574  0.03178  1.0000
  C   C511      1.0  0.51229  0.19671  0.04792  1.0000
  C   C512      1.0  0.93895  0.31999  0.08436  1.0000
  C   C513      1.0  0.85707  0.34239  0.21759  1.0000
  H   H397      1.0  0.57251  0.00614  0.14978  1.0000
  C   C514      1.0  0.50562  0.27197  0.11235  1.0000
  H   H398      1.0  0.51193  0.08884  0.04736  1.0000
  C   C515      1.0  0.93243  0.44167  0.27195  1.0000
  H   H399      1.0  0.79356  0.43440  0.28413  1.0000
  H   H400      1.0  0.70617  0.99820  0.22782  1.0000
  C   C516      1.0  0.72417  0.13559  0.02390  1.0000
  C   C517      1.0  0.50321  0.12099  0.05076  1.0000
  H   H401      1.0  0.50964  0.25405  0.19510  1.0000
  H   H402      1.0  0.84029  0.44374  0.23765  1.0000
  H   H403      1.0  0.89361  0.24118  0.02985  1.0000
  C   C518      1.0  0.81712  0.27740  0.05946  1.0000
  C   C519      1.0  0.80341  0.23923  0.07045  1.0000
  C   C520      1.0  0.70990  0.02748  0.23859  1.0000
  C   C521      1.0  0.50129  0.21108  0.14323  1.0000
  C   C522      1.0  0.96672  0.34057  0.06963  1.0000
  C   C523      1.0  0.61016  0.23183  0.07473  1.0000
  C   C524      1.0  0.59458  0.18658  0.03777  1.0000
  H   H404      1.0  0.88733  0.39351  0.22972  1.0000
  H   H405      1.0  0.66572  0.24244  0.01517  1.0000
  H   H406      1.0  0.49576  0.07188  0.11361  1.0000
  H   H407      1.0  0.53295  0.13250  0.28455  1.0000
  H   H408      1.0  0.85083  0.37091  0.08496  1.0000
  H   H409      1.0  0.70896  0.99739  0.27889  1.0000
  C   C525      1.0  0.86810  0.24083  0.04060  1.0000
  H   H410      1.0  0.88769  0.30162  0.08494  1.0000
  C   C526      1.0  0.49702  0.98129  0.02274  1.0000
  H   H411      1.0  0.82738  0.36221  0.28522  1.0000
  H   H412      1.0  0.54203  0.05570  0.28513  1.0000
  H   H413      1.0  0.86522  0.42025  0.29504  1.0000
  C   C527      1.0  0.69257  0.11644  0.02688  1.0000
  H   H414      1.0  0.50827  0.03263  0.19781  1.0000
  S   S76       1.0  0.91659  0.45879  0.16963  1.0000
  P   P19       1.0  0.56697  0.14715  0.02625  1.0000
  H   H415      1.0  0.50054  0.01189  0.06234  1.0000
  H   H416      1.0  0.61126  0.98448  0.05590  1.0000
  C   C528      1.0  0.96440  0.35883  0.04351  1.0000
  C   C529      1.0  0.86234  0.38341  0.22678  1.0000
  C   C530      1.0  0.60871  0.05060  0.06636  1.0000
  C   C531      1.0  0.72766  0.37614  0.25772  1.0000
  H   H417      1.0  0.50299  0.16776  0.19942  1.0000
  C   C532      1.0  0.90675  0.33412  0.04612  1.0000
  H   H418      1.0  0.61808  0.31894  0.33731  1.0000
  C   C533      1.0  0.58645  0.02020  0.02662  1.0000
  C   C534      1.0  0.72966  0.41350  0.24174  1.0000
  C   C535      1.0  0.80349  0.39965  0.22600  1.0000
  C   C536      1.0  0.79860  0.35872  0.21607  1.0000
  C   C537      1.0  0.64396  0.23151  0.02905  1.0000
  C   C538      1.0  0.96014  0.40621  0.33650  1.0000
  C   C539      1.0  0.75078  0.46032  0.14906  1.0000
  H   H419      1.0  0.52829  0.22373  0.04203  1.0000
  C   C540      1.0  0.81464  0.41833  0.07851  1.0000
  C   C541      1.0  0.60610  0.29002  0.33182  1.0000
  H   H420      1.0  0.54733  0.23281  0.11958  1.0000
  H   H421      1.0  0.65440  0.26997  0.06377  1.0000
  H   H422      1.0  0.82148  0.29874  0.20413  1.0000
  C   C542      1.0  0.58163  0.09572  0.03532  1.0000
  C   C543      1.0  0.84820  0.31729  0.31162  1.0000
  C   C544      1.0  0.82516  0.32996  0.21245  1.0000
  C   C545      1.0  0.73533  0.26132  0.01968  1.0000
  C   C546      1.0  0.79691  0.43836  0.05929  1.0000
  H   H423      1.0  0.79404  0.03985  0.19928  1.0000
  H   H424      1.0  0.77459  0.34931  0.21028  1.0000
  C   C547      1.0  0.59984  0.97790  0.23616  1.0000
  C   C548      1.0  0.86770  0.38950  0.30449  1.0000
  C   C549      1.0  0.84945  0.27841  0.04406  1.0000
  C   C550      1.0  0.60304  0.01544  0.05011  1.0000
  C   C551      1.0  0.81066  0.01606  0.20601  1.0000
  C   C552      1.0  0.69643  0.35802  0.26738  1.0000
  C   C553      1.0  0.89242  0.38234  0.32192  1.0000
  C   C554      1.0  0.49578  0.04021  0.26894  1.0000
  H   H425      1.0  0.61474  0.98799  0.21672  1.0000
  C   C555      1.0  0.51981  0.06781  0.27748  1.0000
  H   H426      1.0  0.86833  0.17360  0.04821  1.0000
  H   H427      1.0  0.56828  0.18911  0.08011  1.0000
  H   H428      1.0  0.80264  0.30598  0.06352  1.0000
  C   C556      1.0  0.82161  0.20180  0.06596  1.0000
  H   H429      1.0  0.85486  0.04077  0.18082  1.0000
  C   C557      1.0  0.90908  0.31690  0.07276  1.0000
  C   C558      1.0  0.59805  0.09059  0.05905  1.0000
  C   C559      1.0  0.84598  0.35686  0.29910  1.0000
  C   C560      1.0  0.73044  0.30021  0.06341  1.0000
  C   C561      1.0  0.72834  0.26235  0.04891  1.0000
  H   H430      1.0  0.64351  0.08255  0.30983  1.0000
  H   H431      1.0  0.67962  0.10929  0.04762  1.0000
  H   H432      1.0  0.55445  0.00509  0.22569  1.0000
  H   H433      1.0  0.75011  0.36100  0.26284  1.0000
  H   H434      1.0  0.60616  0.24230  0.09639  1.0000
  C   C562      1.0  0.54577  0.97302  0.26595  1.0000
  C   C563      1.0  0.66875  0.41534  0.24650  1.0000
  C   C564      1.0  0.82143  0.39045  0.02295  1.0000
  C   C565      1.0  0.84071  0.37150  0.04181  1.0000
  H   H435      1.0  0.64281  0.36346  0.26907  1.0000
  H   H436      1.0  0.74273  0.36629  0.05980  1.0000
  C   C566      1.0  0.74019  0.33711  0.04851  1.0000
  H   H437      1.0  0.51373  0.18495  0.15178  1.0000
  H   H438      1.0  0.69511  0.32877  0.27924  1.0000
  H   H439      1.0  0.62124  0.04695  0.08478  1.0000
  H   H440      1.0  0.83142  0.29198  0.30737  1.0000
  C   C567      1.0  0.77017  0.46014  0.19478  1.0000
  C   C568      1.0  0.52469  0.15543  0.04344  1.0000
  H   H441      1.0  0.81152  0.42862  0.10016  1.0000
  S   S77       1.0  0.50774  0.98690  0.13439  1.0000
  H   H442      1.0  0.60268  0.11721  0.07209  1.0000
  P   P20       1.0  0.91977  0.42479  0.32949  1.0000
  C   C569      1.0  0.58876  0.20170  0.06545  1.0000
  H   H443      1.0  0.93351  0.37086  0.01180  1.0000
  C   C570      1.0  0.84487  0.01658  0.19568  1.0000
  H   H444      1.0  0.52071  0.29282  0.09776  1.0000
  H   H445      1.0  0.89280  0.98716  0.19718  1.0000
  C   C571      1.0  0.56551  0.98695  0.24115  1.0000
  C   C572      1.0  0.97453  0.36986  0.32308  1.0000
  H   H446      1.0  0.64592  0.43076  0.24235  1.0000
  C   C573      1.0  0.50916  0.10068  0.19951  1.0000
  C   C574      1.0  0.80035  0.42445  0.03149  1.0000
  H   H447      1.0  0.73296  0.41722  0.18229  1.0000
  H   H448      1.0  0.77649  0.01919  0.33489  1.0000
  C   C575      1.0  0.49501  0.06153  0.19461  1.0000
  C   C576      1.0  0.50802  0.98498  0.04897  1.0000
  H   H449      1.0  0.58176  0.99284  0.01421  1.0000
  C   C577      1.0  0.89360  0.34303  0.33530  1.0000
  P   P21       1.0  0.50104  0.98385  0.27160  1.0000
  C   C578      1.0  0.87181  0.31049  0.32989  1.0000
  C   C579      1.0  0.49208  0.13788  0.19484  1.0000
  C   C580      1.0  0.69993  0.43350  0.23679  1.0000
  C   C581      1.0  0.79190  0.99235  0.32749  1.0000
  H   H450      1.0  0.94141  0.45509  0.22747  1.0000
  H   H451      1.0  0.78063  0.46474  0.06591  1.0000
  H   H452      1.0  0.87314  0.28000  0.33997  1.0000
  H   H453      1.0  0.78685  0.44014  0.01645  1.0000
  H   H454      1.0  0.70087  0.46316  0.22541  1.0000
  H   H455      1.0  0.98548  0.37629  0.03265  1.0000
  C   C582      1.0  0.81682  0.97825  0.34275  1.0000
  H   H456      1.0  0.76738  0.98354  0.29107  1.0000
  H   H457      1.0  0.77136  0.98589  0.23351  1.0000
  C   C583      1.0  0.79772  0.98500  0.22521  1.0000
  C   C584      1.0  0.86618  0.98627  0.20482  1.0000
  C   C585      1.0  0.78675  0.97198  0.30264  1.0000
  S   S78       1.0  0.52704  0.15205  0.63251  1.0000
  C   C586      1.0  0.50394  0.06348  0.35565  1.0000
  C   C587      1.0  0.69314  0.98313  0.47750  1.0000
  H   H458      1.0  0.48757  0.06577  0.50078  1.0000
  H   H459      1.0  0.50779  0.99251  0.57155  1.0000
  C   C588      1.0  0.90258  0.44420  0.38661  1.0000
  C   C589      1.0  0.72068  0.10710  0.54249  1.0000
  S   S79       1.0  0.70102  0.03798  0.61718  1.0000
  C   C590      1.0  0.49195  0.99838  0.49355  1.0000
  C   C591      1.0  0.57486  0.20782  0.55804  1.0000
  S   S80       1.0  0.50211  0.15064  0.34965  1.0000
  C   C592      1.0  0.57409  0.06035  0.34954  1.0000
  Fe  Fe38      1.0  0.72921  0.02000  0.65263  1.0000
  H   H460      1.0  0.58121  0.23924  0.56450  1.0000
  H   H461      1.0  0.73696  0.12239  0.58208  1.0000
  H   H462      1.0  0.73560  0.00375  0.44844  1.0000
  H   H463      1.0  0.69096  0.97765  0.54859  1.0000
  H   H464      1.0  0.60184  0.97074  0.57490  1.0000
  S   S81       1.0  0.65492  0.02580  0.37820  1.0000
  C   C593      1.0  0.58547  0.98815  0.50834  1.0000
  C   C594      1.0  0.52501  0.10998  0.41893  1.0000
  H   H465      1.0  0.67940  0.13632  0.60608  1.0000
  C   C595      1.0  0.50324  0.99395  0.54987  1.0000
  C   C596      1.0  0.73410  0.99669  0.51971  1.0000
  H   H466      1.0  0.60656  0.17442  0.48615  1.0000
  C   C597      1.0  0.72620  0.99706  0.47017  1.0000
  C   C598      1.0  0.50199  0.07936  0.43037  1.0000
  C   C599      1.0  0.55566  0.02287  0.35409  1.0000
  H   H467      1.0  0.89025  0.46139  0.43032  1.0000
  H   H468      1.0  0.77850  0.18988  0.66630  1.0000
  C   C600      1.0  0.55149  0.10519  0.62987  1.0000
  C   C601      1.0  0.53760  0.06587  0.62472  1.0000
  C   C602      1.0  0.55690  0.02886  0.62488  1.0000
  C   C603      1.0  0.59040  0.03060  0.62986  1.0000
  C   C604      1.0  0.60471  0.06999  0.63419  1.0000
  C   C605      1.0  0.58529  0.10708  0.63425  1.0000
  H   H469      1.0  0.91991  0.41978  0.39097  1.0000
  H   H470      1.0  0.54576  0.99866  0.62126  1.0000
  H   H471      1.0  0.63048  0.07186  0.63808  1.0000
  H   H472      1.0  0.51173  0.06371  0.62141  1.0000
  C   C606      1.0  0.55840  0.12608  0.54237  1.0000
  H   H473      1.0  0.62055  0.18803  0.43545  1.0000
  H   H474      1.0  0.55716  0.00673  0.44929  1.0000
  C   C607      1.0  0.89729  0.45296  0.35890  1.0000
  C   C608      1.0  0.54165  0.19383  0.56308  1.0000
  C   C609      1.0  0.65585  0.12263  0.56950  1.0000
  H   H475      1.0  0.50624  0.99587  0.36112  1.0000
  Fe  Fe39      1.0  0.73545  0.99362  0.59083  1.0000
  C   C610      1.0  0.71575  0.11992  0.57055  1.0000
  S   S82       1.0  0.61278  0.98264  0.63158  1.0000
  C   C611      1.0  0.59190  0.13963  0.53777  1.0000
  C   C612      1.0  0.59990  0.18095  0.54521  1.0000
  H   H476      1.0  0.62162  0.04418  0.56934  1.0000
  H   H477      1.0  0.65708  0.13823  0.40515  1.0000
  H   H478      1.0  0.57486  0.28461  0.37197  1.0000
  S   S83       1.0  0.75942  0.00686  0.54610  1.0000
  S   S84       1.0  0.76737  0.98112  0.62490  1.0000
  C   C613      1.0  0.69332  0.10255  0.52775  1.0000
  C   C614      1.0  0.52058  0.02467  0.35722  1.0000
  Fe  Fe40      1.0  0.66951  0.98143  0.63012  1.0000
  Fe  Fe41      1.0  0.67662  0.97843  0.40546  1.0000
  C   C615      1.0  0.53335  0.15318  0.55497  1.0000
  H   H479      1.0  0.50755  0.14240  0.55892  1.0000
  C   C616      1.0  0.68333  0.12771  0.58404  1.0000
  H   H480      1.0  0.52249  0.21426  0.57373  1.0000
  H   H481      1.0  0.55161  0.09460  0.53649  1.0000
  H   H482      1.0  0.67948  0.07447  0.42624  1.0000
  H   H483      1.0  0.96932  0.45990  0.36239  1.0000
  H   H484      1.0  0.51610  0.13856  0.40995  1.0000
  H   H485      1.0  0.82046  0.99393  0.36211  1.0000
  C   C617      1.0  0.54789  0.03551  0.44096  1.0000
  C   C618      1.0  0.57087  0.06589  0.42910  1.0000
  C   C619      1.0  0.55942  0.10314  0.41809  1.0000
  H   H486      1.0  0.50543  0.32613  0.65301  1.0000
  H   H487      1.0  0.54714  0.21864  0.35938  1.0000
  H   H488      1.0  0.69805  0.09175  0.50630  1.0000
  H   H489      1.0  0.63086  0.12729  0.58071  1.0000
  C   C620      1.0  0.51329  0.04175  0.44137  1.0000
  C   C621      1.0  0.74673  0.00359  0.49129  1.0000
  C   C622      1.0  0.49730  0.03291  0.53789  1.0000
  H   H490      1.0  0.59755  0.06020  0.42809  1.0000
  H   H491      1.0  0.57718  0.12631  0.40835  1.0000
  H   H492      1.0  0.62560  0.19212  0.54151  1.0000
  H   H493      1.0  0.74571  0.09939  0.53237  1.0000
  H   H494      1.0  0.59469  0.04598  0.48541  1.0000
  H   H495      1.0  0.59631  0.13730  0.63822  1.0000
  H   H496      1.0  0.57198  0.12797  0.34453  1.0000
  C   C623      1.0  0.60020  0.98732  0.55543  1.0000
  H   H497      1.0  0.93098  0.42739  0.57339  1.0000
  C   C624      1.0  0.59653  0.02999  0.50502  1.0000
  C   C625      1.0  0.61045  0.05045  0.52664  1.0000
  C   C626      1.0  0.61162  0.02903  0.55209  1.0000
  P   P22       1.0  0.62468  0.10457  0.52249  1.0000
  C   C627      1.0  0.66062  0.11077  0.54101  1.0000
  C   C628      1.0  0.63558  0.11660  0.48548  1.0000
  C   C629      1.0  0.65587  0.08867  0.46808  1.0000
  C   C630      1.0  0.66381  0.09660  0.43933  1.0000
  C   C631      1.0  0.65116  0.13243  0.42753  1.0000
  C   C632      1.0  0.63062  0.16041  0.44461  1.0000
  C   C633      1.0  0.62282  0.15258  0.47348  1.0000
  H   H498      1.0  0.66519  0.06035  0.47678  1.0000
  H   H499      1.0  0.77220  0.01474  0.48566  1.0000
  C   C634      1.0  0.49653  0.26051  0.66330  1.0000
  H   H500      1.0  0.53137  0.97164  0.40876  1.0000
  H   H501      1.0  0.49630  0.06144  0.55045  1.0000
  C   C635      1.0  0.52227  0.10100  0.35090  1.0000
  C   C636      1.0  0.93255  0.46045  0.56747  1.0000
  H   H502      1.0  0.97703  0.45227  0.53761  1.0000
  S   S85       1.0  0.66477  0.97874  0.45283  1.0000
  H   H503      1.0  0.60111  0.05935  0.34729  1.0000
  C   C637      1.0  0.68095  0.97551  0.50579  1.0000
  C   C638      1.0  0.58181  0.27070  0.35139  1.0000
  C   C639      1.0  0.50494  0.30210  0.66914  1.0000
  C   C640      1.0  0.70116  0.98252  0.52682  1.0000
  C   C641      1.0  0.49214  0.03522  0.50976  1.0000
  H   H504      1.0  0.49063  0.25210  0.64266  1.0000
  C   C642      1.0  0.55747  0.09922  0.34784  1.0000
  S   S86       1.0  0.57542  0.97317  0.35567  1.0000
  C   C643      1.0  0.58738  0.96678  0.53351  1.0000
  H   H505      1.0  0.57592  0.97211  0.49122  1.0000
  C   C644      1.0  0.56622  0.23351  0.34433  1.0000
  Fe  Fe42      1.0  0.63043  0.97088  0.36036  1.0000
  C   C645      1.0  0.97886  0.43023  0.35336  1.0000
  Fe  Fe43      1.0  0.69858  0.00991  0.34533  1.0000
  S   S87       1.0  0.72358  0.96828  0.37487  1.0000
  H   H506      1.0  0.91132  0.33749  0.34992  1.0000
  H   H507      1.0  0.81496  0.96742  0.56634  1.0000
  H   H508      1.0  0.80566  0.12013  0.66839  1.0000
  Fe  Fe44      1.0  0.71936  0.11154  0.84084  1.0000
  S   S88       1.0  0.69138  0.16733  0.82722  1.0000
  S   S89       1.0  0.75233  0.07018  0.80982  1.0000
  Fe  Fe45      1.0  0.69001  0.12275  0.90261  1.0000
  S   S90       1.0  0.66049  0.17924  0.89244  1.0000
  S   S91       1.0  0.67755  0.09513  0.94633  1.0000
  Fe  Fe46      1.0  0.64748  0.14099  0.85629  1.0000
  S   S92       1.0  0.59389  0.13844  0.84624  1.0000
  Fe  Fe47      1.0  0.70768  0.19967  0.86486  1.0000
  S   S93       1.0  0.72244  0.26953  0.86521  1.0000
  S   S94       1.0  0.67455  0.08353  0.86757  1.0000
  S   S95       1.0  0.73813  0.14504  0.87730  1.0000
  C   C646      1.0  0.49573  0.22943  0.68406  1.0000
  C   C647      1.0  0.76341  0.29194  0.86109  1.0000
  C   C648      1.0  0.79240  0.26710  0.85770  1.0000
  C   C649      1.0  0.82436  0.28641  0.85442  1.0000
  H   H509      1.0  0.83830  0.18857  0.98017  1.0000
  C   C650      1.0  0.76684  0.33619  0.86109  1.0000
  H   H510      1.0  0.79019  0.23305  0.85758  1.0000
  H   H511      1.0  0.84660  0.26693  0.85182  1.0000
  H   H512      1.0  0.73902  0.18756  0.74851  1.0000
  C   C651      1.0  0.69517  0.11318  0.97580  1.0000
  C   C652      1.0  0.72619  0.13381  0.97284  1.0000
  C   C653      1.0  0.64207  0.05042  0.78959  1.0000
  H   H513      1.0  0.64444  0.04846  0.81172  1.0000
  C   C654      1.0  0.63438  0.08944  0.77840  1.0000
  P   P23       1.0  0.49968  0.20020  0.73837  1.0000
  H   H514      1.0  0.73944  0.14021  0.95209  1.0000
  H   H515      1.0  0.55514  0.06233  0.76672  1.0000
  C   C655      1.0  0.79891  0.41956  0.92672  1.0000
  C   C656      1.0  0.50384  0.98820  0.74311  1.0000
  C   C657      1.0  0.73938  0.07074  0.71639  1.0000
  C   C658      1.0  0.72055  0.09829  0.73521  1.0000
  C   C659      1.0  0.72367  0.09757  0.76396  1.0000
  C   C660      1.0  0.74641  0.07015  0.77406  1.0000
  C   C661      1.0  0.76543  0.04267  0.75521  1.0000
  C   C662      1.0  0.76186  0.04283  0.72646  1.0000
  H   H516      1.0  0.70360  0.12048  0.72746  1.0000
  H   H517      1.0  0.70884  0.11871  0.77817  1.0000
  H   H518      1.0  0.78328  0.02159  0.76281  1.0000
  H   H519      1.0  0.77724  0.02241  0.71196  1.0000
  H   H520      1.0  0.71339  0.98396  0.88670  1.0000
  C   C663      1.0  0.53494  0.09506  0.84435  1.0000
  C   C664      1.0  0.56829  0.09237  0.84985  1.0000
  C   C665      1.0  0.58022  0.05344  0.85810  1.0000
  C   C666      1.0  0.55902  0.01768  0.86069  1.0000
  H   H521      1.0  0.52535  0.12496  0.83810  1.0000
  H   H522      1.0  0.60567  0.05088  0.86263  1.0000
  C   C667      1.0  0.66719  0.23635  0.94994  1.0000
  C   C668      1.0  0.52568  0.02046  0.85527  1.0000
  C   C669      1.0  0.82779  0.33069  0.85397  1.0000
  H   H523      1.0  0.88640  0.19922  0.82097  1.0000
  C   C670      1.0  0.69679  0.22286  0.76775  1.0000
  C   C671      1.0  0.85451  0.36116  0.74534  1.0000
  C   C672      1.0  0.67843  0.10455  0.00288  1.0000
  C   C673      1.0  0.80460  0.19891  0.73068  1.0000
  C   C674      1.0  0.66853  0.30434  0.92692  1.0000
  P   P24       1.0  0.79933  0.23308  0.76120  1.0000
  C   C675      1.0  0.75477  0.24181  0.77114  1.0000
  C   C676      1.0  0.81550  0.20639  0.78972  1.0000
  C   C677      1.0  0.79665  0.17426  0.80469  1.0000
  C   C678      1.0  0.81026  0.15119  0.82522  1.0000
  C   C679      1.0  0.84240  0.16040  0.83130  1.0000
  H   H524      1.0  0.62529  0.12331  0.74132  1.0000
  H   H525      1.0  0.55723  0.14468  0.71920  1.0000
  C   C680      1.0  0.73114  0.21498  0.76114  1.0000
  C   C681      1.0  0.68563  0.25684  0.78510  1.0000
  C   C682      1.0  0.70883  0.28282  0.79586  1.0000
  C   C683      1.0  0.74320  0.27541  0.78894  1.0000
  H   H526      1.0  0.54348  0.00250  0.97012  1.0000
  C   C684      1.0  0.70729  0.97380  0.81704  1.0000
  H   H527      1.0  0.56829  0.98780  0.86729  1.0000
  C   C685      1.0  0.64225  0.01816  0.74382  1.0000
  H   H528      1.0  0.67889  0.20171  0.76014  1.0000
  H   H529      1.0  0.77183  0.16619  0.80005  1.0000
  H   H530      1.0  0.79602  0.12561  0.83612  1.0000
  H   H531      1.0  0.85270  0.14251  0.84730  1.0000
  H   H532      1.0  0.65906  0.26240  0.79094  1.0000
  H   H533      1.0  0.70027  0.30812  0.81028  1.0000
  H   H534      1.0  0.76037  0.29563  0.79808  1.0000
  H   H535      1.0  0.74462  0.35575  0.86375  1.0000
  C   C686      1.0  0.58730  0.21439  0.79017  1.0000
  C   C687      1.0  0.82097  0.13133  0.70894  1.0000
  C   C688      1.0  0.65235  0.26599  0.93406  1.0000
  C   C689      1.0  0.88610  0.36624  0.97878  1.0000
  H   H536      1.0  0.84607  0.36807  0.79042  1.0000
  H   H537      1.0  0.80016  0.18416  0.90100  1.0000
  C   C690      1.0  0.54173  0.17161  0.97707  1.0000
  C   C691      1.0  0.80077  0.19871  0.92132  1.0000
  C   C692      1.0  0.77118  0.34442  0.95103  1.0000
  C   C693      1.0  0.89198  0.36767  0.94952  1.0000
  C   C694      1.0  0.82087  0.28329  0.75460  1.0000
  C   C695      1.0  0.54268  0.17460  0.94789  1.0000
  H   H538      1.0  0.62874  0.18857  0.99885  1.0000
  C   C696      1.0  0.53222  0.04602  0.76367  1.0000
  C   C697      1.0  0.79879  0.35549  0.85740  1.0000
  H   H539      1.0  0.76356  0.24495  0.91514  1.0000
  H   H540      1.0  0.83730  0.15533  0.93352  1.0000
  H   H541      1.0  0.80093  0.38957  0.85711  1.0000
  H   H542      1.0  0.86374  0.23838  0.78368  1.0000
  H   H543      1.0  0.85989  0.34503  0.70145  1.0000
  C   C698      1.0  0.51370  0.05938  0.84716  1.0000
  C   C699      1.0  0.50299  0.14847  0.72231  1.0000
  H   H544      1.0  0.55652  0.06687  0.94216  1.0000
  C   C700      1.0  0.87795  0.32797  0.99287  1.0000
  H   H545      1.0  0.83124  0.14932  0.74971  1.0000
  C   C701      1.0  0.75423  0.38306  0.95612  1.0000
  C   C702      1.0  0.59430  0.13356  0.97034  1.0000
  S   S96       1.0  0.86868  0.35339  0.84793  1.0000
  H   H546      1.0  0.72995  0.38418  0.96904  1.0000
  C   C703      1.0  0.51188  0.28149  0.71659  1.0000
  H   H547      1.0  0.89412  0.33231  0.91100  1.0000
  C   C704      1.0  0.78003  0.23319  0.92941  1.0000
  C   C705      1.0  0.82179  0.18264  0.93958  1.0000
  H   H548      1.0  0.80944  0.44843  0.91711  1.0000
  H   H549      1.0  0.81694  0.30003  0.79863  1.0000
  C   C706      1.0  0.78994  0.20998  0.70681  1.0000
  H   H550      1.0  0.65798  0.32634  0.91328  1.0000
  H   H551      1.0  0.55765  0.99951  0.73659  1.0000
  C   C707      1.0  0.88204  0.29252  0.94756  1.0000
  H   H552      1.0  0.77682  0.23972  0.70608  1.0000
  C   C708      1.0  0.56767  0.15115  0.98856  1.0000
  C   C709      1.0  0.81583  0.38139  0.92131  1.0000
  S   S97       1.0  0.90941  0.43964  0.88798  1.0000
  C   C710      1.0  0.74085  0.14431  0.99684  1.0000
  C   C711      1.0  0.63486  0.05731  0.73266  1.0000
  C   C712      1.0  0.80208  0.34390  0.93334  1.0000
  H   H553      1.0  0.52059  0.18507  0.99044  1.0000
  H   H554      1.0  0.97236  0.32264  0.94054  1.0000
  C   C713      1.0  0.69914  0.31354  0.93621  1.0000
  H   H555      1.0  0.83936  0.38084  0.90727  1.0000
  H   H556      1.0  0.81546  0.31472  0.92828  1.0000
  C   C714      1.0  0.59517  0.13660  0.94123  1.0000
  C   C715      1.0  0.71360  0.28462  0.95322  1.0000
  H   H557      1.0  0.96149  0.38560  0.91240  1.0000
  H   H558      1.0  0.63254  0.06004  0.71051  1.0000
  Fe  Fe48      1.0  0.88152  0.42351  0.85203  1.0000
  C   C716      1.0  0.50144  0.06094  0.77688  1.0000
  H   H559      1.0  0.57018  0.15920  0.90734  1.0000
  H   H560      1.0  0.83207  0.10033  0.71006  1.0000
  H   H561      1.0  0.76543  0.15867  0.99448  1.0000
  H   H562      1.0  0.74884  0.98335  0.84016  1.0000
  C   C717      1.0  0.49633  0.99077  0.95457  1.0000
  C   C718      1.0  0.82244  0.20147  0.96581  1.0000
  H   H563      1.0  0.63126  0.11702  0.79186  1.0000
  C   C719      1.0  0.82567  0.30960  0.77726  1.0000
  C   C720      1.0  0.78032  0.25204  0.95581  1.0000
  C   C721      1.0  0.63087  0.09294  0.74996  1.0000
  H   H564      1.0  0.58391  0.98821  0.78161  1.0000
  H   H565      1.0  0.89751  0.39767  0.93919  1.0000
  H   H566      1.0  0.61440  0.11731  0.97861  1.0000
  H   H567      1.0  0.55108  0.19913  0.82605  1.0000
  C   C722      1.0  0.80612  0.14251  0.68541  1.0000
  C   C723      1.0  0.56947  0.15723  0.92996  1.0000
  C   C724      1.0  0.56594  0.21802  0.74554  1.0000
  C   C725      1.0  0.80200  0.23630  0.97384  1.0000
  C   C726      1.0  0.84237  0.34827  0.77266  1.0000
  C   C727      1.0  0.69769  0.24548  0.95936  1.0000
  H   H568      1.0  0.61551  0.12210  0.92739  1.0000
  P   P25       1.0  0.75279  0.29590  0.96626  1.0000
  H   H569      1.0  0.86941  0.26111  0.98698  1.0000
  C   C728      1.0  0.83361  0.29625  0.72719  1.0000
  C   C729      1.0  0.89005  0.33088  0.93381  1.0000
  C   C730      1.0  0.84819  0.21474  0.79546  1.0000
  H   H570      1.0  0.71169  0.34253  0.92911  1.0000
  H   H571      1.0  0.57050  0.22325  0.72303  1.0000
  C   C731      1.0  0.55521  0.20436  0.80354  1.0000
  H   H572      1.0  0.62906  0.25847  0.92625  1.0000
  C   C732      1.0  0.53374  0.20690  0.75880  1.0000
  C   C733      1.0  0.52859  0.20018  0.78796  1.0000
  C   C734      1.0  0.53340  0.05017  0.94082  1.0000
  H   H573      1.0  0.64477  0.99077  0.73018  1.0000
  H   H574      1.0  0.72326  0.97494  0.79701  1.0000
  C   C735      1.0  0.64644  0.01454  0.77229  1.0000
  H   H575      1.0  0.65477  0.08781  0.00540  1.0000
  H   H576      1.0  0.61753  0.22941  0.75080  1.0000
  C   C736      1.0  0.87601  0.29102  0.97697  1.0000
  H   H577      1.0  0.75557  0.36500  0.00845  1.0000
  C   C737      1.0  0.76820  0.42047  0.94418  1.0000
  H   H578      1.0  0.88712  0.39535  0.99047  1.0000
  H   H579      1.0  0.87996  0.26406  0.93538  1.0000
  C   C738      1.0  0.52584  0.01358  0.95671  1.0000
  C   C739      1.0  0.53722  0.09124  0.70026  1.0000
  C   C740      1.0  0.53452  0.12960  0.71472  1.0000
  H   H580      1.0  0.51110  0.04258  0.68111  1.0000
  C   C741      1.0  0.86137  0.19218  0.81642  1.0000
  H   H581      1.0  0.50422  0.19148  0.79887  1.0000
  H   H582      1.0  0.60792  0.21627  0.80244  1.0000
  C   C742      1.0  0.85021  0.33512  0.72263  1.0000
  C   C743      1.0  0.53345  0.01007  0.74664  1.0000
  H   H583      1.0  0.86742  0.39121  0.74185  1.0000
  S   S98       1.0  0.49990  0.97468  0.85892  1.0000
  H   H584      1.0  0.50055  0.08862  0.79020  1.0000
  C   C744      1.0  0.70201  0.97907  0.86779  1.0000
  C   C745      1.0  0.50858  0.07150  0.69315  1.0000
  H   H585      1.0  0.83114  0.27654  0.70928  1.0000
  H   H586      1.0  0.65571  0.20556  0.95405  1.0000
  C   C746      1.0  0.79073  0.18185  0.68429  1.0000
  C   C747      1.0  0.82032  0.15937  0.73148  1.0000
  H   H587      1.0  0.70914  0.22139  0.97077  1.0000
  C   C748      1.0  0.74445  0.29831  0.00435  1.0000
  S   S99       1.0  0.91772  0.46111  0.82098  1.0000
  H   H588      1.0  0.80282  0.25037  0.99428  1.0000
  C   C749      1.0  0.59266  0.22146  0.76117  1.0000
  H   H589      1.0  0.65166  0.97707  0.88978  1.0000
  H   H590      1.0  0.82268  0.37950  0.00152  1.0000
  H   H591      1.0  0.56163  0.07730  0.69379  1.0000
  H   H592      1.0  0.52251  0.19013  0.93916  1.0000
  C   C750      1.0  0.66722  0.97520  0.86950  1.0000
  C   C751      1.0  0.98324  0.35290  0.94479  1.0000
  C   C752      1.0  0.65242  0.97069  0.84501  1.0000
  H   H593      1.0  0.75518  0.45025  0.94814  1.0000
  C   C753      1.0  0.51163  0.06441  0.92265  1.0000
  H   H594      1.0  0.51756  0.29016  0.73722  1.0000
  C   C754      1.0  0.50328  0.23964  0.71088  1.0000
  H   H595      1.0  0.94224  0.46127  0.98441  1.0000
  H   H596      1.0  0.51923  0.34485  0.70027  1.0000
  H   H597      1.0  0.48921  0.19749  0.67897  1.0000
  S   S100      1.0  0.73750  0.07600  0.68010  1.0000
  H   H598      1.0  0.56178  0.06304  0.00164  1.0000
  C   C755      1.0  0.97691  0.38838  0.92908  1.0000
  C   C756      1.0  0.51270  0.31258  0.69576  1.0000
  C   C757      1.0  0.72199  0.97848  0.84158  1.0000
  H   H599      1.0  0.51777  0.09241  0.90997  1.0000
  H   H600      1.0  0.48801  0.06197  0.84312  1.0000
  H   H601      1.0  0.71049  0.98820  0.74647  1.0000
  C   C758      1.0  0.67239  0.96936  0.81857  1.0000
  H   H602      1.0  0.62538  0.96906  0.84680  1.0000
  H   H603      1.0  0.98505  0.45437  0.92214  1.0000
  H   H604      1.0  0.73426  0.23121  0.00928  1.0000
  C   C759      1.0  0.82192  0.86320  0.25456  1.0000
  C   C760      1.0  0.83868  0.85077  0.22826  1.0000
  S   S101      1.0  0.86122  0.56542  0.30745  1.0000
  S   S102      1.0  0.91117  0.67302  0.32213  1.0000
  Fe  Fe49      1.0  0.89183  0.51211  0.14949  1.0000
  S   S103      1.0  0.86902  0.56805  0.17463  1.0000
  C   C761      1.0  0.81870  0.95351  0.23374  1.0000
  P   P26       1.0  0.80191  0.91423  0.25920  1.0000
  C   C762      1.0  0.52575  0.91417  0.01536  1.0000
  S   S104      1.0  0.93611  0.52667  0.11691  1.0000
  H   H605      1.0  0.98251  0.68097  0.09027  1.0000
  C   C763      1.0  0.83264  0.92443  0.30763  1.0000
  H   H606      1.0  0.68692  0.87037  0.29732  1.0000
  H   H607      1.0  0.85731  0.50770  0.03976  1.0000
  H   H608      1.0  0.86335  0.75213  0.24515  1.0000
  C   C764      1.0  0.86599  0.56747  0.27040  1.0000
  C   C765      1.0  0.86861  0.52941  0.22601  1.0000
  C   C766      1.0  0.86960  0.56756  0.21132  1.0000
  C   C767      1.0  0.86930  0.60577  0.22623  1.0000
  C   C768      1.0  0.86810  0.60575  0.25568  1.0000
  H   H609      1.0  0.86996  0.63543  0.21496  1.0000
  H   H610      1.0  0.86779  0.63528  0.26704  1.0000
  C   C769      1.0  0.83720  0.94430  0.33281  1.0000
  C   C770      1.0  0.86603  0.52938  0.25547  1.0000
  C   C771      1.0  0.74685  0.90329  0.23053  1.0000
  H   H611      1.0  0.66628  0.87156  0.25103  1.0000
  H   H612      1.0  0.86681  0.80147  0.20465  1.0000
  C   C772      1.0  0.77508  0.47772  0.25496  1.0000
  S   S105      1.0  0.92615  0.47871  0.04246  1.0000
  H   H613      1.0  0.86452  0.49974  0.26676  1.0000
  Fe  Fe50      1.0  0.95990  0.47185  0.13555  1.0000
  C   C773      1.0  0.73649  0.89213  0.28084  1.0000
  C   C774      1.0  0.81876  0.83426  0.27698  1.0000
  C   C775      1.0  0.56171  0.95320  0.28664  1.0000
  H   H614      1.0  0.86904  0.50003  0.21462  1.0000
  C   C776      1.0  0.85369  0.81088  0.22492  1.0000
  H   H615      1.0  0.94742  0.56151  0.28189  1.0000
  H   H616      1.0  0.77387  0.50653  0.11937  1.0000
  H   H617      1.0  0.87014  0.93238  0.23138  1.0000
  C   C777      1.0  0.70344  0.88033  0.27868  1.0000
  H   H618      1.0  0.75585  0.52905  0.23186  1.0000
  C   C778      1.0  0.79107  0.49776  0.30008  1.0000
  C   C779      1.0  0.80692  0.93762  0.29262  1.0000
  S   S106      1.0  0.86652  0.47055  0.12029  1.0000
  C   C780      1.0  0.86925  0.50001  0.01882  1.0000
  H   H619      1.0  0.49977  0.90291  0.30143  1.0000
  H   H620      1.0  0.98040  0.56488  0.33581  1.0000
  C   C781      1.0  0.85322  0.95505  0.22400  1.0000
  C   C782      1.0  0.76595  0.51981  0.25067  1.0000
  C   C783      1.0  0.53674  0.91801  0.04163  1.0000
  H   H621      1.0  0.80458  0.84231  0.29712  1.0000
  H   H622      1.0  0.52127  0.95295  0.21264  1.0000
  C   C784      1.0  0.52770  0.95325  0.05849  1.0000
  H   H623      1.0  0.49049  0.91576  0.17980  1.0000
  C   C785      1.0  0.93591  0.50183  0.30258  1.0000
  H   H624      1.0  0.95632  0.60999  0.09146  1.0000
  H   H625      1.0  0.93441  0.51565  0.32331  1.0000
  C   C786      1.0  0.85162  0.78297  0.24767  1.0000
  C   C787      1.0  0.83403  0.79461  0.27365  1.0000
  H   H626      1.0  0.74518  0.89106  0.30116  1.0000
  H   H627      1.0  0.86770  0.48876  0.33311  1.0000
  H   H628      1.0  0.55185  0.89337  0.04919  1.0000
  C   C788      1.0  0.93980  0.46797  0.24849  1.0000
  H   H629      1.0  0.84945  0.89910  0.29994  1.0000
  C   C789      1.0  0.79310  0.49236  0.18544  1.0000
  C   C790      1.0  0.69189  0.88078  0.25260  1.0000
  Fe  Fe51      1.0  0.87819  0.61684  0.33495  1.0000
  S   S107      1.0  0.67278  0.95665  0.32621  1.0000
  C   C791      1.0  0.90188  0.48394  0.01485  1.0000
  C   C792      1.0  0.94542  0.51106  0.25203  1.0000
  H   H630      1.0  0.54805  0.94498  0.30684  1.0000
  H   H631      1.0  0.64196  0.95114  0.25305  1.0000
  C   C793      1.0  0.71358  0.89238  0.22851  1.0000
  C   C794      1.0  0.78270  0.53972  0.29531  1.0000
  C   C795      1.0  0.75830  0.90421  0.25684  1.0000
  H   H632      1.0  0.60820  0.93050  0.29831  1.0000
  H   H633      1.0  0.76416  0.58342  0.26686  1.0000
  H   H634      1.0  0.76363  0.91074  0.21152  1.0000
  C   C796      1.0  0.94367  0.52793  0.27907  1.0000
  H   H635      1.0  0.83989  0.87153  0.21024  1.0000
  H   H636      1.0  0.83221  0.77288  0.29128  1.0000
  C   C797      1.0  0.77014  0.55073  0.27065  1.0000
  H   H637      1.0  0.95057  0.53141  0.23378  1.0000
  H   H638      1.0  0.78671  0.56392  0.31047  1.0000
  H   H639      1.0  0.70479  0.89230  0.20820  1.0000
  C   C798      1.0  0.59619  0.94515  0.28192  1.0000
  C   C799      1.0  0.79389  0.50945  0.15853  1.0000
  C   C800      1.0  0.61517  0.95690  0.25653  1.0000
  H   H640      1.0  0.98233  0.55317  0.06019  1.0000
  H   H641      1.0  0.80139  0.48969  0.31904  1.0000
  H   H642      1.0  0.96300  0.61734  0.22853  1.0000
  H   H643      1.0  0.74146  0.76534  0.34145  1.0000
  C   C801      1.0  0.49540  0.94518  0.21949  1.0000
  C   C802      1.0  0.77277  0.49349  0.14033  1.0000
  C   C803      1.0  0.97890  0.61639  0.07698  1.0000
  H   H644      1.0  0.53570  0.95592  0.07906  1.0000
  H   H645      1.0  0.81036  0.50453  0.19890  1.0000
  Fe  Fe52      1.0  0.91371  0.47966  0.08984  1.0000
  H   H646      1.0  0.81137  0.53476  0.15166  1.0000
  C   C804      1.0  0.78705  0.46675  0.28009  1.0000
  H   H647      1.0  0.98213  0.66206  0.18690  1.0000
  H   H648      1.0  0.93746  0.57882  0.54637  1.0000
  C   C805      1.0  0.96856  0.79156  0.56135  1.0000
  H   H649      1.0  0.78454  0.66145  0.64348  1.0000
  H   H650      1.0  0.98291  0.75624  0.52328  1.0000
  H   H651      1.0  0.75563  0.72635  0.66318  1.0000
  H   H652      1.0  0.89132  0.83171  0.58248  1.0000
  C   C806      1.0  0.78671  0.93593  0.42141  1.0000
  S   S108      1.0  0.90921  0.59308  0.36716  1.0000
  H   H653      1.0  0.50824  0.92688  0.54307  1.0000
  C   C807      1.0  0.96124  0.51767  0.54010  1.0000
  Fe  Fe53      1.0  0.87656  0.63381  0.39771  1.0000
  S   S109      1.0  0.85599  0.60969  0.44122  1.0000
  S   S110      1.0  0.90925  0.69094  0.38929  1.0000
  Fe  Fe54      1.0  0.91079  0.71539  0.63891  1.0000
  S   S111      1.0  0.87984  0.66688  0.62008  1.0000
  S   S112      1.0  0.89267  0.78164  0.65253  1.0000
  Fe  Fe55      1.0  0.87686  0.70729  0.35623  1.0000
  S   S113      1.0  0.94772  0.60693  0.61055  1.0000
  Fe  Fe56      1.0  0.92516  0.65877  0.58734  1.0000
  S   S114      1.0  0.93359  0.66877  0.54039  1.0000
  Fe  Fe57      1.0  0.90574  0.62014  0.64557  1.0000
  S   S115      1.0  0.95488  0.70951  0.60517  1.0000
  C   C808      1.0  0.86282  0.49880  0.40391  1.0000
  S   S116      1.0  0.84210  0.65207  0.36670  1.0000
  C   C809      1.0  0.96326  0.77407  0.53567  1.0000
  C   C810      1.0  0.87647  0.62718  0.46928  1.0000
  C   C811      1.0  0.90460  0.65341  0.46426  1.0000
  C   C812      1.0  0.92126  0.66631  0.48651  1.0000
  C   C813      1.0  0.91016  0.65288  0.51400  1.0000
  C   C814      1.0  0.88199  0.62664  0.51929  1.0000
  C   C815      1.0  0.86510  0.61390  0.49689  1.0000
  H   H654      1.0  0.91401  0.66322  0.44318  1.0000
  H   H655      1.0  0.94323  0.68629  0.48226  1.0000
  H   H656      1.0  0.87354  0.61578  0.54043  1.0000
  H   H657      1.0  0.84347  0.59332  0.50089  1.0000
  C   C816      1.0  0.81444  0.86347  0.65217  1.0000
  C   C817      1.0  0.84604  0.84569  0.65465  1.0000
  C   C818      1.0  0.85333  0.80340  0.64707  1.0000
  C   C819      1.0  0.82886  0.77940  0.63624  1.0000
  C   C820      1.0  0.79717  0.79706  0.63400  1.0000
  H   H658      1.0  0.82529  0.62516  0.66962  1.0000
  H   H659      1.0  0.80905  0.89577  0.65859  1.0000
  C   C821      1.0  0.90849  0.48890  0.58005  1.0000
  H   H660      1.0  0.95010  0.51168  0.40812  1.0000
  C   C822      1.0  0.73058  0.85115  0.55931  1.0000
  C   C823      1.0  0.49896  0.93468  0.63828  1.0000
  C   C824      1.0  0.76967  0.74732  0.47498  1.0000
  H   H661      1.0  0.83868  0.53055  0.37246  1.0000
  C   C825      1.0  0.78960  0.83900  0.64223  1.0000
  C   C826      1.0  0.79375  0.69847  0.43896  1.0000
  H   H662      1.0  0.77835  0.77801  0.62591  1.0000
  C   C827      1.0  0.64487  0.84366  0.43412  1.0000
  H   H663      1.0  0.51140  0.91809  0.62005  1.0000
  H   H664      1.0  0.94611  0.58032  0.48535  1.0000
  C   C828      1.0  0.78042  0.74003  0.55948  1.0000
  H   H665      1.0  0.78510  0.68359  0.48301  1.0000
  H   H666      1.0  0.76198  0.90607  0.55131  1.0000
  H   H667      1.0  0.53588  0.90405  0.38381  1.0000
  C   C829      1.0  0.77975  0.85530  0.35894  1.0000
  H   H668      1.0  0.86481  0.86463  0.66293  1.0000
  C   C830      1.0  0.70039  0.81278  0.42813  1.0000
  H   H669      1.0  0.62071  0.84765  0.42697  1.0000
  H   H670      1.0  0.75362  0.74504  0.56131  1.0000
  H   H671      1.0  0.80183  0.72309  0.39683  1.0000
  C   C831      1.0  0.51408  0.94659  0.41617  1.0000
  C   C832      1.0  0.71445  0.81813  0.54734  1.0000
  C   C833      1.0  0.71983  0.81208  0.51825  1.0000
  C   C834      1.0  0.74221  0.83830  0.50099  1.0000
  C   C835      1.0  0.75727  0.87251  0.51306  1.0000
  P   P27       1.0  0.74871  0.82975  0.46347  1.0000
  C   C836      1.0  0.70821  0.83509  0.45164  1.0000
  C   C837      1.0  0.77690  0.86907  0.44611  1.0000
  C   C838      1.0  0.76452  0.90612  0.43521  1.0000
  C   C839      1.0  0.85625  0.50613  0.37653  1.0000
  S   S117      1.0  0.70194  0.93773  0.60121  1.0000
  C   C840      1.0  0.83377  0.89229  0.42930  1.0000
  C   C841      1.0  0.81171  0.86258  0.44331  1.0000
  H   H672      1.0  0.72669  0.85558  0.58191  1.0000
  C   C842      1.0  0.75118  0.87899  0.54211  1.0000
  H   H673      1.0  0.94588  0.82413  0.59859  1.0000
  C   C843      1.0  0.68423  0.86267  0.46578  1.0000
  Fe  Fe58      1.0  0.94003  0.65113  0.35655  1.0000
  C   C844      1.0  0.91028  0.53144  0.57221  1.0000
  H   H674      1.0  0.69754  0.79752  0.56064  1.0000
  H   H675      1.0  0.70661  0.78689  0.50913  1.0000
  H   H676      1.0  0.77315  0.89475  0.50022  1.0000
  H   H677      1.0  0.73781  0.91215  0.43717  1.0000
  C   C845      1.0  0.82128  0.92895  0.41835  1.0000
  H   H678      1.0  0.77477  0.88841  0.36316  1.0000
  H   H679      1.0  0.86053  0.88664  0.42664  1.0000
  H   H680      1.0  0.82180  0.83429  0.45160  1.0000
  H   H681      1.0  0.81349  0.90804  0.60010  1.0000
  S   S118      1.0  0.74814  0.85818  0.64175  1.0000
  H   H682      1.0  0.69002  0.88184  0.48316  1.0000
  H   H683      1.0  0.49608  0.84568  0.39882  1.0000
  C   C846      1.0  0.94563  0.54889  0.44587  1.0000
  H   H684      1.0  0.80398  0.66765  0.43290  1.0000
  S   S119      1.0  0.64906  0.92422  0.38945  1.0000
  C   C847      1.0  0.79335  0.76942  0.34799  1.0000
  C   C848      1.0  0.79286  0.70226  0.56895  1.0000
  C   C849      1.0  0.78290  0.70750  0.46720  1.0000
  C   C850      1.0  0.90222  0.81991  0.44646  1.0000
  C   C851      1.0  0.88789  0.78594  0.43388  1.0000
  C   C852      1.0  0.86701  0.75767  0.45042  1.0000
  C   C853      1.0  0.85938  0.76407  0.47941  1.0000
  C   C854      1.0  0.87289  0.79890  0.49214  1.0000
  C   C855      1.0  0.89512  0.82609  0.47550  1.0000
  P   P28       1.0  0.86575  0.80567  0.52992  1.0000
  C   C856      1.0  0.84758  0.85649  0.54059  1.0000
  C   C857      1.0  0.83736  0.76540  0.54567  1.0000
  C   C858      1.0  0.80257  0.77139  0.54766  1.0000
  C   C859      1.0  0.65269  0.86679  0.45708  1.0000
  C   C860      1.0  0.82746  0.69591  0.56669  1.0000
  C   C861      1.0  0.84967  0.72742  0.55524  1.0000
  C   C862      1.0  0.83458  0.86318  0.56893  1.0000
  H   H685      1.0  0.57928  0.93419  0.53595  1.0000
  H   H686      1.0  0.83371  0.95524  0.51579  1.0000
  C   C863      1.0  0.83468  0.92957  0.53061  1.0000
  C   C864      1.0  0.84645  0.88972  0.52129  1.0000
  C   C865      1.0  0.90581  0.79984  0.54259  1.0000
  C   C866      1.0  0.93201  0.77790  0.52640  1.0000
  H   H687      1.0  0.63477  0.88909  0.46759  1.0000
  S   S120      1.0  0.71303  0.84797  0.34993  1.0000
  C   C867      1.0  0.94236  0.81222  0.57805  1.0000
  C   C868      1.0  0.91112  0.81631  0.56878  1.0000
  H   H688      1.0  0.91925  0.84103  0.43367  1.0000
  H   H689      1.0  0.89340  0.78103  0.41134  1.0000
  H   H690      1.0  0.85728  0.73025  0.44074  1.0000
  H   H691      1.0  0.84370  0.74111  0.49174  1.0000
  H   H692      1.0  0.90738  0.85168  0.48508  1.0000
  H   H693      1.0  0.79261  0.80032  0.54015  1.0000
  H   H694      1.0  0.83719  0.66650  0.57373  1.0000
  H   H695      1.0  0.87637  0.72194  0.55376  1.0000
  H   H696      1.0  0.83368  0.83768  0.58407  1.0000
  Fe  Fe59      1.0  0.97462  0.65806  0.63019  1.0000
  H   H697      1.0  0.71852  0.79260  0.41599  1.0000
  C   C869      1.0  0.51656  0.90814  0.40173  1.0000
  H   H698      1.0  0.85437  0.88534  0.49912  1.0000
  H   H699      1.0  0.92826  0.76266  0.50692  1.0000
  C   C870      1.0  0.66885  0.81711  0.41944  1.0000
  C   C871      1.0  0.76689  0.77834  0.45443  1.0000
  C   C872      1.0  0.93647  0.54576  0.55221  1.0000
  H   H700      1.0  0.66344  0.80081  0.40075  1.0000
  C   C873      1.0  0.87312  0.48291  0.35418  1.0000
  H   H701      1.0  0.77701  0.96436  0.41297  1.0000
  H   H702      1.0  0.85031  0.51763  0.42112  1.0000
  H   H703      1.0  0.76207  0.75347  0.49699  1.0000
  Fe  Fe60      1.0  0.73208  0.92684  0.63667  1.0000
  H   H704      1.0  0.77854  0.79321  0.41015  1.0000
  H   H705      1.0  0.89161  0.55353  0.58190  1.0000
  C   C874      1.0  0.77923  0.76941  0.42628  1.0000
  S   S121      1.0  0.88190  0.56393  0.67011  1.0000
  H   H706      1.0  0.77575  0.67785  0.57798  1.0000
  C   C875      1.0  0.79239  0.72963  0.41860  1.0000
  C   C876      1.0  0.82378  0.93645  0.55912  1.0000
  H   H707      1.0  0.83837  0.95189  0.40743  1.0000
  Fe  Fe61      1.0  0.69481  0.91579  0.35765  1.0000
  C   C877      1.0  0.48915  0.95249  0.43932  1.0000
  H   H708      1.0  0.92741  0.57035  0.43899  1.0000
  C   C878      1.0  0.95656  0.55472  0.47198  1.0000
  C   C879      1.0  0.49406  0.87539  0.41012  1.0000
  C   C880      1.0  0.82310  0.90306  0.57816  1.0000
  H   H709      1.0  0.83410  0.74697  0.63010  1.0000
  C   C881      1.0  0.98105  0.52804  0.48061  1.0000
  H   H710      1.0  0.49876  0.93041  0.49357  1.0000
  C   C882      1.0  0.50885  0.92769  0.66467  1.0000
  S   S122      1.0  0.93406  0.66921  0.66643  1.0000
  C   C883      1.0  0.78998  0.67424  0.66325  1.0000
  H   H711      1.0  0.52844  0.90488  0.66641  1.0000
  H   H712      1.0  0.83172  0.85932  0.36535  1.0000
  C   C884      1.0  0.75407  0.82894  0.35219  1.0000
  C   C885      1.0  0.81206  0.83874  0.36009  1.0000
  C   C886      1.0  0.49803  0.95924  0.50568  1.0000
  C   C887      1.0  0.95870  0.47468  0.54735  1.0000
  C   C888      1.0  0.50353  0.95709  0.53379  1.0000
  H   H713      1.0  0.88845  0.47808  0.59591  1.0000
  S   S123      1.0  0.86028  0.77654  0.35607  1.0000
  C   C889      1.0  0.81907  0.79572  0.35465  1.0000
  C   C890      1.0  0.95815  0.51548  0.42859  1.0000
  C   C891      1.0  0.76109  0.78597  0.34678  1.0000
  C   C892      1.0  0.77379  0.71082  0.67431  1.0000
  H   H714      1.0  0.65549  0.96472  0.51154  1.0000
  C   C893      1.0  0.98076  0.48700  0.43783  1.0000
  C   C894      1.0  0.88557  0.46736  0.40901  1.0000
  H   H715      1.0  0.85674  0.93347  0.34446  1.0000
  S   S124      1.0  0.69579  0.96496  0.66706  1.0000
  H   H716      1.0  0.79837  0.73636  0.34354  1.0000
  H   H717      1.0  0.74883  0.94900  0.71117  1.0000
  H   H718      1.0  0.96198  0.56926  0.90667  1.0000
  S   S125      1.0  0.90850  0.53854  0.86815  1.0000
  H   H719      1.0  0.77375  0.85568  0.80122  1.0000
  H   H720      1.0  0.69678  0.83359  0.73584  1.0000
  C   C895      1.0  0.54457  0.87797  0.90722  1.0000
  Fe  Fe62      1.0  0.94173  0.48254  0.85822  1.0000
  Fe  Fe63      1.0  0.88243  0.51538  0.83247  1.0000
  S   S126      1.0  0.87092  0.56800  0.80320  1.0000
  H   H721      1.0  0.91076  0.70940  0.79933  1.0000
  H   H722      1.0  0.55940  0.88618  0.88738  1.0000
  H   H723      1.0  0.93476  0.73169  0.71060  1.0000
  H   H724      1.0  0.82760  0.52079  0.99838  1.0000
  C   C896      1.0  0.50464  0.85735  0.95781  1.0000
  C   C897      1.0  0.97498  0.62205  0.73199  1.0000
  C   C898      1.0  0.86850  0.49914  0.96799  1.0000
  C   C899      1.0  0.85257  0.50752  0.99537  1.0000
  C   C900      1.0  0.54761  0.91920  0.71924  1.0000
  H   H725      1.0  0.74174  0.87183  0.70535  1.0000
  H   H726      1.0  0.53765  0.87386  0.75327  1.0000
  C   C901      1.0  0.88120  0.56386  0.70703  1.0000
  C   C902      1.0  0.87365  0.52654  0.72256  1.0000
  C   C903      1.0  0.87198  0.52657  0.75210  1.0000
  C   C904      1.0  0.87718  0.56419  0.76620  1.0000
  C   C905      1.0  0.88516  0.60110  0.75057  1.0000
  C   C906      1.0  0.88761  0.60081  0.72120  1.0000
  H   H727      1.0  0.86873  0.49770  0.71177  1.0000
  H   H728      1.0  0.85053  0.71509  0.79556  1.0000
  H   H729      1.0  0.88935  0.63021  0.76129  1.0000
  H   H730      1.0  0.89340  0.62970  0.70971  1.0000
  H   H731      1.0  0.78674  0.90383  0.76036  1.0000
  H   H732      1.0  0.57777  0.85248  0.83355  1.0000
  H   H733      1.0  0.98036  0.57238  0.84819  1.0000
  P   P29       1.0  0.65312  0.96314  0.78700  1.0000
  C   C907      1.0  0.79084  0.79978  0.77787  1.0000
  C   C908      1.0  0.96983  0.61352  0.76078  1.0000
  C   C909      1.0  0.57940  0.88149  0.82146  1.0000
  S   S127      1.0  0.84803  0.51117  0.93879  1.0000
  H   H734      1.0  0.98053  0.78003  0.67841  1.0000
  H   H735      1.0  0.95752  0.61013  0.71867  1.0000
  P   P30       1.0  0.81391  0.72778  0.74742  1.0000
  C   C910      1.0  0.55007  0.90201  0.81656  1.0000
  H   H736      1.0  0.63315  0.88442  0.81722  1.0000
  H   H737      1.0  0.94298  0.49484  0.74471  1.0000
  C   C911      1.0  0.53928  0.83562  0.91491  1.0000
  C   C912      1.0  0.68131  0.93332  0.76159  1.0000
  H   H738      1.0  0.94813  0.53452  0.69978  1.0000
  C   C913      1.0  0.91633  0.72713  0.72902  1.0000
  C   C914      1.0  0.58931  0.87277  0.73501  1.0000
  H   H739      1.0  0.63942  0.87812  0.71239  1.0000
  C   C915      1.0  0.57277  0.93694  0.69943  1.0000
  C   C916      1.0  0.72521  0.88878  0.72131  1.0000
  H   H740      1.0  0.74415  0.73165  0.77509  1.0000
  C   C917      1.0  0.78423  0.84307  0.78093  1.0000
  C   C918      1.0  0.81263  0.81100  0.72882  1.0000
  H   H741      1.0  0.59579  0.84810  0.74892  1.0000
  C   C919      1.0  0.61073  0.89942  0.81186  1.0000
  H   H742      1.0  0.51474  0.79251  0.94601  1.0000
  H   H743      1.0  0.94852  0.59462  0.76987  1.0000
  H   H744      1.0  0.52570  0.88938  0.82514  1.0000
  C   C920      1.0  0.61294  0.93749  0.79662  1.0000
  C   C921      1.0  0.55625  0.88740  0.73733  1.0000
  C   C922      1.0  0.97733  0.54141  0.98248  1.0000
  P   P31       1.0  0.50540  0.93993  0.72272  1.0000
  H   H745      1.0  0.53400  0.94251  0.91798  1.0000
  H   H746      1.0  0.95312  0.71702  0.75693  1.0000
  H   H747      1.0  0.83759  0.65409  0.71462  1.0000
  C   C923      1.0  0.80428  0.78329  0.75158  1.0000
  H   H748      1.0  0.79482  0.60057  0.80731  1.0000
  H   H749      1.0  0.55030  0.81078  0.90116  1.0000
  C   C924      1.0  0.72920  0.93225  0.72456  1.0000
  H   H750      1.0  0.82815  0.64670  0.77320  1.0000
  C   C925      1.0  0.75566  0.70369  0.78251  1.0000
  H   H751      1.0  0.82446  0.79926  0.70865  1.0000
  C   C926      1.0  0.78931  0.69406  0.77281  1.0000
  C   C927      1.0  0.82038  0.67065  0.70320  1.0000
  H   H752      1.0  0.87461  0.73506  0.70612  1.0000
  H   H753      1.0  0.71063  0.68455  0.80932  1.0000
  C   C928      1.0  0.69974  0.86732  0.73844  1.0000
  C   C929      1.0  0.97038  0.52276  0.70754  1.0000
  C   C930      1.0  0.95107  0.56847  0.97817  1.0000
  C   C931      1.0  0.60566  0.92201  0.69705  1.0000
  H   H754      1.0  0.93434  0.58039  0.99605  1.0000
  C   C932      1.0  0.90280  0.71512  0.77902  1.0000
  C   C933      1.0  0.70732  0.95441  0.74452  1.0000
  C   C934      1.0  0.73651  0.67689  0.80169  1.0000
  C   C935      1.0  0.79170  0.87026  0.75796  1.0000
  H   H755      1.0  0.81249  0.87536  0.71424  1.0000
  C   C936      1.0  0.67782  0.88943  0.75848  1.0000
  C   C937      1.0  0.49340  0.94978  0.68838  1.0000
  C   C938      1.0  0.75065  0.63996  0.81088  1.0000
  C   C939      1.0  0.92666  0.71944  0.75514  1.0000
  C   C940      1.0  0.78377  0.62948  0.80058  1.0000
  C   C941      1.0  0.55207  0.94016  0.80182  1.0000
  C   C942      1.0  0.51027  0.89997  0.95046  1.0000
  C   C943      1.0  0.96636  0.56187  0.92788  1.0000
  C   C944      1.0  0.78127  0.72770  0.69962  1.0000
  S   S128      1.0  0.84451  0.47657  0.86074  1.0000
  C   C945      1.0  0.86861  0.71786  0.77673  1.0000
  C   C946      1.0  0.80610  0.85424  0.73197  1.0000
  H   H756      1.0  0.76826  0.75585  0.70788  1.0000
  H   H757      1.0  0.73591  0.61916  0.82574  1.0000
  H   H758      1.0  0.65806  0.87212  0.77104  1.0000
  C   C947      1.0  0.80516  0.70808  0.71398  1.0000
  C   C948      1.0  0.58327  0.95779  0.79185  1.0000
  C   C949      1.0  0.80286  0.65611  0.78137  1.0000
  C   C950      1.0  0.50550  0.94563  0.00584  1.0000
  C   C951      1.0  0.61393  0.88982  0.71468  1.0000
  H   H759      1.0  0.78594  0.77942  0.79610  1.0000
  H   H760      1.0  0.86547  0.49799  0.76400  1.0000
  C   C952      1.0  0.51929  0.82533  0.94019  1.0000
  H   H761      1.0  0.92382  0.59728  0.94758  1.0000
  C   C953      1.0  0.88214  0.72901  0.72655  1.0000
  C   C954      1.0  0.85800  0.72332  0.75031  1.0000
  Fe  Fe64      1.0  0.87435  0.49446  0.89532  1.0000
  C   C955      1.0  0.90074  0.48205  0.96426  1.0000
  C   C956      1.0  0.94509  0.57791  0.95089  1.0000
  C   C957      1.0  0.81307  0.65396  0.67784  1.0000
  H   H762      1.0  0.98024  0.53331  0.00382  1.0000
  C   C958      1.0  0.53014  0.91006  0.92486  1.0000
  H   H763      1.0  0.62470  0.93532  0.68129  1.0000
  H   H764      1.0  0.53285  0.88649  0.00282  1.0000
  H   H765      1.0  0.56705  0.96234  0.68570  1.0000
  H   H766      1.0  0.52938  0.95730  0.79939  1.0000
  C   C959      1.0  0.96751  0.50009  0.73271  1.0000
  H   H767      1.0  0.91351  0.47613  0.94335  1.0000
  C   C960      1.0  0.91714  0.47404  0.98760  1.0000
  P   P32       1.0  0.48948  0.94079  0.97262  1.0000
  H   H768      1.0  0.48859  0.84895  0.97706  1.0000
