data_image0
_chemical_formula_structural       FeSCFeS2FeCFeS3H2FeSC2FeS2HC2HCHCH2C6H4C6H4C2SHCH2CH3CH2CSHCPCHFeC8H4C2SC3HSHCH4CHC9H8CH2C3PC3HC10HSH2CH9C2PC4HC4HC2H4C4H2CHFeH2CH2CH2C3H2C5HC2SH3CHC4H2CHSHC4H2FeSFeSCFeSFeS3H3CHCHSCHCSCH2C2SHC2H3C2PH2FeC5H3FeC2FeH2C4H3SHC3PC19H14CH2C3H2CSH2C2H3SCHC3HCH2C3HCHCSHFeHCHSC2H2CSH2C2HC2H2C5HCHSC2HCH2C2H4C3H2CH2C4SH2C3HC2HCH2SHPHCHC2HC3HC2HFeS2FeS2FeSFeHS2FeS2H2FeCFeCPSHC5H3SHCSHC8H4C2H2C8HCHCHCHC3HC3H5C2HC3HCFeHCH5SHSC2H3CFePC2HCH2C2HC5H2C3H3C2HSC2H5C2H2C4H2C3PCHC3SCHC4SHCHCHC2HCHC4H3C2H3CHCH3C2H2CH6C3HC5HCH3CH2C6FeS2FeS2FeSFeS3C2H2C2HCHC3H3CH2C6H2CHC8HCH2C6H3C3H2C4HC3H2C2PC2HCHC2HCH2C8H3CH2CSH2CH3C3H2C4HC2H2C3HC2HCH3C7HC2HC4HC2H7CH2C2PCHC3HCPC5HC4PHPC2HCHPCH2C3H6C2PC4H2C2HCH7CHCH2C6HC2H6C2HCH2FeS2CH2C4FeSFeSFeSFeCS2H2CHSCHC2H2CFeC3HC2H2CHC10H4C2HC2HCSHCHCHCSH3CH2C3SC4HC10PC3HC3HC7H4PSC2HSH5C3HC3PC3H2CHC3H2CH2C5HC3H4CH3CH2CH2CHCH3C2HC2SC2H3SCH3C2H7C2H2C3H2FeH2CH2C2HC2HFeCHCHCFe2S2FeS2FeSFeS3FeSCHC5HC9H4C6H5C4H3PC7PCH2C3HC2HCH5C2H5CHCHC2HC2H3C6PC2H3CH6CSCHC4H2C3HCSHCH2PSHC2HC3HC2HCH2CHC2HC3HCH2C2H3PHCHC8HSC2HCHCH2C2H2CHCH3C2HSCHC2H2C3HC2PCHCH4CH2FeH2S2C3SC3HCHC8H6CHC2HC4HC2H2C4HCSCHCH4C3HCHPFeHSCH3CHPHCH2FeC2HC2H3CHC4HC2HC4HCH2CHCHC4FeHCHCHCHSHCH2C2HSH2SH2C2H3CH3CH3CHC2FeS2Fe2S3FeC4H2C3HC4HC3HSHCH2CH2CH2FeHC2H6CHC2HC3PC9HSC5SCSFeH3CH5PCH3C6H2C2H2C2HCHC5SC2HC3SFeH2C3HC2HCHCH3SH2SFeH2FeCSHCHSFeCHC2HC3H4C6H5CHC2H2CSCH3CPSHCHSCH2CSCH2SHC2HC2HS2CH2SCHFeCSC7HFeCFeH2C3H5C3FeCHC6HCHC2H2CH4CH2CH2C2HCH3C2H3CHC3HCPCH3CS2HSHCS2H3FeCH3FeHCHC2H3C5H5CHPC3HSFeC7H2CH2C3H2CH6CH3C2HC4H2SC2H2C3HC2HC5H2CH2CH2C6HC3H
_chemical_formula_sum              "Fe64 S128 C960 H768 P32"
_cell_length_a       26.9468
_cell_length_b       38.1304
_cell_length_c       49.2531
_cell_angle_alpha    92.5365
_cell_angle_beta     81.4054
_cell_angle_gamma    81.8675

_space_group_name_H-M_alt    "P 1"
_space_group_IT_number       1

loop_
  _space_group_symop_operation_xyz
  'x, y, z'

loop_
  _atom_site_type_symbol
  _atom_site_label
  _atom_site_symmetry_multiplicity
  _atom_site_fract_x
  _atom_site_fract_y
  _atom_site_fract_z
  _atom_site_occupancy
  Fe  Fe1       1.0  0.25918  0.05645  0.16461  1.0000
  S   S1        1.0  0.34014  0.06464  0.16456  1.0000
  C   C1        1.0  0.36586  0.12827  0.00466  1.0000
  Fe  Fe2       1.0  0.22533  0.13381  0.15300  1.0000
  S   S2        1.0  0.30371  0.14710  0.15248  1.0000
  S   S3        1.0  0.15861  0.17410  0.14638  1.0000
  Fe  Fe3       1.0  0.32892  0.09554  0.12734  1.0000
  C   C2        1.0  0.07154  0.44015  0.28334  1.0000
  Fe  Fe4       1.0  0.30599  0.11517  0.18961  1.0000
  S   S4        1.0  0.32955  0.14000  0.22736  1.0000
  S   S5        1.0  0.25055  0.08372  0.12559  1.0000
  S   S6        1.0  0.22544  0.10538  0.19194  1.0000
  H   H1        1.0  0.01220  0.40187  0.06715  1.0000
  H   H2        1.0  0.30288  0.32473  0.00837  1.0000
  Fe  Fe5       1.0  0.08943  0.43732  0.11642  1.0000
  S   S7        1.0  0.07369  0.38136  0.11784  1.0000
  C   C3        1.0  0.26877  0.00699  0.29656  1.0000
  C   C4        1.0  0.07155  0.44762  0.25557  1.0000
  Fe  Fe6       1.0  0.11553  0.37842  0.15393  1.0000
  S   S8        1.0  0.18140  0.33691  0.15830  1.0000
  S   S9        1.0  0.13694  0.43290  0.15022  1.0000
  H   H3        1.0  0.46226  0.46817  0.24331  1.0000
  C   C5        1.0  0.39510  0.03397  0.00461  1.0000
  C   C6        1.0  0.41752  0.11909  0.04098  1.0000
  H   H4        1.0  0.16010  0.07363  0.06705  1.0000
  C   C7        1.0  0.08762  0.46538  0.04927  1.0000
  H   H5        1.0  0.45475  0.25200  0.28411  1.0000
  C   C8        1.0  0.07884  0.43594  0.03350  1.0000
  H   H6        1.0  0.24611  0.47816  0.24501  1.0000
  H   H7        1.0  0.08901  0.40948  0.03992  1.0000
  C   C9        1.0  0.16543  0.21948  0.14822  1.0000
  C   C10       1.0  0.21290  0.23010  0.14869  1.0000
  C   C11       1.0  0.21731  0.26624  0.15138  1.0000
  C   C12       1.0  0.17432  0.29210  0.15339  1.0000
  C   C13       1.0  0.12693  0.28179  0.15200  1.0000
  C   C14       1.0  0.12253  0.24549  0.14945  1.0000
  H   H8        1.0  0.24626  0.21055  0.14699  1.0000
  H   H9        1.0  0.25412  0.27415  0.15204  1.0000
  H   H10       1.0  0.09359  0.30167  0.15342  1.0000
  H   H11       1.0  0.08574  0.23748  0.14887  1.0000
  C   C15       1.0  0.34848  0.11402  0.25383  1.0000
  C   C16       1.0  0.34022  0.12969  0.28068  1.0000
  C   C17       1.0  0.35758  0.11100  0.30219  1.0000
  C   C18       1.0  0.38299  0.07621  0.29715  1.0000
  C   C19       1.0  0.39130  0.06039  0.27021  1.0000
  C   C20       1.0  0.37390  0.07918  0.24859  1.0000
  H   H12       1.0  0.32113  0.15670  0.28476  1.0000
  H   H13       1.0  0.35267  0.12403  0.32245  1.0000
  H   H14       1.0  0.41137  0.03366  0.26601  1.0000
  H   H15       1.0  0.38072  0.06691  0.22789  1.0000
  C   C21       1.0  0.37791  0.10698  0.05793  1.0000
  C   C22       1.0  0.33153  0.10597  0.04832  1.0000
  S   S10       1.0  0.39015  0.09181  0.09012  1.0000
  H   H16       1.0  0.30079  0.09635  0.06116  1.0000
  C   C23       1.0  0.47940  0.26057  0.29764  1.0000
  H   H17       1.0  0.24638  0.08999  0.27386  1.0000
  H   H18       1.0  0.08101  0.42630  0.23960  1.0000
  C   C24       1.0  0.23806  0.47136  0.31572  1.0000
  H   H19       1.0  0.13679  0.31786  0.04806  1.0000
  H   H20       1.0  0.18823  0.45880  0.28689  1.0000
  H   H21       1.0  0.26688  0.26119  0.27823  1.0000
  C   C25       1.0  0.44252  0.13640  0.14513  1.0000
  H   H22       1.0  0.16236  0.39701  0.00060  1.0000
  H   H23       1.0  0.33225  0.38278  0.20594  1.0000
  C   C26       1.0  0.42020  0.19782  0.25670  1.0000
  S   S11       1.0  0.23062  0.00432  0.17291  1.0000
  H   H24       1.0  0.39092  0.22079  0.26002  1.0000
  C   C27       1.0  0.21284  0.34424  0.07886  1.0000
  P   P1        1.0  0.44302  0.21736  0.20271  1.0000
  C   C28       1.0  0.15797  0.03956  0.10075  1.0000
  H   H25       1.0  0.43468  0.38313  0.33052  1.0000
  Fe  Fe7       1.0  0.00600  0.40455  0.14920  1.0000
  C   C29       1.0  0.17820  0.04998  0.07512  1.0000
  C   C30       1.0  0.29225  0.26029  0.29342  1.0000
  C   C31       1.0  0.25554  0.06132  0.27317  1.0000
  C   C32       1.0  0.46349  0.29133  0.31530  1.0000
  C   C33       1.0  0.20462  0.45138  0.30492  1.0000
  C   C34       1.0  0.38426  0.35269  0.17266  1.0000
  C   C35       1.0  0.26869  0.04182  0.24781  1.0000
  C   C36       1.0  0.29604  0.37423  0.17082  1.0000
  H   H26       1.0  0.47751  0.35882  0.22713  1.0000
  H   H27       1.0  0.26478  0.40792  0.04322  1.0000
  H   H28       1.0  0.04709  0.33400  0.06937  1.0000
  H   H29       1.0  0.49521  0.22574  0.14620  1.0000
  C   C37       1.0  0.37639  0.01333  0.02540  1.0000
  C   C38       1.0  0.22242  0.03044  0.06015  1.0000
  S   S12       1.0  0.12145  0.46053  0.07723  1.0000
  C   C39       1.0  0.21599  0.37327  0.06268  1.0000
  C   C40       1.0  0.43583  0.15724  0.16984  1.0000
  C   C41       1.0  0.18226  0.00979  0.11156  1.0000
  H   H30       1.0  0.43549  0.28097  0.05310  1.0000
  S   S13       1.0  0.40593  0.05268  0.32404  1.0000
  H   H31       1.0  0.34166  0.37817  0.05913  1.0000
  C   C42       1.0  0.40885  0.46440  0.27988  1.0000
  H   H32       1.0  0.28612  0.26427  0.01895  1.0000
  H   H33       1.0  0.23747  0.03971  0.04068  1.0000
  H   H34       1.0  0.17732  0.45862  0.01123  1.0000
  H   H35       1.0  0.25914  0.38793  0.18048  1.0000
  C   C43       1.0  0.44637  0.30632  0.05831  1.0000
  H   H36       1.0  0.12427  0.05508  0.11259  1.0000
  C   C44       1.0  0.42827  0.17692  0.27873  1.0000
  C   C45       1.0  0.49290  0.31425  0.04525  1.0000
  C   C46       1.0  0.37911  0.24152  0.20760  1.0000
  C   C47       1.0  0.32569  0.11624  0.02152  1.0000
  C   C48       1.0  0.33922  0.22501  0.20027  1.0000
  C   C49       1.0  0.29007  0.24372  0.20319  1.0000
  C   C50       1.0  0.28023  0.27924  0.21318  1.0000
  C   C51       1.0  0.31934  0.29570  0.22127  1.0000
  C   C52       1.0  0.36851  0.27686  0.21880  1.0000
  H   H37       1.0  0.34906  0.46505  0.31359  1.0000
  H   H38       1.0  0.42762  0.11144  0.14452  1.0000
  H   H39       1.0  0.34562  0.19756  0.19246  1.0000
  H   H40       1.0  0.25953  0.23052  0.19762  1.0000
  H   H41       1.0  0.24217  0.29382  0.21471  1.0000
  H   H42       1.0  0.31140  0.32306  0.22945  1.0000
  H   H43       1.0  0.39798  0.28997  0.22560  1.0000
  H   H44       1.0  0.16335  0.40710  0.30994  1.0000
  C   C53       1.0  0.05725  0.33418  0.04723  1.0000
  H   H45       1.0  0.47693  0.31962  0.26526  1.0000
  H   H46       1.0  0.17641  0.33604  0.08582  1.0000
  C   C54       1.0  0.30627  0.36789  0.06424  1.0000
  C   C55       1.0  0.30325  0.33878  0.08060  1.0000
  C   C56       1.0  0.25631  0.32681  0.08752  1.0000
  P   P2        1.0  0.35635  0.32044  0.09658  1.0000
  C   C57       1.0  0.35710  0.27293  0.09664  1.0000
  C   C58       1.0  0.41522  0.33076  0.07809  1.0000
  C   C59       1.0  0.43103  0.36342  0.08414  1.0000
  H   H47       1.0  0.24761  0.05922  0.31720  1.0000
  C   C60       1.0  0.36189  0.25502  0.12065  1.0000
  C   C61       1.0  0.36144  0.21840  0.12046  1.0000
  C   C62       1.0  0.35617  0.19935  0.09644  1.0000
  C   C63       1.0  0.35095  0.21694  0.07253  1.0000
  C   C64       1.0  0.35106  0.25364  0.07265  1.0000
  C   C65       1.0  0.34864  0.34019  0.13134  1.0000
  C   C66       1.0  0.38996  0.33715  0.14587  1.0000
  C   C67       1.0  0.30186  0.35922  0.14396  1.0000
  C   C68       1.0  0.25606  0.04395  0.29754  1.0000
  C   C69       1.0  0.46445  0.14633  0.27477  1.0000
  H   H48       1.0  0.41591  0.14783  0.18821  1.0000
  S   S14       1.0  0.04662  0.39610  0.18575  1.0000
  H   H49       1.0  0.25254  0.30528  0.10102  1.0000
  H   H50       1.0  0.40767  0.38288  0.09914  1.0000
  C   C70       1.0  0.10820  0.32516  0.03525  1.0000
  H   H51       1.0  0.36507  0.26907  0.13971  1.0000
  H   H52       1.0  0.36472  0.20470  0.13902  1.0000
  H   H53       1.0  0.35560  0.17095  0.09642  1.0000
  H   H54       1.0  0.34643  0.20197  0.05402  1.0000
  H   H55       1.0  0.34646  0.26695  0.05403  1.0000
  H   H56       1.0  0.42655  0.32287  0.13640  1.0000
  H   H57       1.0  0.41626  0.35040  0.18374  1.0000
  H   H58       1.0  0.40519  0.18352  0.29871  1.0000
  H   H59       1.0  0.43577  0.44720  0.28949  1.0000
  C   C71       1.0  0.41125  0.13021  0.01482  1.0000
  C   C72       1.0  0.44446  0.36148  0.24297  1.0000
  P   P3        1.0  0.40139  0.31642  0.31514  1.0000
  C   C73       1.0  0.40189  0.34330  0.28587  1.0000
  C   C74       1.0  0.36045  0.36979  0.28471  1.0000
  C   C75       1.0  0.36108  0.39184  0.26277  1.0000
  C   C76       1.0  0.40344  0.38798  0.24209  1.0000
  H   H60       1.0  0.29031  0.11481  0.01394  1.0000
  C   C77       1.0  0.44391  0.33921  0.26476  1.0000
  C   C78       1.0  0.35773  0.28459  0.31407  1.0000
  C   C79       1.0  0.33720  0.37110  0.18514  1.0000
  C   C80       1.0  0.44968  0.18884  0.23070  1.0000
  H   H61       1.0  0.18190  0.38742  0.05667  1.0000
  C   C81       1.0  0.01949  0.34226  0.03070  1.0000
  C   C82       1.0  0.32389  0.28622  0.29489  1.0000
  H   H62       1.0  0.45344  0.11987  0.04812  1.0000
  H   H63       1.0  0.32791  0.37366  0.30098  1.0000
  H   H64       1.0  0.32933  0.41254  0.26219  1.0000
  H   H65       1.0  0.40503  0.40590  0.22560  1.0000
  C   C83       1.0  0.48003  0.20106  0.14640  1.0000
  C   C84       1.0  0.26277  0.38488  0.05518  1.0000
  C   C85       1.0  0.46766  0.14787  0.12105  1.0000
  C   C86       1.0  0.19030  0.42173  0.31797  1.0000
  H   H66       1.0  0.26935  0.36249  0.13338  1.0000
  H   H67       1.0  0.46894  0.12936  0.29163  1.0000
  C   C87       1.0  0.06013  0.48268  0.24855  1.0000
  H   H68       1.0  0.32219  0.30700  0.28073  1.0000
  Fe  Fe8       1.0  0.06510  0.45099  0.17963  1.0000
  H   H69       1.0  0.26969  0.05531  0.22890  1.0000
  H   H70       1.0  0.45598  0.28090  0.17282  1.0000
  C   C88       1.0  0.05955  0.46755  0.30436  1.0000
  H   H71       1.0  0.36187  0.49403  0.17816  1.0000
  H   H72       1.0  0.39717  0.00917  0.04237  1.0000
  C   C89       1.0  0.29379  0.23279  0.31124  1.0000
  H   H73       1.0  0.44232  0.13962  0.00211  1.0000
  H   H74       1.0  0.40379  0.01106  0.12133  1.0000
  C   C90       1.0  0.35911  0.47441  0.29343  1.0000
  C   C91       1.0  0.48674  0.15840  0.22701  1.0000
  C   C92       1.0  0.48660  0.18010  0.12170  1.0000
  H   H75       1.0  0.08056  0.41298  0.28856  1.0000
  H   H76       1.0  0.49047  0.39579  0.07666  1.0000
  C   C93       1.0  0.45416  0.18995  0.17072  1.0000
  C   C94       1.0  0.24688  0.00015  0.07073  1.0000
  C   C95       1.0  0.20820  0.43894  0.00099  1.0000
  C   C96       1.0  0.28202  0.00499  0.24675  1.0000
  C   C97       1.0  0.12199  0.32437  0.00671  1.0000
  H   H77       1.0  0.33871  0.02107  0.09120  1.0000
  C   C98       1.0  0.05935  0.44063  0.00859  1.0000
  C   C99       1.0  0.47779  0.37101  0.07131  1.0000
  S   S15       1.0  0.01897  0.46105  0.14534  1.0000
  H   H78       1.0  0.47212  0.13177  0.10188  1.0000
  H   H79       1.0  0.45170  0.40052  0.01763  1.0000
  H   H80       1.0  0.42909  0.04564  0.00605  1.0000
  C   C100      1.0  0.48807  0.24841  0.20263  1.0000
  H   H81       1.0  0.16722  0.00222  0.13175  1.0000
  C   C101      1.0  0.32720  0.23103  0.33043  1.0000
  C   C102      1.0  0.48513  0.27720  0.18579  1.0000
  C   C103      1.0  0.33129  0.99912  0.02418  1.0000
  C   C104      1.0  0.42380  0.47621  0.25392  1.0000
  H   H82       1.0  0.30658  0.47316  0.14668  1.0000
  H   H83       1.0  0.49107  0.48760  0.04208  1.0000
  C   C105      1.0  0.35941  0.25658  0.33167  1.0000
  H   H84       1.0  0.26953  0.21255  0.30996  1.0000
  S   S16       1.0  0.06288  0.49355  0.21377  1.0000
  H   H85       1.0  0.27130  0.99461  0.99996  1.0000
  C   C106      1.0  0.30597  0.00541  0.00153  1.0000
  C   C107      1.0  0.03379  0.34150  0.00199  1.0000
  C   C108      1.0  0.49360  0.13703  0.24890  1.0000
  C   C109      1.0  0.49657  0.30221  0.33238  1.0000
  H   H86       1.0  0.36856  0.39011  0.00631  1.0000
  H   H87       1.0  0.47170  0.44916  0.63017  1.0000
  Fe  Fe9       1.0  0.37570  0.07667  0.36742  1.0000
  S   S17       1.0  0.30344  0.11537  0.37472  1.0000
  Fe  Fe10      1.0  0.38523  0.08170  0.42918  1.0000
  S   S18       1.0  0.31351  0.12039  0.43915  1.0000
  C   C110      1.0  0.40286  0.07603  0.49809  1.0000
  Fe  Fe11      1.0  0.28271  0.08344  0.41102  1.0000
  S   S19       1.0  0.20613  0.06475  0.42243  1.0000
  Fe  Fe12      1.0  0.34485  0.14669  0.40167  1.0000
  S   S20       1.0  0.34762  0.20649  0.40133  1.0000
  S   S21       1.0  0.35325  0.04359  0.40278  1.0000
  S   S22       1.0  0.41791  0.10916  0.39261  1.0000
  H   H88       1.0  0.26520  0.20602  0.50296  1.0000
  H   H89       1.0  0.30129  0.32665  0.60347  1.0000
  H   H90       1.0  0.44118  0.13580  0.53464  1.0000
  C   C111      1.0  0.16237  0.34405  0.66047  1.0000
  H   H91       1.0  0.23612  0.41285  0.64916  1.0000
  C   C112      1.0  0.06292  0.34574  0.45359  1.0000
  H   H92       1.0  0.24563  0.38274  0.57039  1.0000
  S   S23       1.0  0.49977  0.28690  0.65710  1.0000
  C   C113      1.0  0.32416  0.20193  0.52833  1.0000
  H   H93       1.0  0.12308  0.18057  0.64563  1.0000
  C   C114      1.0  0.37306  0.36493  0.55360  1.0000
  S   S24       1.0  0.33666  0.04250  0.65296  1.0000
  C   C115      1.0  0.04360  0.44117  0.52412  1.0000
  H   H94       1.0  0.32790  0.31708  0.36648  1.0000
  H   H95       1.0  0.45197  0.17343  0.40330  1.0000
  C   C116      1.0  0.45136  0.20162  0.40216  1.0000
  C   C117      1.0  0.37496  0.45176  0.57916  1.0000
  S   S25       1.0  0.44997  0.05050  0.61887  1.0000
  H   H96       1.0  0.17051  0.23110  0.64803  1.0000
  C   C118      1.0  0.33925  0.30032  0.56498  1.0000
  C   C119      1.0  0.40571  0.22371  0.40115  1.0000
  H   H97       1.0  0.34696  0.41286  0.41022  1.0000
  H   H98       1.0  0.06433  0.29663  0.47346  1.0000
  H   H99       1.0  0.46250  0.04279  0.51339  1.0000
  C   C120      1.0  0.45159  0.27494  0.39994  1.0000
  C   C121      1.0  0.40607  0.26050  0.40018  1.0000
  P   P4        1.0  0.32311  0.39990  0.60346  1.0000
  H   H100      1.0  0.41184  0.33823  0.51539  1.0000
  H   H101      1.0  0.37098  0.27791  0.39967  1.0000
  Fe  Fe13      1.0  0.37046  0.07945  0.62345  1.0000
  C   C122      1.0  0.04342  0.46054  0.50043  1.0000
  C   C123      1.0  0.39111  0.20296  0.47929  1.0000
  C   C124      1.0  0.19367  0.01999  0.42131  1.0000
  C   C125      1.0  0.14431  0.01396  0.43113  1.0000
  C   C126      1.0  0.37636  0.19915  0.52870  1.0000
  H   H102      1.0  0.34890  0.45255  0.56436  1.0000
  H   H103      1.0  0.30250  0.04142  0.48513  1.0000
  H   H104      1.0  0.11529  0.03627  0.43872  1.0000
  Fe  Fe14      1.0  0.03585  0.46006  0.62152  1.0000
  C   C127      1.0  0.33664  0.10750  0.53333  1.0000
  C   C128      1.0  0.35770  0.09969  0.50549  1.0000
  Fe  Fe15      1.0  0.41701  0.01533  0.65059  1.0000
  H   H105      1.0  0.30161  0.12577  0.53875  1.0000
  H   H106      1.0  0.33895  0.11227  0.48994  1.0000
  C   C129      1.0  0.20574  0.32075  0.54956  1.0000
  C   C130      1.0  0.41040  0.19863  0.50408  1.0000
  C   C131      1.0  0.40575  0.06818  0.54682  1.0000
  C   C132      1.0  0.30545  0.20497  0.50343  1.0000
  H   H107      1.0  0.38605  0.25418  0.34616  1.0000
  H   H108      1.0  0.38997  0.19660  0.54815  1.0000
  H   H109      1.0  0.32635  0.27519  0.56937  1.0000
  S   S26       1.0  0.06154  0.45724  0.33897  1.0000
  H   H110      1.0  0.38125  0.28094  0.52508  1.0000
  C   C133      1.0  0.22802  0.32233  0.52216  1.0000
  C   C134      1.0  0.20011  0.33993  0.50353  1.0000
  C   C135      1.0  0.14933  0.35503  0.51256  1.0000
  P   P5        1.0  0.22721  0.34016  0.46772  1.0000
  C   C136      1.0  0.29508  0.33927  0.46528  1.0000
  C   C137      1.0  0.21509  0.30097  0.44923  1.0000
  C   C138      1.0  0.17964  0.28019  0.46123  1.0000
  C   C139      1.0  0.17182  0.24929  0.44708  1.0000
  C   C140      1.0  0.19912  0.23899  0.42086  1.0000
  C   C141      1.0  0.23408  0.25965  0.40872  1.0000
  C   C142      1.0  0.24242  0.29030  0.42289  1.0000
  C   C143      1.0  0.32751  0.30659  0.46286  1.0000
  C   C144      1.0  0.37995  0.30566  0.46096  1.0000
  C   C145      1.0  0.40055  0.33725  0.46120  1.0000
  C   C146      1.0  0.36866  0.36984  0.46413  1.0000
  C   C147      1.0  0.31608  0.37094  0.46627  1.0000
  C   C148      1.0  0.19880  0.38032  0.45413  1.0000
  C   C149      1.0  0.18930  0.41254  0.47038  1.0000
  C   C150      1.0  0.16446  0.44321  0.46089  1.0000
  C   C151      1.0  0.14877  0.44210  0.43515  1.0000
  C   C152      1.0  0.15841  0.41035  0.41870  1.0000
  C   C153      1.0  0.18352  0.37956  0.42804  1.0000
  C   C154      1.0  0.04313  0.32260  0.47192  1.0000
  H   H111      1.0  0.26678  0.30965  0.51559  1.0000
  H   H112      1.0  0.12636  0.36797  0.49853  1.0000
  H   H113      1.0  0.15844  0.28735  0.48162  1.0000
  H   H114      1.0  0.14518  0.23290  0.45652  1.0000
  H   H115      1.0  0.19394  0.21463  0.41010  1.0000
  H   H116      1.0  0.25606  0.25112  0.38863  1.0000
  H   H117      1.0  0.27091  0.30519  0.41346  1.0000
  H   H118      1.0  0.31255  0.28169  0.46231  1.0000
  H   H119      1.0  0.40483  0.28039  0.45879  1.0000
  H   H120      1.0  0.44126  0.33657  0.45949  1.0000
  H   H121      1.0  0.38507  0.39423  0.46481  1.0000
  H   H122      1.0  0.29230  0.39653  0.46857  1.0000
  H   H123      1.0  0.20012  0.41396  0.49068  1.0000
  H   H124      1.0  0.15618  0.46786  0.47375  1.0000
  C   C155      1.0  0.38315  0.34681  0.34539  1.0000
  H   H125      1.0  0.14540  0.40966  0.39891  1.0000
  H   H126      1.0  0.18981  0.35525  0.41505  1.0000
  C   C156      1.0  0.34291  0.36187  0.57896  1.0000
  C   C157      1.0  0.32547  0.32944  0.58433  1.0000
  C   C158      1.0  0.49725  0.25263  0.40081  1.0000
  H   H127      1.0  0.19135  0.33658  0.61723  1.0000
  H   H128      1.0  0.04284  0.44726  0.48068  1.0000
  C   C159      1.0  0.12754  0.35373  0.53997  1.0000
  S   S27       1.0  0.33309  0.10316  0.58883  1.0000
  H   H129      1.0  0.41223  0.27468  0.60891  1.0000
  H   H130      1.0  0.08885  0.36627  0.54690  1.0000
  C   C160      1.0  0.15560  0.33669  0.55850  1.0000
  C   C161      1.0  0.25081  0.46044  0.60629  1.0000
  H   H131      1.0  0.09950  0.33782  0.44080  1.0000
  H   H132      1.0  0.30506  0.35934  0.40734  1.0000
  H   H133      1.0  0.41645  0.49020  0.55891  1.0000
  S   S28       1.0  0.09267  0.48095  0.64489  1.0000
  C   C162      1.0  0.26557  0.42508  0.59562  1.0000
  H   H134      1.0  0.25455  0.42479  0.37219  1.0000
  C   C163      1.0  0.34623  0.34048  0.36719  1.0000
  C   C164      1.0  0.39264  0.40139  0.37027  1.0000
  C   C165      1.0  0.38714  0.33573  0.53446  1.0000
  H   H135      1.0  0.27329  0.47267  0.61945  1.0000
  C   C166      1.0  0.17525  0.14532  0.66466  1.0000
  H   H136      1.0  0.32444  0.20780  0.45963  1.0000
  H   H137      1.0  0.45130  0.30325  0.39908  1.0000
  C   C167      1.0  0.19115  0.42985  0.57277  1.0000
  C   C168      1.0  0.04645  0.45801  0.54971  1.0000
  C   C169      1.0  0.40629  0.42837  0.61934  1.0000
  H   H138      1.0  0.22728  0.30710  0.56384  1.0000
  C   C170      1.0  0.22372  0.29387  0.63956  1.0000
  H   H139      1.0  0.15458  0.12306  0.66336  1.0000
  C   C171      1.0  0.40585  0.37768  0.34700  1.0000
  S   S29       1.0  0.05186  0.43241  0.57853  1.0000
  H   H140      1.0  0.29845  0.20052  0.54727  1.0000
  Fe  Fe16      1.0  0.45824  0.08757  0.65437  1.0000
  H   H141      1.0  0.42437  0.05584  0.56266  1.0000
  C   C172      1.0  0.34619  0.25962  0.63340  1.0000
  H   H142      1.0  0.27951  0.47746  0.34973  1.0000
  S   S30       1.0  0.00637  0.42791  0.65603  1.0000
  C   C173      1.0  0.44397  0.45025  0.61627  1.0000
  C   C174      1.0  0.33888  0.20583  0.47898  1.0000
  H   H143      1.0  0.14240  0.48033  0.57872  1.0000
  H   H144      1.0  0.04218  0.41304  0.52245  1.0000
  C   C175      1.0  0.37019  0.30347  0.54005  1.0000
  S   S31       1.0  0.43012  0.06511  0.46322  1.0000
  H   H145      1.0  0.41644  0.20332  0.46006  1.0000
  H   H146      1.0  0.13817  0.33589  0.57973  1.0000
  C   C176      1.0  0.36045  0.09176  0.55412  1.0000
  C   C177      1.0  0.03529  0.37901  0.45157  1.0000
  H   H147      1.0  0.47737  0.36936  0.54153  1.0000
  C   C178      1.0  0.47164  0.14428  0.54414  1.0000
  C   C179      1.0  0.23533  0.40987  0.57885  1.0000
  H   H148      1.0  0.40531  0.41118  0.63614  1.0000
  H   H149      1.0  0.24563  0.27952  0.62120  1.0000
  C   C180      1.0  0.31945  0.23165  0.64118  1.0000
  C   C181      1.0  0.33581  0.19785  0.62766  1.0000
  C   C182      1.0  0.37958  0.19176  0.60791  1.0000
  C   C183      1.0  0.26658  0.39495  0.65546  1.0000
  C   C184      1.0  0.39011  0.25345  0.61365  1.0000
  H   H150      1.0  0.33416  0.28589  0.64337  1.0000
  C   C185      1.0  0.17697  0.46506  0.58327  1.0000
  H   H151      1.0  0.48569  0.32557  0.34640  1.0000
  S   S32       1.0  0.38041  0.11808  0.65714  1.0000
  C   C186      1.0  0.44752  0.47256  0.59458  1.0000
  C   C187      1.0  0.35643  0.39469  0.39203  1.0000
  H   H152      1.0  0.38633  0.38964  0.54846  1.0000
  C   C188      1.0  0.42719  0.06073  0.51891  1.0000
  H   H153      1.0  0.44251  0.21406  0.58695  1.0000
  H   H154      1.0  0.12851  0.46586  0.42819  1.0000
  C   C189      1.0  0.19253  0.32586  0.63714  1.0000
  C   C190      1.0  0.31265  0.38411  0.63767  1.0000
  H   H155      1.0  0.31574  0.17572  0.63251  1.0000
  H   H156      1.0  0.39260  0.16522  0.59835  1.0000
  H   H157      1.0  0.38618  0.35090  0.63310  1.0000
  H   H158      1.0  0.32893  0.20937  0.34401  1.0000
  C   C191      1.0  0.33302  0.36439  0.39042  1.0000
  C   C192      1.0  0.18463  0.20635  0.65609  1.0000
  C   C193      1.0  0.24110  0.43195  0.35324  1.0000
  H   H159      1.0  0.45407  0.13599  0.46931  1.0000
  H   H160      1.0  0.13787  0.36876  0.65870  1.0000
  C   C194      1.0  0.37156  0.42869  0.60065  1.0000
  H   H161      1.0  0.16739  0.41815  0.56007  1.0000
  H   H162      1.0  0.05055  0.39716  0.43733  1.0000
  C   C195      1.0  0.15760  0.17774  0.65465  1.0000
  C   C196      1.0  0.35057  0.36014  0.64657  1.0000
  C   C197      1.0  0.40724  0.21936  0.60125  1.0000
  C   C198      1.0  0.20676  0.48035  0.60003  1.0000
  S   S33       1.0  0.48966  0.39862  0.48856  1.0000
  H   H163      1.0  0.01651  0.35882  0.57959  1.0000
  H   H164      1.0  0.41137  0.42465  0.37162  1.0000
  C   C199      1.0  0.41297  0.47338  0.57606  1.0000
  C   C200      1.0  0.30279  0.01408  0.47796  1.0000
  C   C201      1.0  0.47141  0.18529  0.65803  1.0000
  H   H165      1.0  0.19710  0.38901  0.35204  1.0000
  C   C202      1.0  0.49457  0.25822  0.52825  1.0000
  C   C203      1.0  0.49339  0.23839  0.50369  1.0000
  H   H166      1.0  0.43786  0.17278  0.65918  1.0000
  C   C204      1.0  0.49674  0.21596  0.40191  1.0000
  H   H167      1.0  0.47809  0.48838  0.59169  1.0000
  H   H168      1.0  0.38223  0.00562  0.46331  1.0000
  S   S34       1.0  0.49817  0.37044  0.41259  1.0000
  H   H169      1.0  0.46515  0.10706  0.57574  1.0000
  P   P6        1.0  0.47810  0.19385  0.50418  1.0000
  H   H170      1.0  0.22195  0.01623  0.48868  1.0000
  C   C205      1.0  0.22623  0.28051  0.66554  1.0000
  H   H171      1.0  0.42967  0.23790  0.66091  1.0000
  C   C206      1.0  0.49676  0.17179  0.53362  1.0000
  C   C207      1.0  0.25757  0.99986  0.48012  1.0000
  H   H172      1.0  0.26860  0.99515  0.40350  1.0000
  C   C208      1.0  0.25526  0.46179  0.34035  1.0000
  C   C209      1.0  0.20884  0.41181  0.34194  1.0000
  C   C210      1.0  0.46677  0.22248  0.65897  1.0000
  H   H173      1.0  0.48383  0.24789  0.54804  1.0000
  C   C211      1.0  0.49178  0.14126  0.46134  1.0000
  C   C212      1.0  0.48551  0.12758  0.56718  1.0000
  H   H174      1.0  0.38343  0.48751  0.66600  1.0000
  Fe  Fe17      1.0  0.31525  0.12051  0.94154  1.0000
  S   S35       1.0  0.23452  0.11070  0.95084  1.0000
  S   S36       1.0  0.36180  0.14251  0.97116  1.0000
  Fe  Fe18      1.0  0.32294  0.10112  0.87970  1.0000
  S   S37       1.0  0.24285  0.08990  0.88432  1.0000
  S   S38       1.0  0.37927  0.09217  0.84016  1.0000
  Fe  Fe19      1.0  0.22410  0.13935  0.91271  1.0000
  S   S39       1.0  0.15365  0.17766  0.90940  1.0000
  Fe  Fe20      1.0  0.26081  0.06215  0.92171  1.0000
  H   H175      1.0  0.33727  0.22757  0.93453  1.0000
  S   S40       1.0  0.30300  0.15278  0.90525  1.0000
  S   S41       1.0  0.34269  0.06985  0.91511  1.0000
  Fe  Fe21      1.0  0.09268  0.37652  0.90090  1.0000
  S   S42       1.0  0.09937  0.43439  0.89950  1.0000
  S   S43       1.0  0.16679  0.34172  0.90355  1.0000
  H   H176      1.0  0.38389  0.26879  0.73150  1.0000
  H   H177      1.0  0.22495  0.21983  0.72415  1.0000
  Fe  Fe22      1.0  0.04451  0.43610  0.86953  1.0000
  C   C213      1.0  0.05967  0.48302  0.78003  1.0000
  Fe  Fe23      1.0  0.03221  0.44223  0.93311  1.0000
  C   C214      1.0  0.46153  0.99445  0.81218  1.0000
  P   P7        1.0  0.26579  0.23895  0.66883  1.0000
  S   S44       1.0  0.02836  0.38445  0.93637  1.0000
  H   H178      1.0  0.37720  0.00138  0.85605  1.0000
  C   C215      1.0  0.06596  0.45850  0.80010  1.0000
  C   C216      1.0  0.08558  0.42303  0.79187  1.0000
  C   C217      1.0  0.09851  0.41222  0.76365  1.0000
  C   C218      1.0  0.09095  0.43665  0.74359  1.0000
  C   C219      1.0  0.27596  0.23352  0.75093  1.0000
  H   H179      1.0  0.24691  0.03442  0.72872  1.0000
  H   H180      1.0  0.09057  0.40394  0.80722  1.0000
  H   H181      1.0  0.11310  0.38469  0.75740  1.0000
  S   S45       1.0  0.23096  0.01042  0.92983  1.0000
  H   H182      1.0  0.38098  0.46261  0.92016  1.0000
  C   C220      1.0  0.44528  0.34512  0.95057  1.0000
  S   S46       1.0  0.02417  0.48320  0.96878  1.0000
  H   H183      1.0  0.40419  0.39178  0.91674  1.0000
  C   C221      1.0  0.32789  0.31118  0.96478  1.0000
  C   C222      1.0  0.21982  0.14151  0.67622  1.0000
  C   C223      1.0  0.15699  0.22351  0.91010  1.0000
  C   C224      1.0  0.20158  0.23670  0.91383  1.0000
  C   C225      1.0  0.20418  0.27311  0.91216  1.0000
  C   C226      1.0  0.16201  0.29655  0.90709  1.0000
  C   C227      1.0  0.11696  0.28358  0.90425  1.0000
  C   C228      1.0  0.11454  0.24714  0.90568  1.0000
  H   H184      1.0  0.23427  0.21879  0.91751  1.0000
  H   H185      1.0  0.23911  0.28291  0.91445  1.0000
  H   H186      1.0  0.08420  0.30149  0.90043  1.0000
  H   H187      1.0  0.07989  0.23711  0.90290  1.0000
  C   C229      1.0  0.30535  0.10573  0.80707  1.0000
  C   C230      1.0  0.28862  0.10730  0.78136  1.0000
  H   H188      1.0  0.27885  0.11397  0.82574  1.0000
  H   H189      1.0  0.24921  0.11681  0.78036  1.0000
  C   C231      1.0  0.19983  0.40424  0.99516  1.0000
  C   C232      1.0  0.33787  0.37486  0.86547  1.0000
  C   C233      1.0  0.25772  0.49145  0.68927  1.0000
  C   C234      1.0  0.32033  0.24766  0.75320  1.0000
  C   C235      1.0  0.42768  0.16532  0.89274  1.0000
  C   C236      1.0  0.37493  0.38714  0.87889  1.0000
  C   C237      1.0  0.46807  0.15859  0.83668  1.0000
  C   C238      1.0  0.38922  0.17955  0.77563  1.0000
  H   H190      1.0  0.32341  0.28057  0.82903  1.0000
  C   C239      1.0  0.22767  0.23275  0.84615  1.0000
  H   H191      1.0  0.46767  0.02181  0.81516  1.0000
  C   C240      1.0  0.44981  0.17222  0.73341  1.0000
  H   H192      1.0  0.47580  0.34922  0.83563  1.0000
  C   C241      1.0  0.33875  0.28329  0.94414  1.0000
  H   H193      1.0  0.04137  0.08188  0.86249  1.0000
  C   C242      1.0  0.31256  0.47314  0.85829  1.0000
  C   C243      1.0  0.40262  0.37936  0.99225  1.0000
  C   C244      1.0  0.06873  0.05775  0.85962  1.0000
  H   H194      1.0  0.23013  0.28825  0.84141  1.0000
  C   C245      1.0  0.25229  0.26201  0.84018  1.0000
  C   C246      1.0  0.44967  0.38487  0.99901  1.0000
  C   C247      1.0  0.30879  0.19443  0.83916  1.0000
  H   H195      1.0  0.47516  0.30878  0.87342  1.0000
  H   H196      1.0  0.41157  0.16743  0.91441  1.0000
  H   H197      1.0  0.27365  0.46868  0.86336  1.0000
  H   H198      1.0  0.33013  0.16811  0.83923  1.0000
  H   H199      1.0  0.22843  0.47451  0.69178  1.0000
  C   C248      1.0  0.31052  0.24234  0.97734  1.0000
  C   C249      1.0  0.07184  0.47213  0.75191  1.0000
  H   H200      1.0  0.37334  0.33029  0.67993  1.0000
  C   C250      1.0  0.16462  0.45877  0.94501  1.0000
  C   C251      1.0  0.20815  0.43885  0.92975  1.0000
  C   C252      1.0  0.24809  0.45582  0.91807  1.0000
  H   H201      1.0  0.37852  0.15227  0.73810  1.0000
  C   C253      1.0  0.44301  0.26895  0.85209  1.0000
  Fe  Fe24      1.0  0.05682  0.45377  0.68074  1.0000
  H   H202      1.0  0.22343  0.39115  0.69549  1.0000
  C   C254      1.0  0.16352  0.33036  0.68624  1.0000
  H   H203      1.0  0.37660  0.20970  0.88292  1.0000
  H   H204      1.0  0.13392  0.44554  0.95438  1.0000
  H   H205      1.0  0.21093  0.41018  0.92729  1.0000
  H   H206      1.0  0.28236  0.43979  0.90738  1.0000
  H   H207      1.0  0.33294  0.24969  0.77298  1.0000
  S   S47       1.0  0.43448  0.04928  0.68569  1.0000
  H   H208      1.0  0.38243  0.05817  0.96719  1.0000
  S   S48       1.0  0.10431  0.42217  0.70831  1.0000
  C   C255      1.0  0.42793  0.18590  0.84665  1.0000
  C   C256      1.0  0.34100  0.45877  0.83311  1.0000
  H   H209      1.0  0.35491  0.26493  0.68680  1.0000
  H   H210      1.0  0.44506  0.33248  0.79262  1.0000
  H   H211      1.0  0.25431  0.22453  0.76899  1.0000
  C   C257      1.0  0.25922  0.38270  0.68192  1.0000
  Fe  Fe25      1.0  0.35581  0.07833  0.68636  1.0000
  P   P8        1.0  0.33965  0.35550  0.95717  1.0000
  C   C258      1.0  0.30523  0.25749  0.83338  1.0000
  C   C259      1.0  0.24682  0.17004  0.67780  1.0000
  H   H212      1.0  0.30286  0.03298  0.96462  1.0000
  C   C260      1.0  0.40339  0.16675  0.74809  1.0000
  H   H213      1.0  0.44428  0.32949  0.93180  1.0000
  H   H214      1.0  0.09553  0.33148  0.96789  1.0000
  C   C261      1.0  0.46712  0.13796  0.88259  1.0000
  C   C262      1.0  0.32408  0.02690  0.98123  1.0000
  H   H215      1.0  0.18671  0.23631  0.85182  1.0000
  C   C263      1.0  0.32963  0.24908  0.95043  1.0000
  C   C264      1.0  0.27770  0.01560  0.73378  1.0000
  C   C265      1.0  0.42562  0.28248  0.80650  1.0000
  C   C266      1.0  0.06559  0.03107  0.83980  1.0000
  C   C267      1.0  0.48739  0.13466  0.85461  1.0000
  H   H216      1.0  0.44363  0.25159  0.86883  1.0000
  H   H217      1.0  0.25990  0.42909  0.74567  1.0000
  C   C268      1.0  0.34880  0.25857  0.72989  1.0000
  C   C269      1.0  0.40005  0.36052  0.96744  1.0000
  C   C270      1.0  0.46127  0.32432  0.83351  1.0000
  H   H218      1.0  0.03563  0.03452  0.82731  1.0000
  H   H219      1.0  0.23179  0.35248  0.97679  1.0000
  H   H220      1.0  0.13966  0.34442  0.70426  1.0000
  C   C271      1.0  0.25591  0.19905  0.84588  1.0000
  C   C272      1.0  0.37571  0.38142  0.90670  1.0000
  H   H221      1.0  0.23374  0.11633  0.68387  1.0000
  S   S49       1.0  0.04284  0.37726  0.86786  1.0000
  C   C273      1.0  0.10730  0.05338  0.87578  1.0000
  C   C274      1.0  0.14022  0.99555  0.85208  1.0000
  H   H222      1.0  0.26542  0.03429  0.77648  1.0000
  H   H223      1.0  0.35406  0.28779  0.92321  1.0000
  H   H224      1.0  0.30350  0.21575  0.98208  1.0000
  H   H225      1.0  0.43002  0.07447  0.78507  1.0000
  H   H226      1.0  0.48134  0.11898  0.89639  1.0000
  C   C275      1.0  0.33991  0.36275  0.92115  1.0000
  C   C276      1.0  0.44374  0.31487  0.80933  1.0000
  H   H227      1.0  0.31138  0.04064  0.83753  1.0000
  H   H228      1.0  0.22999  0.02121  0.83258  1.0000
  C   C277      1.0  0.40796  0.18912  0.87483  1.0000
  C   C278      1.0  0.49225  0.35050  0.95747  1.0000
  C   C279      1.0  0.28826  0.38800  0.97461  1.0000
  C   C280      1.0  0.23953  0.37891  0.98181  1.0000
  H   H229      1.0  0.17235  0.01948  0.88491  1.0000
  H   H230      1.0  0.10999  0.07407  0.89114  1.0000
  C   C281      1.0  0.28828  0.01562  0.76070  1.0000
  C   C282      1.0  0.33251  0.25587  0.70433  1.0000
  C   C283      1.0  0.42548  0.25907  0.82779  1.0000
  P   P9        1.0  0.40231  0.21707  0.82382  1.0000
  C   C284      1.0  0.31013  0.30391  0.99196  1.0000
  H   H231      1.0  0.26209  0.47574  0.99659  1.0000
  C   C285      1.0  0.42085  0.19902  0.78849  1.0000
  C   C286      1.0  0.36877  0.04101  0.98266  1.0000
  C   C287      1.0  0.33066  0.45007  0.74237  1.0000
  S   S50       1.0  0.04888  0.47357  0.83510  1.0000
  C   C288      1.0  0.29581  0.42327  0.97941  1.0000
  H   H232      1.0  0.23671  0.17662  0.85144  1.0000
  C   C289      1.0  0.32263  0.09648  0.75698  1.0000
  C   C290      1.0  0.41270  0.48525  0.84393  1.0000
  C   C291      1.0  0.25971  0.23061  0.72536  1.0000
  C   C292      1.0  0.14275  0.02239  0.87212  1.0000
  S   S51       1.0  0.30066  0.09903  0.72497  1.0000
  H   H233      1.0  0.19523  0.28857  0.70899  1.0000
  C   C293      1.0  0.35643  0.09393  0.80847  1.0000
  H   H234      1.0  0.06663  0.49130  0.73669  1.0000
  C   C294      1.0  0.30482  0.01434  0.84296  1.0000
  H   H235      1.0  0.33751  0.37902  0.84389  1.0000
  C   C295      1.0  0.37348  0.08423  0.75854  1.0000
  C   C296      1.0  0.39116  0.46473  0.82596  1.0000
  H   H236      1.0  0.33239  0.43120  0.97279  1.0000
  C   C297      1.0  0.39039  0.08330  0.78415  1.0000
  H   H237      1.0  0.41333  0.45367  0.80647  1.0000
  C   C298      1.0  0.33389  0.22354  0.83260  1.0000
  C   C299      1.0  0.25604  0.44858  0.99280  1.0000
  C   C300      1.0  0.30182  0.35164  0.90775  1.0000
  C   C301      1.0  0.25013  0.48142  0.76589  1.0000
  H   H238      1.0  0.27243  0.33864  0.91879  1.0000
  H   H239      1.0  0.40016  0.07625  0.74002  1.0000
  H   H240      1.0  0.27140  0.34857  0.86991  1.0000
  C   C302      1.0  0.08486  0.33271  0.99011  1.0000
  C   C303      1.0  0.19528  0.29875  0.68882  1.0000
  H   H241      1.0  0.16128  0.31655  0.99736  1.0000
  H   H242      1.0  0.32416  0.44319  0.81902  1.0000
  H   H243      1.0  0.34165  0.99562  0.92238  1.0000
  C   C304      1.0  0.30102  0.35746  0.87999  1.0000
  H   H244      1.0  0.46115  0.16152  0.71227  1.0000
  C   C305      1.0  0.48196  0.19094  0.74613  1.0000
  H   H245      1.0  0.29161  0.34975  0.71120  1.0000
  H   H246      1.0  0.40322  0.40104  0.86774  1.0000
  H   H247      1.0  0.35284  0.42670  0.73085  1.0000
  C   C306      1.0  0.29752  0.35936  0.69075  1.0000
  C   C307      1.0  0.28801  0.24161  0.70173  1.0000
  H   H248      1.0  0.42718  0.45778  0.95974  1.0000
  H   H249      1.0  0.35354  0.17415  0.78659  1.0000
  C   C308      1.0  0.27852  0.45134  0.75084  1.0000
  H   H250      1.0  0.41225  0.27556  0.78760  1.0000
  H   H251      1.0  0.28155  0.16637  0.68667  1.0000
  H   H252      1.0  0.39459  0.47824  0.74154  1.0000
  H   H253      1.0  0.31780  0.44905  0.67290  1.0000
  H   H254      1.0  0.48384  0.15508  0.81506  1.0000
  H   H255      1.0  0.00580  0.34679  0.98854  1.0000
  C   C309      1.0  0.46081  0.30145  0.85488  1.0000
  C   C310      1.0  0.10121  0.00005  0.83599  1.0000
  C   C311      1.0  0.30088  0.26971  0.99811  1.0000
  H   H256      1.0  0.49344  0.21830  0.78315  1.0000
  C   C312      1.0  0.35418  0.47925  0.74833  1.0000
  C   C313      1.0  0.39770  0.48016  0.95929  1.0000
  C   C314      1.0  0.30786  0.47716  0.67857  1.0000
  C   C315      1.0  0.25847  0.00324  0.84044  1.0000
  C   C316      1.0  0.37160  0.48307  0.93682  1.0000
  H   H257      1.0  0.05305  0.41789  0.99635  1.0000
  C   C317      1.0  0.46769  0.20422  0.77357  1.0000
  H   H258      1.0  0.45131  0.49051  0.83836  1.0000
  H   H259      1.0  0.43197  0.00315  0.77459  1.0000
  H   H260      1.0  0.20963  0.48203  0.77211  1.0000
  C   C318      1.0  0.24396  0.49301  0.92078  1.0000
  H   H261      1.0  0.17414  0.46776  0.86132  1.0000
  H   H262      1.0  0.23327  0.48324  0.82207  1.0000
  C   C319      1.0  0.34330  0.34825  0.67313  1.0000
  C   C320      1.0  0.49440  0.37066  0.98154  1.0000
  C   C321      1.0  0.33432  0.49334  0.87656  1.0000
  C   C322      1.0  0.04862  0.47484  0.99956  1.0000
  C   C323      1.0  0.22948  0.20269  0.66770  1.0000
  C   C324      1.0  0.16913  0.49428  0.85413  1.0000
  Fe  Fe26      1.0  0.29986  0.75980  0.13836  1.0000
  S   S52       1.0  0.37719  0.77155  0.12174  1.0000
  S   S53       1.0  0.23948  0.74552  0.11440  1.0000
  Fe  Fe27      1.0  0.32022  0.76196  0.19804  1.0000
  S   S54       1.0  0.39951  0.77326  0.18596  1.0000
  S   S55       1.0  0.28131  0.75150  0.24017  1.0000
  Fe  Fe28      1.0  0.36451  0.81136  0.15811  1.0000
  S   S56       1.0  0.39245  0.86428  0.15606  1.0000
  Fe  Fe29      1.0  0.40506  0.73244  0.15092  1.0000
  S   S57       1.0  0.47422  0.69148  0.13585  1.0000
  S   S58       1.0  0.28430  0.80281  0.17265  1.0000
  S   S59       1.0  0.32834  0.71799  0.16522  1.0000
  C   C325      1.0  0.26056  0.93275  0.16208  1.0000
  C   C326      1.0  0.33351  0.51281  0.17087  1.0000
  H   H263      1.0  0.29192  0.60148  0.17421  1.0000
  H   H264      1.0  0.31344  0.52563  0.24499  1.0000
  C   C327      1.0  0.32881  0.54891  0.17876  1.0000
  C   C328      1.0  0.20080  0.66572  0.31710  1.0000
  H   H265      1.0  0.31392  0.63414  0.03422  1.0000
  C   C329      1.0  0.32646  0.96680  0.17058  1.0000
  H   H266      1.0  0.08830  0.51488  0.15772  1.0000
  C   C330      1.0  0.45352  0.71826  0.03479  1.0000
  C   C331      1.0  0.15687  0.62882  0.18398  1.0000
  C   C332      1.0  0.18195  0.66987  0.29235  1.0000
  H   H267      1.0  0.13926  0.60511  0.18607  1.0000
  H   H268      1.0  0.22144  0.93165  0.15997  1.0000
  H   H269      1.0  0.15278  0.60087  0.09376  1.0000
  C   C333      1.0  0.07710  0.49929  0.03995  1.0000
  H   H270      1.0  0.47674  0.96670  0.25509  1.0000
  H   H271      1.0  0.05221  0.70046  0.32058  1.0000
  C   C334      1.0  0.38413  0.90758  0.23018  1.0000
  C   C335      1.0  0.25704  0.54411  0.32491  1.0000
  C   C336      1.0  0.19877  0.91073  0.22179  1.0000
  C   C337      1.0  0.43160  0.60818  0.17717  1.0000
  C   C338      1.0  0.43279  0.64237  0.16797  1.0000
  C   C339      1.0  0.47238  0.64886  0.14796  1.0000
  H   H272      1.0  0.11604  0.79651  0.19221  1.0000
  H   H273      1.0  0.41037  0.72451  0.26608  1.0000
  C   C340      1.0  0.24918  0.60710  0.10467  1.0000
  H   H274      1.0  0.40354  0.66383  0.17671  1.0000
  C   C341      1.0  0.35836  0.99439  0.09220  1.0000
  C   C342      1.0  0.46256  0.77156  0.06138  1.0000
  C   C343      1.0  0.29985  0.76673  0.27097  1.0000
  C   C344      1.0  0.27360  0.75845  0.29607  1.0000
  C   C345      1.0  0.28726  0.76950  0.32113  1.0000
  C   C346      1.0  0.32810  0.78837  0.32135  1.0000
  C   C347      1.0  0.35450  0.79672  0.29622  1.0000
  C   C348      1.0  0.34001  0.78633  0.27106  1.0000
  H   H275      1.0  0.24288  0.74306  0.29614  1.0000
  C   C349      1.0  0.41223  0.61369  0.09852  1.0000
  H   H276      1.0  0.38604  0.81140  0.29622  1.0000
  H   H277      1.0  0.36029  0.79304  0.25181  1.0000
  C   C350      1.0  0.23873  0.75146  0.07899  1.0000
  C   C351      1.0  0.27972  0.76090  0.06107  1.0000
  C   C352      1.0  0.02936  0.75711  0.31785  1.0000
  C   C353      1.0  0.16394  0.57330  0.13051  1.0000
  C   C354      1.0  0.19196  0.74832  0.04060  1.0000
  C   C355      1.0  0.19506  0.74530  0.06852  1.0000
  H   H278      1.0  0.31357  0.76598  0.06897  1.0000
  H   H279      1.0  0.15769  0.74358  0.03297  1.0000
  H   H280      1.0  0.16322  0.73814  0.08213  1.0000
  C   C356      1.0  0.36157  0.93546  0.16740  1.0000
  C   C357      1.0  0.34656  0.90272  0.16119  1.0000
  C   C358      1.0  0.29584  0.90136  0.15867  1.0000
  H   H281      1.0  0.40059  0.93666  0.16965  1.0000
  H   H282      1.0  0.28395  0.87629  0.15369  1.0000
  C   C359      1.0  0.47039  0.58025  0.16673  1.0000
  C   C360      1.0  0.27586  0.96556  0.16791  1.0000
  C   C361      1.0  0.31365  0.59424  0.06384  1.0000
  C   C362      1.0  0.26238  0.56201  0.15074  1.0000
  H   H283      1.0  0.19904  0.65716  0.10537  1.0000
  C   C363      1.0  0.36657  0.93342  0.25199  1.0000
  C   C364      1.0  0.49377  0.54746  0.25024  1.0000
  C   C365      1.0  0.29866  0.56231  0.32590  1.0000
  H   H284      1.0  0.18309  0.85819  0.21208  1.0000
  H   H285      1.0  0.24095  0.67404  0.06097  1.0000
  C   C366      1.0  0.13385  0.82920  0.31437  1.0000
  C   C367      1.0  0.25648  0.91362  0.05239  1.0000
  P   P10       1.0  0.21796  0.59386  0.13700  1.0000
  C   C368      1.0  0.29375  0.57352  0.16857  1.0000
  C   C369      1.0  0.33929  0.50840  0.25504  1.0000
  H   H286      1.0  0.35333  0.55782  0.19229  1.0000
  C   C370      1.0  0.11116  0.79076  0.21375  1.0000
  H   H287      1.0  0.21765  0.94015  0.31391  1.0000
  C   C371      1.0  0.05725  0.50403  0.01547  1.0000
  C   C372      1.0  0.14460  0.54929  0.14867  1.0000
  H   H288      1.0  0.30516  0.55946  0.09655  1.0000
  C   C373      1.0  0.27566  0.86581  0.01657  1.0000
  H   H289      1.0  0.22467  0.64140  0.32018  1.0000
  H   H290      1.0  0.07946  0.57270  0.08538  1.0000
  C   C374      1.0  0.40989  0.92608  0.09541  1.0000
  C   C375      1.0  0.29046  0.58452  0.08917  1.0000
  C   C376      1.0  0.02121  0.72232  0.32340  1.0000
  C   C377      1.0  0.37380  0.93165  0.07777  1.0000
  C   C378      1.0  0.42074  0.65710  0.06406  1.0000
  C   C379      1.0  0.37747  0.67861  0.07844  1.0000
  C   C380      1.0  0.35203  0.66782  0.10270  1.0000
  C   C381      1.0  0.36986  0.63572  0.11305  1.0000
  H   H291      1.0  0.22172  0.86594  0.05349  1.0000
  H   H292      1.0  0.01835  0.78359  0.26712  1.0000
  H   H293      1.0  0.46931  0.60634  0.06262  1.0000
  C   C382      1.0  0.46652  0.73311  0.23243  1.0000
  H   H294      1.0  0.19138  0.78329  0.21556  1.0000
  H   H295      1.0  0.08541  0.52199  0.05141  1.0000
  C   C383      1.0  0.14954  0.56487  0.26074  1.0000
  S   S60       1.0  0.46743  0.53757  0.17866  1.0000
  H   H296      1.0  0.40092  0.60374  0.19277  1.0000
  H   H297      1.0  0.45794  0.76177  0.23557  1.0000
  C   C384      1.0  0.26738  0.52561  0.14286  1.0000
  H   H298      1.0  0.24927  0.66473  0.14425  1.0000
  H   H299      1.0  0.44040  0.58214  0.23200  1.0000
  H   H300      1.0  0.34608  0.57707  0.05228  1.0000
  C   C385      1.0  0.42798  0.68900  0.31343  1.0000
  C   C386      1.0  0.09770  0.56620  0.10305  1.0000
  C   C387      1.0  0.48726  0.65918  0.22378  1.0000
  H   H301      1.0  0.31847  0.68458  0.11338  1.0000
  H   H302      1.0  0.35094  0.62794  0.13232  1.0000
  C   C388      1.0  0.20493  0.87389  0.22321  1.0000
  C   C389      1.0  0.46055  0.73506  0.05958  1.0000
  C   C390      1.0  0.22776  0.93107  0.23558  1.0000
  C   C391      1.0  0.18200  0.55463  0.27958  1.0000
  H   H303      1.0  0.04947  0.53050  0.00854  1.0000
  C   C392      1.0  0.06256  0.79073  0.22843  1.0000
  C   C393      1.0  0.09888  0.77587  0.26956  1.0000
  H   H304      1.0  0.12116  0.58834  0.26547  1.0000
  H   H305      1.0  0.35888  0.89133  0.22238  1.0000
  C   C394      1.0  0.21833  0.66226  0.16044  1.0000
  C   C395      1.0  0.27664  0.76380  0.03274  1.0000
  C   C396      1.0  0.05633  0.78339  0.25625  1.0000
  H   H306      1.0  0.10897  0.65565  0.22005  1.0000
  C   C397      1.0  0.19605  0.63109  0.16210  1.0000
  C   C398      1.0  0.16110  0.68863  0.20116  1.0000
  H   H307      1.0  0.33328  0.55519  0.31133  1.0000
  C   C399      1.0  0.13959  0.65745  0.20343  1.0000
  H   H308      1.0  0.38752  0.97460  0.27781  1.0000
  H   H309      1.0  0.14731  0.71097  0.21599  1.0000
  H   H310      1.0  0.13513  0.70345  0.26952  1.0000
  C   C400      1.0  0.23976  0.85732  0.23870  1.0000
  C   C401      1.0  0.29541  0.65842  0.22440  1.0000
  C   C402      1.0  0.27115  0.62936  0.23142  1.0000
  C   C403      1.0  0.29071  0.60544  0.24921  1.0000
  C   C404      1.0  0.33490  0.61036  0.25972  1.0000
  C   C405      1.0  0.35959  0.63948  0.25262  1.0000
  C   C406      1.0  0.33929  0.66359  0.23501  1.0000
  H   H311      1.0  0.23551  0.92413  0.07217  1.0000
  C   C407      1.0  0.29157  0.93248  0.03756  1.0000
  C   C408      1.0  0.39424  0.67045  0.30152  1.0000
  H   H312      1.0  0.42282  0.97412  0.32617  1.0000
  C   C409      1.0  0.42138  0.95476  0.11071  1.0000
  C   C410      1.0  0.29840  0.92243  0.30273  1.0000
  C   C411      1.0  0.45107  0.94999  0.24824  1.0000
  C   C412      1.0  0.13751  0.72846  0.30957  1.0000
  H   H313      1.0  0.15344  0.82498  0.29346  1.0000
  C   C413      1.0  0.04793  0.51004  0.26957  1.0000
  C   C414      1.0  0.10270  0.53358  0.14377  1.0000
  H   H314      1.0  0.27977  0.67765  0.21124  1.0000
  H   H315      1.0  0.23681  0.62573  0.22338  1.0000
  H   H316      1.0  0.27112  0.58348  0.25513  1.0000
  H   H317      1.0  0.34963  0.59178  0.27357  1.0000
  H   H318      1.0  0.35679  0.68674  0.22963  1.0000
  H   H319      1.0  0.16189  0.54244  0.16658  1.0000
  H   H320      1.0  0.31791  0.65714  0.30703  1.0000
  C   C415      1.0  0.39541  0.98885  0.10923  1.0000
  H   H321      1.0  0.47705  0.62089  0.30921  1.0000
  H   H322      1.0  0.18762  0.49629  0.21228  1.0000
  C   C416      1.0  0.04734  0.50253  0.29736  1.0000
  C   C417      1.0  0.21741  0.52332  0.27417  1.0000
  P   P11       1.0  0.25897  0.50906  0.29865  1.0000
  C   C418      1.0  0.21985  0.50271  0.24947  1.0000
  H   H323      1.0  0.21645  0.71552  0.17765  1.0000
  C   C419      1.0  0.25449  0.64891  0.06879  1.0000
  C   C420      1.0  0.29566  0.62641  0.05367  1.0000
  C   C421      1.0  0.32342  0.49590  0.28090  1.0000
  H   H324      1.0  0.18061  0.77019  0.26451  1.0000
  C   C422      1.0  0.43490  0.90300  0.21758  1.0000
  P   P12       1.0  0.30167  0.93975  0.26915  1.0000
  C   C423      1.0  0.13957  0.58205  0.10788  1.0000
  C   C424      1.0  0.26342  0.91458  0.25088  1.0000
  C   C425      1.0  0.23116  0.63932  0.09413  1.0000
  C   C426      1.0  0.40044  0.95448  0.26101  1.0000
  C   C427      1.0  0.20023  0.69109  0.17962  1.0000
  H   H325      1.0  0.46445  0.72007  0.07755  1.0000
  C   C428      1.0  0.25139  0.92581  0.32009  1.0000
  C   C429      1.0  0.15035  0.70105  0.28858  1.0000
  C   C430      1.0  0.15358  0.78337  0.22686  1.0000
  C   C431      1.0  0.18717  0.51300  0.23075  1.0000
  P   P13       1.0  0.41419  0.64749  0.26790  1.0000
  H   H326      1.0  0.17847  0.57106  0.29840  1.0000
  P   P14       1.0  0.30421  0.97440  0.05175  1.0000
  C   C432      1.0  0.22694  0.99049  0.09688  1.0000
  C   C433      1.0  0.14744  0.77583  0.25458  1.0000
  H   H327      1.0  0.36318  0.70375  0.07094  1.0000
  C   C434      1.0  0.26880  0.87753  0.25252  1.0000
  H   H328      1.0  0.45855  0.81978  0.04007  1.0000
  P   P15       1.0  0.09235  0.76690  0.30563  1.0000
  C   C435      1.0  0.41394  0.65967  0.00693  1.0000
  H   H329      1.0  0.22208  0.95946  0.23394  1.0000
  H   H330      1.0  0.12536  0.55115  0.22239  1.0000
  C   C436      1.0  0.43715  0.62403  0.07383  1.0000
  C   C437      1.0  0.45027  0.67467  0.24582  1.0000
  C   C438      1.0  0.36967  0.68260  0.00410  1.0000
  H   H331      1.0  0.29593  0.86415  0.26424  1.0000
  H   H332      1.0  0.17217  0.92367  0.20957  1.0000
  H   H333      1.0  0.19116  0.64875  0.27625  1.0000
  H   H334      1.0  0.04771  0.52897  0.11676  1.0000
  H   H335      1.0  0.44795  0.88335  0.20047  1.0000
  H   H336      1.0  0.24620  0.96835  0.10621  1.0000
  C   C439      1.0  0.28088  0.98711  0.27109  1.0000
  C   C440      1.0  0.46831  0.92424  0.22651  1.0000
  P   P16       1.0  0.45204  0.67109  0.03229  1.0000
  C   C441      1.0  0.43979  0.71185  0.24982  1.0000
  C   C442      1.0  0.07953  0.54177  0.12084  1.0000
  C   C443      1.0  0.23252  0.75741  0.02247  1.0000
  C   C444      1.0  0.34138  0.90303  0.31088  1.0000
  H   H337      1.0  0.36607  0.90911  0.06584  1.0000
  H   H338      1.0  0.44944  0.95037  0.12429  1.0000
  C   C445      1.0  0.34824  0.96599  0.07579  1.0000
  C   C446      1.0  0.24861  0.88046  0.04190  1.0000
  H   H339      1.0  0.42615  0.58886  0.10663  1.0000
  C   C447      1.0  0.45399  0.60582  0.27048  1.0000
  H   H340      1.0  0.24484  0.82874  0.23975  1.0000
  H   H341      1.0  0.46587  0.68975  0.30262  1.0000
  H   H342      1.0  0.35855  0.70724  0.01671  1.0000
  H   H343      1.0  0.29356  0.99051  0.22687  1.0000
  H   H344      1.0  0.40138  0.50821  0.22174  1.0000
  H   H345      1.0  0.30808  0.77120  0.01900  1.0000
  H   H346      1.0  0.42857  0.89946  0.09752  1.0000
  C   C448      1.0  0.46020  0.57873  0.24947  1.0000
  H   H347      1.0  0.37782  0.89906  0.29765  1.0000
  C   C449      1.0  0.15204  0.54403  0.23640  1.0000
  H   H348      1.0  0.34698  0.93078  0.00044  1.0000
  H   H349      1.0  0.24460  0.51611  0.12854  1.0000
  C   C450      1.0  0.45031  0.73820  0.01164  1.0000
  C   C451      1.0  0.34512  0.67042  0.31590  1.0000
  C   C452      1.0  0.13990  0.85947  0.32990  1.0000
  C   C453      1.0  0.30266  0.50114  0.15301  1.0000
  C   C454      1.0  0.45761  0.79145  0.03852  1.0000
  C   C455      1.0  0.10303  0.80512  0.32594  1.0000
  H   H350      1.0  0.46766  0.78447  0.08062  1.0000
  C   C456      1.0  0.45178  0.77472  0.01361  1.0000
  C   C457      1.0  0.48087  0.60062  0.29269  1.0000
  H   H351      1.0  0.03881  0.53721  0.26438  1.0000
  H   H352      1.0  0.03799  0.52388  0.31332  1.0000
  H   H353      1.0  0.33849  0.99177  0.17556  1.0000
  H   H354      1.0  0.26946  0.84013  0.00846  1.0000
  H   H355      1.0  0.02965  0.79656  0.21824  1.0000
  H   H356      1.0  0.16388  0.87781  0.32086  1.0000
  C   C458      1.0  0.31899  0.91732  0.01220  1.0000
  C   C459      1.0  0.38920  0.49850  0.24164  1.0000
  H   H357      1.0  0.49539  0.63072  0.21959  1.0000
  C   C460      1.0  0.31088  0.88421  0.00178  1.0000
  H   H358      1.0  0.49939  0.52722  0.23349  1.0000
  H   H359      1.0  0.27027  0.99441  0.31572  1.0000
  Fe  Fe30      1.0  0.20411  0.78604  0.64760  1.0000
  S   S61       1.0  0.27468  0.74651  0.63527  1.0000
  S   S62       1.0  0.16409  0.80800  0.61299  1.0000
  C   C461      1.0  0.39866  0.81377  0.43959  1.0000
  H   H360      1.0  0.42125  0.81079  0.39559  1.0000
  H   H361      1.0  0.05685  0.79282  0.36327  1.0000
  C   C462      1.0  0.34409  0.63986  0.61049  1.0000
  C   C463      1.0  0.34824  0.99357  0.46549  1.0000
  C   C464      1.0  0.25422  0.70783  0.52089  1.0000
  C   C465      1.0  0.46414  0.95844  0.35902  1.0000
  Fe  Fe31      1.0  0.19491  0.85188  0.42050  1.0000
  S   S63       1.0  0.27698  0.84577  0.42486  1.0000
  Fe  Fe32      1.0  0.19410  0.77063  0.41507  1.0000
  S   S64       1.0  0.27712  0.76075  0.41833  1.0000
  Fe  Fe33      1.0  0.25848  0.80274  0.45293  1.0000
  S   S65       1.0  0.29142  0.79087  0.49182  1.0000
  Fe  Fe34      1.0  0.28601  0.80411  0.38989  1.0000
  C   C466      1.0  0.20421  0.89753  0.63515  1.0000
  S   S66       1.0  0.17543  0.81130  0.45112  1.0000
  S   S67       1.0  0.20460  0.81190  0.38406  1.0000
  H   H362      1.0  0.43815  0.72271  0.34788  1.0000
  H   H363      1.0  0.33929  0.96688  0.35232  1.0000
  C   C467      1.0  0.47992  0.92315  0.47234  1.0000
  H   H364      1.0  0.15645  0.64332  0.41843  1.0000
  S   S68       1.0  0.06258  0.53519  0.39554  1.0000
  C   C468      1.0  0.20864  0.92669  0.65234  1.0000
  H   H365      1.0  0.22759  0.58391  0.65426  1.0000
  C   C469      1.0  0.04953  0.51358  0.52768  1.0000
  C   C470      1.0  0.06437  0.80973  0.50430  1.0000
  H   H366      1.0  0.04639  0.65199  0.61369  1.0000
  H   H367      1.0  0.02911  0.70941  0.48661  1.0000
  C   C471      1.0  0.34922  0.95844  0.45537  1.0000
  Fe  Fe35      1.0  0.01891  0.51945  0.43468  1.0000
  C   C472      1.0  0.47877  0.97660  0.44757  1.0000
  C   C473      1.0  0.07939  0.71183  0.39752  1.0000
  C   C474      1.0  0.43093  0.95596  0.57154  1.0000
  H   H368      1.0  0.07676  0.73999  0.39489  1.0000
  C   C475      1.0  0.07023  0.67569  0.57577  1.0000
  C   C476      1.0  0.04732  0.49672  0.50204  1.0000
  H   H369      1.0  0.05318  0.54148  0.52906  1.0000
  H   H370      1.0  0.28134  0.71148  0.53454  1.0000
  C   C477      1.0  0.29054  0.89120  0.35334  1.0000
  H   H371      1.0  0.12026  0.88936  0.36918  1.0000
  C   C478      1.0  0.18816  0.69282  0.33806  1.0000
  C   C479      1.0  0.04389  0.68213  0.48931  1.0000
  C   C480      1.0  0.39332  0.93454  0.57760  1.0000
  C   C481      1.0  0.27025  0.70343  0.49248  1.0000
  C   C482      1.0  0.19903  0.80316  0.57911  1.0000
  C   C483      1.0  0.17428  0.81081  0.55639  1.0000
  C   C484      1.0  0.20180  0.80710  0.52942  1.0000
  C   C485      1.0  0.25427  0.79573  0.52500  1.0000
  C   C486      1.0  0.27887  0.78861  0.54770  1.0000
  C   C487      1.0  0.25154  0.79249  0.57452  1.0000
  H   H372      1.0  0.13377  0.81967  0.55964  1.0000
  H   H373      1.0  0.18256  0.81338  0.51215  1.0000
  H   H374      1.0  0.31944  0.78020  0.54450  1.0000
  H   H375      1.0  0.27153  0.78798  0.59166  1.0000
  C   C488      1.0  0.39497  0.84364  0.65539  1.0000
  C   C489      1.0  0.44577  0.84879  0.64949  1.0000
  H   H376      1.0  0.08342  0.82919  0.49318  1.0000
  C   C490      1.0  0.38471  0.62679  0.65030  1.0000
  C   C491      1.0  0.39336  0.97598  0.53221  1.0000
  H   H377      1.0  0.37692  0.88949  0.48133  1.0000
  C   C492      1.0  0.36988  0.95092  0.38864  1.0000
  S   S69       1.0  0.44284  0.95511  0.64633  1.0000
  H   H378      1.0  0.37532  0.82504  0.48313  1.0000
  C   C493      1.0  0.46075  0.94821  0.38611  1.0000
  H   H379      1.0  0.39423  0.91823  0.59506  1.0000
  C   C494      1.0  0.45885  0.88295  0.64692  1.0000
  H   H380      1.0  0.28750  0.87860  0.37263  1.0000
  C   C495      1.0  0.35534  0.95477  0.53833  1.0000
  S   S70       1.0  0.04159  0.58451  0.66344  1.0000
  H   H381      1.0  0.24989  0.62057  0.38117  1.0000
  H   H382      1.0  0.09969  0.58359  0.49470  1.0000
  H   H383      1.0  0.30230  0.91795  0.44896  1.0000
  C   C496      1.0  0.12162  0.69383  0.40705  1.0000
  H   H384      1.0  0.30968  0.70389  0.48413  1.0000
  H   H385      1.0  0.49844  0.88604  0.64207  1.0000
  C   C497      1.0  0.09881  0.63797  0.50931  1.0000
  C   C498      1.0  0.24760  0.91043  0.34542  1.0000
  C   C499      1.0  0.07964  0.81140  0.35356  1.0000
  S   S71       1.0  0.14874  0.90713  0.42318  1.0000
  C   C500      1.0  0.32736  0.60679  0.61098  1.0000
  C   C501      1.0  0.23510  0.69971  0.47480  1.0000
  C   C502      1.0  0.23061  0.99064  0.41130  1.0000
  C   C503      1.0  0.36402  0.70697  0.35341  1.0000
  H   H386      1.0  0.24727  0.69676  0.45274  1.0000
  C   C504      1.0  0.40407  0.88661  0.43760  1.0000
  C   C505      1.0  0.35514  0.93389  0.56114  1.0000
  C   C506      1.0  0.36660  0.59400  0.65149  1.0000
  C   C507      1.0  0.08554  0.63867  0.40435  1.0000
  C   C508      1.0  0.38025  0.80524  0.58489  1.0000
  C   C509      1.0  0.41559  0.79517  0.56112  1.0000
  C   C510      1.0  0.41895  0.81770  0.53954  1.0000
  C   C511      1.0  0.38676  0.85017  0.54172  1.0000
  C   C512      1.0  0.35020  0.86016  0.56526  1.0000
  C   C513      1.0  0.34796  0.83771  0.58714  1.0000
  P   P17       1.0  0.31064  0.90303  0.56773  1.0000
  C   C514      1.0  0.27216  0.91222  0.60128  1.0000
  C   C515      1.0  0.08396  0.61114  0.49341  1.0000
  C   C516      1.0  0.41323  0.82786  0.41442  1.0000
  H   H387      1.0  0.46249  0.56700  0.63095  1.0000
  C   C517      1.0  0.33030  0.68842  0.34187  1.0000
  C   C518      1.0  0.13185  0.97943  0.43128  1.0000
  C   C519      1.0  0.33888  0.58377  0.63127  1.0000
  H   H388      1.0  0.15061  0.55474  0.65361  1.0000
  C   C520      1.0  0.23541  0.89057  0.60961  1.0000
  C   C521      1.0  0.26632  0.90600  0.54346  1.0000
  C   C522      1.0  0.27161  0.88084  0.52120  1.0000
  C   C523      1.0  0.23536  0.88266  0.50353  1.0000
  C   C524      1.0  0.19326  0.90929  0.50811  1.0000
  C   C525      1.0  0.18822  0.93497  0.52987  1.0000
  C   C526      1.0  0.22470  0.93344  0.54742  1.0000
  H   H389      1.0  0.37775  0.78783  0.60167  1.0000
  H   H390      1.0  0.44042  0.76997  0.55951  1.0000
  H   H391      1.0  0.39051  0.86770  0.52512  1.0000
  H   H392      1.0  0.32180  0.84492  0.60606  1.0000
  P   P18       1.0  0.40744  0.93352  0.43670  1.0000
  S   S72       1.0  0.05908  0.52005  0.47209  1.0000
  C   C527      1.0  0.06064  0.67467  0.60445  1.0000
  C   C528      1.0  0.33737  0.88764  0.33617  1.0000
  H   H393      1.0  0.29224  0.68903  0.35283  1.0000
  S   S73       1.0  0.38283  0.79899  0.65840  1.0000
  H   H394      1.0  0.23096  0.86815  0.59636  1.0000
  H   H395      1.0  0.30272  0.85920  0.51775  1.0000
  H   H396      1.0  0.23929  0.86280  0.48665  1.0000
  H   H397      1.0  0.16498  0.91027  0.49449  1.0000
  H   H398      1.0  0.32836  0.60364  0.34698  1.0000
  C   C529      1.0  0.25210  0.59916  0.36554  1.0000
  C   C530      1.0  0.21821  0.95558  0.41180  1.0000
  C   C531      1.0  0.24402  0.94908  0.64383  1.0000
  H   H399      1.0  0.12684  0.63095  0.52255  1.0000
  C   C532      1.0  0.01339  0.81844  0.51612  1.0000
  C   C533      1.0  0.07806  0.67364  0.50784  1.0000
  C   C534      1.0  0.38671  0.83600  0.46369  1.0000
  P   P19       1.0  0.10048  0.70816  0.52700  1.0000
  C   C535      1.0  0.16724  0.70576  0.51398  1.0000
  C   C536      1.0  0.06660  0.75102  0.52173  1.0000
  C   C537      1.0  0.09094  0.77609  0.50698  1.0000
  H   H400      1.0  0.22000  0.95337  0.56435  1.0000
  H   H401      1.0  0.30422  0.59946  0.59609  1.0000
  C   C538      1.0  0.04064  0.69310  0.39113  1.0000
  H   H402      1.0  0.30267  0.95973  0.61220  1.0000
  C   C539      1.0  0.18384  0.70074  0.48548  1.0000
  C   C540      1.0  0.20291  0.70910  0.53167  1.0000
  C   C541      1.0  0.08928  0.70488  0.56385  1.0000
  H   H403      1.0  0.06215  0.65389  0.56323  1.0000
  H   H404      1.0  0.11162  0.75620  0.57243  1.0000
  C   C542      1.0  0.41273  0.70738  0.33917  1.0000
  H   H405      1.0  0.46066  0.99280  0.54399  1.0000
  H   H406      1.0  0.31752  0.87027  0.66354  1.0000
  C   C543      1.0  0.38816  0.87238  0.46264  1.0000
  C   C544      1.0  0.16853  0.94989  0.42192  1.0000
  C   C545      1.0  0.04384  0.65636  0.39420  1.0000
  C   C546      1.0  0.35700  0.87367  0.65897  1.0000
  C   C547      1.0  0.08556  0.84184  0.36896  1.0000
  H   H407      1.0  0.13044  0.76997  0.49779  1.0000
  C   C548      1.0  0.37309  0.64974  0.63001  1.0000
  C   C549      1.0  0.27574  0.94193  0.61838  1.0000
  C   C550      1.0  0.41324  0.94541  0.40138  1.0000
  H   H408      1.0  0.06773  0.84656  0.39030  1.0000
  H   H409      1.0  0.15699  0.69832  0.47142  1.0000
  H   H410      1.0  0.19162  0.71317  0.55370  1.0000
  H   H411      1.0  0.33378  0.65812  0.59531  1.0000
  C   C551      1.0  0.12424  0.65731  0.41067  1.0000
  H   H412      1.0  0.20190  0.68940  0.35746  1.0000
  H   H413      1.0  0.39551  0.78579  0.44041  1.0000
  H   H414      1.0  0.00795  0.70715  0.38392  1.0000
  C   C552      1.0  0.43120  0.97645  0.54874  1.0000
  H   H415      1.0  0.14688  0.74452  0.35111  1.0000
  H   H416      1.0  0.09492  0.75390  0.62270  1.0000
  C   C553      1.0  0.45972  0.94476  0.45301  1.0000
  H   H417      1.0  0.06149  0.70242  0.64346  1.0000
  H   H418      1.0  0.22252  0.95473  0.47046  1.0000
  C   C554      1.0  0.25800  0.96501  0.47005  1.0000
  H   H419      1.0  0.38552  0.67556  0.62976  1.0000
  C   C555      1.0  0.47503  0.54637  0.64385  1.0000
  H   H420      1.0  0.32672  0.95452  0.52508  1.0000
  H   H421      1.0  0.24694  0.93310  0.40461  1.0000
  H   H422      1.0  0.44656  0.81001  0.52116  1.0000
  C   C556      1.0  0.19041  0.59967  0.65875  1.0000
  C   C557      1.0  0.04923  0.61976  0.47547  1.0000
  H   H423      1.0  0.34125  0.93127  0.65944  1.0000
  C   C558      1.0  0.37329  0.96135  0.36165  1.0000
  C   C559      1.0  0.42160  0.91306  0.65043  1.0000
  S   S74       1.0  0.17351  0.71475  0.41368  1.0000
  C   C560      1.0  0.08786  0.73207  0.60963  1.0000
  C   C561      1.0  0.30348  0.94434  0.45764  1.0000
  H   H424      1.0  0.35198  0.72196  0.37305  1.0000
  H   H425      1.0  0.21133  0.91313  0.35888  1.0000
  H   H426      1.0  0.17682  0.58798  0.37997  1.0000
  S   S75       1.0  0.34750  0.80056  0.35278  1.0000
  C   C562      1.0  0.11536  0.86599  0.35708  1.0000
  H   H427      1.0  0.42795  0.87433  0.39367  1.0000
  H   H428      1.0  0.17651  0.88021  0.64147  1.0000
  H   H429      1.0  0.08802  0.61058  0.40725  1.0000
  C   C563      1.0  0.41646  0.86409  0.41341  1.0000
  C   C564      1.0  0.09751  0.73318  0.58107  1.0000
  H   H430      1.0  0.37040  0.87227  0.34227  1.0000
  H   H431      1.0  0.33333  0.94749  0.39964  1.0000
  H   H432      1.0  0.18097  0.53931  0.34466  1.0000
  H   H433      1.0  0.49510  0.94278  0.39507  1.0000
  H   H434      1.0  0.45988  0.95661  0.58460  1.0000
  H   H435      1.0  0.24703  0.97197  0.65696  1.0000
  H   H436      1.0  0.26710  0.76243  0.34027  1.0000
  C   C565      1.0  0.14681  0.58306  0.65825  1.0000
  C   C566      1.0  0.15672  0.72414  0.33437  1.0000
  H   H437      1.0  0.32511  0.55845  0.63144  1.0000
  H   H438      1.0  0.46652  0.89847  0.47712  1.0000
  C   C567      1.0  0.01535  0.75997  0.53358  1.0000
  C   C568      1.0  0.21087  0.58083  0.36488  1.0000
  C   C569      1.0  0.37037  0.90832  0.65658  1.0000
  H   H439      1.0  0.47548  0.82607  0.64661  1.0000
  H   H440      1.0  0.09333  0.97562  0.43892  1.0000
  Fe  Fe36      1.0  0.03026  0.52630  0.65958  1.0000
  H   H441      1.0  0.03817  0.59896  0.46294  1.0000
  H   H442      1.0  0.00362  0.66186  0.45874  1.0000
  C   C570      1.0  0.21340  0.55325  0.34481  1.0000
  H   H443      1.0  0.46337  0.99418  0.43317  1.0000
  H   H444      1.0  0.15589  0.95593  0.53321  1.0000
  C   C571      1.0  0.06928  0.70293  0.62131  1.0000
  C   C572      1.0  0.29610  0.58976  0.34615  1.0000
  H   H445      1.0  0.05035  0.50779  0.57107  1.0000
  C   C573      1.0  0.02945  0.65523  0.47329  1.0000
  C   C574      1.0  0.42037  0.96530  0.34690  1.0000
  H   H446      1.0  0.39351  0.99218  0.51468  1.0000
  Fe  Fe37      1.0  0.02221  0.49738  0.37381  1.0000
  C   C575      1.0  0.09837  0.60330  0.66365  1.0000
  H   H447      1.0  0.19523  0.50759  0.60839  1.0000
  C   C576      1.0  0.04819  0.49448  0.55150  1.0000
  H   H448      1.0  0.40697  0.63498  0.66536  1.0000
  C   C577      1.0  0.18618  0.63653  0.66484  1.0000
  Fe  Fe38      1.0  0.30637  0.77921  0.66592  1.0000
  Fe  Fe39      1.0  0.35391  0.81501  0.92409  1.0000
  S   S76       1.0  0.27598  0.80376  0.91864  1.0000
  S   S77       1.0  0.38410  0.86726  0.92529  1.0000
  Fe  Fe40      1.0  0.39468  0.73731  0.92794  1.0000
  S   S78       1.0  0.32040  0.71980  0.92337  1.0000
  S   S79       1.0  0.46448  0.70047  0.93401  1.0000
  Fe  Fe41      1.0  0.31704  0.75771  0.88963  1.0000
  S   S80       1.0  0.30573  0.73384  0.84791  1.0000
  Fe  Fe42      1.0  0.28675  0.76679  0.95267  1.0000
  S   S81       1.0  0.22478  0.76036  0.98750  1.0000
  S   S82       1.0  0.39427  0.77201  0.89261  1.0000
  S   S83       1.0  0.36130  0.78132  0.95984  1.0000
  Fe  Fe43      1.0  0.21382  0.78242  0.70949  1.0000
  S   S84       1.0  0.18927  0.80215  0.75460  1.0000
  C   C578      1.0  0.19566  0.89781  0.76182  1.0000
  H   H449      1.0  0.45481  0.98512  0.71997  1.0000
  C   C579      1.0  0.43650  0.65135  0.89905  1.0000
  C   C580      1.0  0.44197  0.61759  0.88546  1.0000
  C   C581      1.0  0.22768  0.92295  0.76514  1.0000
  C   C582      1.0  0.36751  0.63536  0.75861  1.0000
  C   C583      1.0  0.44323  0.92443  0.80514  1.0000
  H   H450      1.0  0.40657  0.67183  0.89557  1.0000
  C   C584      1.0  0.31262  0.58516  0.90440  1.0000
  C   C585      1.0  0.14327  0.93880  0.89864  1.0000
  C   C586      1.0  0.29873  0.62069  0.89921  1.0000
  C   C587      1.0  0.27250  0.75367  0.82263  1.0000
  C   C588      1.0  0.23912  0.78566  0.82800  1.0000
  C   C589      1.0  0.21361  0.80021  0.80711  1.0000
  C   C590      1.0  0.22103  0.78281  0.78070  1.0000
  C   C591      1.0  0.25391  0.75058  0.77557  1.0000
  C   C592      1.0  0.27948  0.73617  0.79636  1.0000
  H   H451      1.0  0.23241  0.79883  0.84833  1.0000
  H   H452      1.0  0.18786  0.82493  0.81148  1.0000
  H   H453      1.0  0.25897  0.73637  0.75572  1.0000
  H   H454      1.0  0.30477  0.71127  0.79205  1.0000
  C   C593      1.0  0.27415  0.97104  0.92951  1.0000
  C   C594      1.0  0.32661  0.97110  0.92539  1.0000
  C   C595      1.0  0.35995  0.93916  0.92484  1.0000
  C   C596      1.0  0.34107  0.90690  0.92775  1.0000
  C   C597      1.0  0.28866  0.90676  0.93197  1.0000
  C   C598      1.0  0.25538  0.93884  0.93319  1.0000
  H   H455      1.0  0.30591  0.66726  0.74366  1.0000
  H   H456      1.0  0.40049  0.93942  0.92171  1.0000
  H   H457      1.0  0.27371  0.88208  0.93465  1.0000
  H   H458      1.0  0.21493  0.93879  0.93709  1.0000
  H   H459      1.0  0.49056  0.83304  0.83496  1.0000
  C   C599      1.0  0.43077  0.94888  0.78586  1.0000
  C   C600      1.0  0.18409  0.61431  0.73579  1.0000
  C   C601      1.0  0.32111  0.53754  0.95848  1.0000
  C   C602      1.0  0.45024  0.83265  0.83600  1.0000
  H   H460      1.0  0.25019  0.96007  0.79306  1.0000
  H   H461      1.0  0.36220  0.71940  0.74335  1.0000
  H   H462      1.0  0.39272  0.74334  0.69885  1.0000
  P   P20       1.0  0.23639  0.54895  0.79248  1.0000
  C   C603      1.0  0.19464  0.53696  0.82164  1.0000
  C   C604      1.0  0.27453  0.57791  0.80729  1.0000
  C   C605      1.0  0.31782  0.56348  0.81808  1.0000
  C   C606      1.0  0.34728  0.58573  0.82966  1.0000
  C   C607      1.0  0.33285  0.62255  0.83133  1.0000
  C   C608      1.0  0.28835  0.63703  0.82203  1.0000
  C   C609      1.0  0.25908  0.61486  0.81024  1.0000
  P   P21       1.0  0.38107  0.56477  0.67809  1.0000
  C   C610      1.0  0.33937  0.67399  0.98487  1.0000
  H   H463      1.0  0.12664  0.51087  0.96017  1.0000
  H   H464      1.0  0.42978  0.59855  0.76813  1.0000
  C   C611      1.0  0.15395  0.56211  0.83470  1.0000
  C   C612      1.0  0.19782  0.57055  0.76932  1.0000
  C   C613      1.0  0.21480  0.59726  0.75324  1.0000
  H   H465      1.0  0.20967  0.55199  0.88718  1.0000
  C   C614      1.0  0.20022  0.51277  0.93637  1.0000
  C   C615      1.0  0.09429  0.64006  0.66964  1.0000
  H   H466      1.0  0.32995  0.63616  0.95308  1.0000
  C   C616      1.0  0.24865  0.96984  0.84887  1.0000
  H   H467      1.0  0.32882  0.53503  0.81769  1.0000
  H   H468      1.0  0.38094  0.57439  0.83771  1.0000
  H   H469      1.0  0.35522  0.63995  0.84057  1.0000
  H   H470      1.0  0.27624  0.66554  0.82436  1.0000
  H   H471      1.0  0.22415  0.62670  0.80381  1.0000
  C   C617      1.0  0.12074  0.57644  0.74873  1.0000
  C   C618      1.0  0.30788  0.99215  0.71326  1.0000
  H   H472      1.0  0.33888  0.87070  0.87469  1.0000
  H   H473      1.0  0.25166  0.60494  0.75414  1.0000
  H   H474      1.0  0.14734  0.58842  0.82727  1.0000
  H   H475      1.0  0.25540  0.92791  0.74795  1.0000
  H   H476      1.0  0.04464  0.51051  0.78625  1.0000
  C   C619      1.0  0.34539  0.49915  0.67510  1.0000
  H   H477      1.0  0.19698  0.54128  0.93989  1.0000
  C   C620      1.0  0.39622  0.61888  0.97148  1.0000
  H   H478      1.0  0.47461  0.91611  0.84260  1.0000
  C   C621      1.0  0.42618  0.62721  0.99104  1.0000
  C   C622      1.0  0.34230  0.99189  0.85302  1.0000
  H   H479      1.0  0.32409  0.63986  0.90177  1.0000
  C   C623      1.0  0.18286  0.86672  0.88962  1.0000
  C   C624      1.0  0.15262  0.87940  0.91462  1.0000
  H   H480      1.0  0.30564  0.69222  0.98262  1.0000
  H   H481      1.0  0.19831  0.83883  0.88635  1.0000
  H   H482      1.0  0.14517  0.86140  0.93067  1.0000
  C   C625      1.0  0.35013  0.84614  0.73385  1.0000
  C   C626      1.0  0.32039  0.83968  0.75827  1.0000
  C   C627      1.0  0.31806  0.86170  0.78199  1.0000
  C   C628      1.0  0.34660  0.88969  0.78153  1.0000
  C   C629      1.0  0.37787  0.89572  0.75722  1.0000
  C   C630      1.0  0.37812  0.87434  0.73316  1.0000
  P   P22       1.0  0.40774  0.93520  0.75509  1.0000
  C   C631      1.0  0.35930  0.96852  0.74659  1.0000
  C   C632      1.0  0.41662  0.85540  0.85565  1.0000
  H   H483      1.0  0.43652  0.89728  0.80274  1.0000
  H   H484      1.0  0.33594  0.99205  0.78814  1.0000
  H   H485      1.0  0.18549  0.61488  0.87814  1.0000
  C   C633      1.0  0.49290  0.89622  0.72213  1.0000
  H   H486      1.0  0.35038  0.82981  0.71522  1.0000
  H   H487      1.0  0.29796  0.81824  0.75849  1.0000
  H   H488      1.0  0.29276  0.85763  0.80044  1.0000
  H   H489      1.0  0.34278  0.90731  0.79984  1.0000
  H   H490      1.0  0.39871  0.87992  0.71359  1.0000
  H   H491      1.0  0.48300  0.87319  0.73249  1.0000
  C   C634      1.0  0.43192  0.80886  0.81869  1.0000
  S   S85       1.0  0.48739  0.54910  0.87241  1.0000
  C   C635      1.0  0.12076  0.55319  0.85709  1.0000
  H   H492      1.0  0.33855  0.55477  0.99780  1.0000
  C   C636      1.0  0.33862  0.62221  0.71559  1.0000
  C   C637      1.0  0.48138  0.59115  0.88945  1.0000
  C   C638      1.0  0.24516  0.52780  0.69645  1.0000
  C   C639      1.0  0.46438  0.78188  0.73921  1.0000
  H   H493      1.0  0.34918  0.57715  0.91073  1.0000
  H   H494      1.0  0.13536  0.87173  0.78131  1.0000
  C   C640      1.0  0.40790  0.75019  0.71721  1.0000
  C   C641      1.0  0.33414  0.95774  0.85972  1.0000
  C   C642      1.0  0.17358  0.92628  0.87339  1.0000
  H   H495      1.0  0.45908  0.60846  0.99346  1.0000
  C   C643      1.0  0.15686  0.90955  0.80963  1.0000
  S   S86       1.0  0.24185  0.65611  0.66710  1.0000
  H   H496      1.0  0.21730  0.87965  0.84993  1.0000
  C   C644      1.0  0.15100  0.55971  0.76651  1.0000
  H   H497      1.0  0.10171  0.51201  0.88361  1.0000
  H   H498      1.0  0.30616  0.82811  0.84531  1.0000
  P   P23       1.0  0.29747  0.51452  0.90812  1.0000
  S   S87       1.0  0.28480  0.74309  0.69932  1.0000
  H   H499      1.0  0.11318  0.61720  0.72018  1.0000
  C   C645      1.0  0.20229  0.50308  0.83168  1.0000
  C   C646      1.0  0.37956  0.80744  0.82218  1.0000
  H   H500      1.0  0.24210  0.65909  0.88610  1.0000
  C   C647      1.0  0.19341  0.88998  0.86907  1.0000
  C   C648      1.0  0.16057  0.49566  0.94824  1.0000
  C   C649      1.0  0.33334  0.53563  0.68293  1.0000
  H   H501      1.0  0.34438  0.53237  0.76642  1.0000
  C   C650      1.0  0.44815  0.76804  0.76448  1.0000
  C   C651      1.0  0.12830  0.51927  0.86677  1.0000
  H   H502      1.0  0.37176  0.95078  0.70353  1.0000
  C   C652      1.0  0.13698  0.60402  0.73368  1.0000
  H   H503      1.0  0.36413  0.78861  0.81007  1.0000
  H   H504      1.0  0.28084  0.92100  0.86452  1.0000
  C   C653      1.0  0.33364  0.51206  0.93608  1.0000
  H   H505      1.0  0.43092  0.87298  0.86950  1.0000
  C   C654      1.0  0.41115  0.74535  0.76579  1.0000
  C   C655      1.0  0.28728  0.94683  0.85794  1.0000
  H   H506      1.0  0.12912  0.90406  0.82659  1.0000
  C   C656      1.0  0.13262  0.91538  0.91906  1.0000
  C   C657      1.0  0.23439  0.57105  0.89103  1.0000
  C   C658      1.0  0.38443  0.49945  0.86910  1.0000
  H   H507      1.0  0.43831  0.50558  0.70218  1.0000
  C   C659      1.0  0.40863  0.58354  0.72918  1.0000
  H   H508      1.0  0.40154  0.51548  0.88271  1.0000
  H   H509      1.0  0.39805  0.73421  0.78498  1.0000
  C   C660      1.0  0.35291  0.64233  0.96836  1.0000
  C   C661      1.0  0.36463  0.85409  0.85868  1.0000
  H   H510      1.0  0.08851  0.57227  0.86660  1.0000
  H   H511      1.0  0.13768  0.53833  0.77798  1.0000
  H   H512      1.0  0.20605  0.53912  0.70406  1.0000
  P   P24       1.0  0.18772  0.95629  0.84679  1.0000
  H   H513      1.0  0.10989  0.92537  0.93863  1.0000
  C   C662      1.0  0.46277  0.92957  0.72861  1.0000
  H   H514      1.0  0.31293  0.62954  0.70116  1.0000
  C   C663      1.0  0.25253  0.63151  0.89024  1.0000
  C   C664      1.0  0.46173  0.51200  0.68381  1.0000
  C   C665      1.0  0.39101  0.73661  0.74224  1.0000
  C   C666      1.0  0.22069  0.60660  0.88578  1.0000
  C   C667      1.0  0.44056  0.98389  0.78941  1.0000
  C   C668      1.0  0.15999  0.89138  0.78399  1.0000
  C   C669      1.0  0.47404  0.96993  0.83124  1.0000
  C   C670      1.0  0.40426  0.60511  0.75343  1.0000
  H   H515      1.0  0.19868  0.88297  0.74218  1.0000
  S   S88       1.0  0.23714  0.81956  0.67709  1.0000
  C   C671      1.0  0.13777  0.65660  0.67023  1.0000
  C   C672      1.0  0.34621  0.82997  0.84214  1.0000
  H   H516      1.0  0.12846  0.96666  0.90300  1.0000
  C   C673      1.0  0.33459  0.64384  0.73973  1.0000
  H   H517      1.0  0.33212  0.87274  0.98222  1.0000
  C   C674      1.0  0.44434  0.77290  0.71574  1.0000
  H   H518      1.0  0.36473  0.65232  0.77719  1.0000
  H   H519      1.0  0.08463  0.56803  0.74654  1.0000
  C   C675      1.0  0.18982  0.93416  0.81333  1.0000
  C   C676      1.0  0.27955  0.56036  0.90136  1.0000
  H   H520      1.0  0.43810  0.56081  0.72559  1.0000
  H   H521      1.0  0.45680  0.78370  0.69629  1.0000
  C   C677      1.0  0.37581  0.59188  0.70995  1.0000
  H   H522      1.0  0.41576  0.61200  0.87184  1.0000
  C   C678      1.0  0.34861  0.96875  0.71962  1.0000
  H   H523      1.0  0.09827  0.97982  0.82045  1.0000
  H   H524      1.0  0.27187  0.57804  0.69810  1.0000
  H   H525      1.0  0.29076  0.55953  0.95877  1.0000
  C   C679      1.0  0.22478  0.94105  0.79080  1.0000
  C   C680      1.0  0.46493  0.93495  0.82772  1.0000
  H   H526      1.0  0.18439  0.93202  0.67214  1.0000
  S   S89       1.0  0.17011  0.75449  0.68161  1.0000
  C   C681      1.0  0.27384  0.51033  0.77294  1.0000
  H   H527      1.0  0.19689  0.63532  0.72364  1.0000
  C   C682      1.0  0.32884  0.99206  0.76714  1.0000
  C   C683      1.0  0.34769  0.53473  0.98079  1.0000
  H   H528      1.0  0.44852  0.79002  0.99576  1.0000
  H   H529      1.0  0.36329  0.94033  0.86753  1.0000
  C   C684      1.0  0.28275  0.54979  0.69329  1.0000
  C   C685      1.0  0.47052  0.65867  0.91662  1.0000
  C   C686      1.0  0.32570  0.50963  0.76298  1.0000
  H   H530      1.0  0.40723  0.50396  0.99826  1.0000
  C   C687      1.0  0.49163  0.73751  0.81165  1.0000
  C   C688      1.0  0.47717  0.95907  0.71516  1.0000
  P   P25       1.0  0.47601  0.77777  0.79467  1.0000
  C   C689      1.0  0.49431  0.73918  0.83991  1.0000
  H   H531      1.0  0.44667  0.72565  0.99203  1.0000
  C   C690      1.0  0.44395  0.53953  0.66803  1.0000
  H   H532      1.0  0.40711  0.59452  0.95843  1.0000
  H   H533      1.0  0.49109  0.84859  0.77843  1.0000
  H   H534      1.0  0.49017  0.97822  0.84894  1.0000
  H   H535      1.0  0.05701  0.65578  0.67431  1.0000
  C   C691      1.0  0.38614  0.50611  0.98114  1.0000
  H   H536      1.0  0.49276  0.79931  0.73722  1.0000
  H   H537      1.0  0.48769  0.76443  0.85177  1.0000
  Fe  Fe44      1.0  0.24229  0.71626  0.67026  1.0000
  H   H538      1.0  0.13366  0.68483  0.67521  1.0000
  H   H539      1.0  0.30007  0.99231  0.69235  1.0000
  S   S90       1.0  0.93167  0.38525  0.14594  1.0000
  S   S91       1.0  0.64515  0.41590  0.15684  1.0000
  C   C692      1.0  0.53534  0.44696  0.29680  1.0000
  C   C693      1.0  0.91741  0.47102  0.22436  1.0000
  C   C694      1.0  0.87501  0.45204  0.15665  1.0000
  S   S92       1.0  0.56835  0.38763  0.22378  1.0000
  C   C695      1.0  0.55689  0.40114  0.25929  1.0000
  C   C696      1.0  0.54612  0.38526  0.30715  1.0000
  C   C697      1.0  0.55660  0.37528  0.27876  1.0000
  H   H540      1.0  0.56454  0.34743  0.27188  1.0000
  C   C698      1.0  0.90597  0.37525  0.00313  1.0000
  H   H541      1.0  0.79444  0.43563  0.21406  1.0000
  C   C699      1.0  0.96972  0.33019  0.23123  1.0000
  C   C700      1.0  0.86213  0.44926  0.29241  1.0000
  C   C701      1.0  0.75802  0.38836  0.03340  1.0000
  C   C702      1.0  0.97264  0.41315  0.07094  1.0000
  C   C703      1.0  0.78324  0.46334  0.15824  1.0000
  C   C704      1.0  0.87511  0.41581  0.15087  1.0000
  C   C705      1.0  0.82916  0.40342  0.14885  1.0000
  C   C706      1.0  0.78342  0.42709  0.15251  1.0000
  H   H542      1.0  0.82886  0.37540  0.14459  1.0000
  H   H543      1.0  0.74849  0.41714  0.15098  1.0000
  H   H544      1.0  0.54589  0.36520  0.32197  1.0000
  H   H545      1.0  0.95889  0.34218  0.19000  1.0000
  H   H546      1.0  0.63611  0.38972  0.02850  1.0000
  H   H547      1.0  0.91012  0.46184  0.15836  1.0000
  C   C707      1.0  0.82925  0.47576  0.16003  1.0000
  H   H548      1.0  0.74515  0.35115  0.06448  1.0000
  C   C708      1.0  0.85294  0.47838  0.02645  1.0000
  C   C709      1.0  0.95869  0.44726  0.08382  1.0000
  H   H549      1.0  0.91075  0.37901  0.28942  1.0000
  C   C710      1.0  0.87020  0.44218  0.08409  1.0000
  C   C711      1.0  0.88414  0.40853  0.07034  1.0000
  C   C712      1.0  0.93563  0.39383  0.06350  1.0000
  C   C713      1.0  0.58346  0.42519  0.05822  1.0000
  H   H550      1.0  0.76692  0.36811  0.01656  1.0000
  C   C714      1.0  0.90748  0.46174  0.09048  1.0000
  C   C715      1.0  0.90218  0.39307  0.24799  1.0000
  H   H551      1.0  0.76743  0.43101  0.00706  1.0000
  H   H552      1.0  0.50608  0.18888  0.10294  1.0000
  C   C716      1.0  0.72730  0.41383  0.22898  1.0000
  C   C717      1.0  0.50883  0.34642  0.05195  1.0000
  C   C718      1.0  0.94430  0.31636  0.07066  1.0000
  C   C719      1.0  0.91061  0.45220  0.29874  1.0000
  H   H553      1.0  0.94433  0.44393  0.28361  1.0000
  C   C720      1.0  0.94879  0.35054  0.21169  1.0000
  S   S93       1.0  0.60281  0.40362  0.08666  1.0000
  C   C721      1.0  0.91282  0.32471  0.09615  1.0000
  H   H554      1.0  0.54537  0.35232  0.04233  1.0000
  C   C722      1.0  0.54411  0.45255  0.01224  1.0000
  H   H555      1.0  0.95344  0.46827  0.32949  1.0000
  H   H556      1.0  0.94903  0.45073  0.22612  1.0000
  H   H557      1.0  0.52968  0.22236  0.23251  1.0000
  H   H558      1.0  0.78123  0.46179  0.30723  1.0000
  C   C723      1.0  0.53458  0.42118  0.31625  1.0000
  C   C724      1.0  0.52706  0.24050  0.29753  1.0000
  C   C725      1.0  0.72232  0.39206  0.27460  1.0000
  H   H559      1.0  0.85476  0.39368  0.06559  1.0000
  C   C726      1.0  0.52616  0.24425  0.21936  1.0000
  H   H560      1.0  0.90056  0.29300  0.02705  1.0000
  P   P26       1.0  0.85620  0.43226  0.25847  1.0000
  Fe  Fe45      1.0  0.57869  0.42712  0.19099  1.0000
  H   H561      1.0  0.89242  0.35116  0.10158  1.0000
  S   S94       1.0  0.52291  0.43945  0.16175  1.0000
  C   C727      1.0  0.73429  0.40486  0.08208  1.0000
  H   H562      1.0  0.71118  0.41807  0.21027  1.0000
  H   H563      1.0  0.72423  0.39743  0.10295  1.0000
  H   H564      1.0  0.89660  0.48772  0.10124  1.0000
  C   C728      1.0  0.92185  0.37180  0.26762  1.0000
  H   H565      1.0  0.88571  0.30628  0.13552  1.0000
  P   P27       1.0  0.95325  0.34994  0.04635  1.0000
  H   H566      1.0  0.89879  0.39720  0.20469  1.0000
  C   C729      1.0  0.60509  0.41159  0.03142  1.0000
  H   H567      1.0  0.59648  0.23586  0.31486  1.0000
  H   H568      1.0  0.93384  0.46469  0.01329  1.0000
  Fe  Fe46      1.0  0.59065  0.43417  0.12822  1.0000
  C   C730      1.0  0.90312  0.48514  0.02264  1.0000
  C   C731      1.0  0.75800  0.42409  0.02811  1.0000
  H   H569      1.0  0.54820  0.45709  0.25367  1.0000
  C   C732      1.0  0.54355  0.45352  0.06189  1.0000
  C   C733      1.0  0.89443  0.31545  0.01464  1.0000
  H   H570      1.0  0.99624  0.30614  0.22463  1.0000
  H   H571      1.0  0.58980  0.26530  0.23225  1.0000
  H   H572      1.0  0.70215  0.37949  0.29129  1.0000
  C   C734      1.0  0.86808  0.46845  0.23727  1.0000
  H   H573      1.0  0.97166  0.32464  0.27438  1.0000
  C   C735      1.0  0.55774  0.29675  0.20218  1.0000
  C   C736      1.0  0.58599  0.42560  0.00842  1.0000
  C   C737      1.0  0.91503  0.38182  0.22003  1.0000
  C   C738      1.0  0.77433  0.42412  0.23134  1.0000
  H   H574      1.0  0.83052  0.45293  0.09023  1.0000
  C   C739      1.0  0.70118  0.39798  0.25065  1.0000
  C   C740      1.0  0.73408  0.44062  0.07692  1.0000
  H   H575      1.0  0.98768  0.46212  0.08913  1.0000
  C   C741      1.0  0.81910  0.46202  0.31196  1.0000
  C   C742      1.0  0.74576  0.45057  0.04983  1.0000
  C   C743      1.0  0.54723  0.43703  0.26845  1.0000
  C   C744      1.0  0.76946  0.40227  0.27700  1.0000
  H   H576      1.0  0.53856  0.21628  0.28440  1.0000
  C   C745      1.0  0.56057  0.26850  0.21925  1.0000
  H   H577      1.0  0.52106  0.11299  0.24577  1.0000
  H   H578      1.0  0.58488  0.31527  0.20189  1.0000
  C   C746      1.0  0.74602  0.37876  0.06037  1.0000
  H   H579      1.0  0.66479  0.38997  0.24874  1.0000
  C   C747      1.0  0.52006  0.30113  0.18545  1.0000
  H   H580      1.0  0.92202  0.39928  0.00640  1.0000
  C   C748      1.0  0.90872  0.29912  0.11552  1.0000
  C   C749      1.0  0.91429  0.34675  0.01983  1.0000
  C   C750      1.0  0.52342  0.46671  0.03899  1.0000
  C   C751      1.0  0.79512  0.41932  0.25569  1.0000
  Fe  Fe47      1.0  0.65165  0.47343  0.16295  1.0000
  H   H581      1.0  0.84555  0.45251  0.01982  1.0000
  C   C752      1.0  0.55966  0.25146  0.31465  1.0000
  H   H582      1.0  0.93290  0.24521  0.12464  1.0000
  C   C753      1.0  0.95603  0.34071  0.25921  1.0000
  H   H583      1.0  0.78579  0.39683  0.29546  1.0000
  C   C754      1.0  0.93547  0.26484  0.10943  1.0000
  H   H584      1.0  0.72442  0.46020  0.09419  1.0000
  S   S95       1.0  0.58894  0.48361  0.19931  1.0000
  H   H585      1.0  0.51823  0.32313  0.17224  1.0000
  C   C755      1.0  0.91600  0.46619  0.32464  1.0000
  H   H586      1.0  0.51015  0.15098  0.20718  1.0000
  H   H587      1.0  0.51702  0.29522  0.03018  1.0000
  C   C756      1.0  0.96612  0.25605  0.08387  1.0000
  C   C757      1.0  0.97050  0.28166  0.06452  1.0000
  H   H588      1.0  0.52662  0.46410  0.08246  1.0000
  S   S96       1.0  0.72643  0.49379  0.16347  1.0000
  H   H589      1.0  0.52640  0.47472  0.30382  1.0000
  H   H590      1.0  0.66832  0.46994  0.01673  1.0000
  S   S97       1.0  0.60092  0.49139  0.13225  1.0000
  H   H591      1.0  0.99491  0.27450  0.04493  1.0000
  H   H592      1.0  0.98717  0.22952  0.07923  1.0000
  C   C758      1.0  0.68421  0.48933  0.00396  1.0000
  C   C759      1.0  0.54458  0.28244  0.33182  1.0000
  H   H593      1.0  0.75551  0.35157  0.58008  1.0000
  H   H594      1.0  0.64101  0.48960  0.46548  1.0000
  H   H595      1.0  0.78979  0.35909  0.44893  1.0000
  C   C760      1.0  0.70423  0.31459  0.57535  1.0000
  H   H596      1.0  0.83066  0.39045  0.40333  1.0000
  H   H597      1.0  0.58090  0.19244  0.47394  1.0000
  H   H598      1.0  0.87742  0.48889  0.36422  1.0000
  C   C761      1.0  0.59001  0.15296  0.44050  1.0000
  H   H599      1.0  0.92436  0.30794  0.45992  1.0000
  H   H600      1.0  0.52976  0.01207  0.45757  1.0000
  H   H601      1.0  0.84851  0.35111  0.65449  1.0000
  C   C762      1.0  0.98759  0.38915  0.46765  1.0000
  H   H602      1.0  0.56987  0.29081  0.34517  1.0000
  C   C763      1.0  0.87313  0.47786  0.34424  1.0000
  C   C764      1.0  0.51910  0.16464  0.65600  1.0000
  Fe  Fe48      1.0  0.57661  0.39538  0.63357  1.0000
  S   S98       1.0  0.57884  0.43081  0.59777  1.0000
  S   S99       1.0  0.61757  0.33971  0.62874  1.0000
  Fe  Fe49      1.0  0.56493  0.32734  0.40440  1.0000
  Fe  Fe50      1.0  0.64099  0.38070  0.40848  1.0000
  S   S100      1.0  0.72605  0.38276  0.40486  1.0000
  S   S101      1.0  0.60286  0.34640  0.43879  1.0000
  S   S102      1.0  0.61013  0.35659  0.37304  1.0000
  Fe  Fe51      1.0  0.53754  0.39090  0.44596  1.0000
  C   C765      1.0  0.55751  0.41888  0.56693  1.0000
  C   C766      1.0  0.82871  0.37675  0.66315  1.0000
  C   C767      1.0  0.75234  0.28377  0.49293  1.0000
  C   C768      1.0  0.66011  0.47317  0.47934  1.0000
  H   H603      1.0  0.70094  0.27880  0.46425  1.0000
  H   H604      1.0  0.80372  0.28992  0.51838  1.0000
  C   C769      1.0  0.79563  0.47435  0.58623  1.0000
  C   C770      1.0  0.79039  0.30161  0.50069  1.0000
  C   C771      1.0  0.83408  0.44638  0.40997  1.0000
  H   H605      1.0  0.96857  0.41508  0.46485  1.0000
  C   C772      1.0  0.96711  0.36508  0.54883  1.0000
  C   C773      1.0  0.76976  0.47035  0.61243  1.0000
  C   C774      1.0  0.55749  0.21940  0.65551  1.0000
  C   C775      1.0  0.55254  0.16334  0.56811  1.0000
  H   H606      1.0  0.59935  0.16624  0.65342  1.0000
  C   C776      1.0  0.50463  0.25349  0.47845  1.0000
  C   C777      1.0  0.51878  0.40506  0.51795  1.0000
  C   C778      1.0  0.51322  0.16765  0.47421  1.0000
  H   H607      1.0  0.56124  0.19936  0.53617  1.0000
  S   S103      1.0  0.55576  0.26893  0.40104  1.0000
  H   H608      1.0  0.53174  0.19845  0.40264  1.0000
  C   C779      1.0  0.97773  0.36442  0.57581  1.0000
  H   H609      1.0  0.59675  0.45614  0.54392  1.0000
  H   H610      1.0  0.62796  0.15762  0.43232  1.0000
  C   C780      1.0  0.80892  0.41678  0.40687  1.0000
  H   H611      1.0  0.89756  0.40016  0.66298  1.0000
  H   H612      1.0  0.94760  0.37422  0.61886  1.0000
  C   C781      1.0  0.52557  0.13733  0.57931  1.0000
  H   H613      1.0  0.53859  0.33063  0.50116  1.0000
  H   H614      1.0  0.68764  0.45902  0.41244  1.0000
  Fe  Fe52      1.0  0.54567  0.40140  0.38394  1.0000
  H   H615      1.0  0.72939  0.32623  0.43721  1.0000
  C   C782      1.0  0.74641  0.31962  0.45526  1.0000
  C   C783      1.0  0.75591  0.42104  0.40802  1.0000
  H   H616      1.0  0.56404  0.44310  0.50058  1.0000
  H   H617      1.0  0.87805  0.43368  0.46517  1.0000
  H   H618      1.0  0.71743  0.29811  0.59100  1.0000
  H   H619      1.0  0.64559  0.28380  0.56854  1.0000
  H   H620      1.0  0.79160  0.48535  0.35318  1.0000
  H   H621      1.0  0.74012  0.26229  0.50469  1.0000
  C   C784      1.0  0.93901  0.37355  0.59806  1.0000
  H   H622      1.0  0.58867  0.11192  0.40917  1.0000
  C   C785      1.0  0.73337  0.44751  0.61561  1.0000
  C   C786      1.0  0.96630  0.36621  0.48637  1.0000
  H   H623      1.0  0.58419  0.17033  0.57736  1.0000
  C   C787      1.0  0.78626  0.45466  0.56338  1.0000
  C   C788      1.0  0.75236  0.42980  0.56673  1.0000
  C   C789      1.0  0.72425  0.42757  0.59287  1.0000
  P   P28       1.0  0.74407  0.40235  0.53730  1.0000
  C   C790      1.0  0.71049  0.43029  0.51490  1.0000
  C   C791      1.0  0.80521  0.38077  0.51832  1.0000
  C   C792      1.0  0.82243  0.39140  0.48563  1.0000
  C   C793      1.0  0.86915  0.36439  0.46367  1.0000
  C   C794      1.0  0.89723  0.32602  0.47437  1.0000
  C   C795      1.0  0.88219  0.31583  0.50745  1.0000
  C   C796      1.0  0.83585  0.34313  0.52940  1.0000
  C   C797      1.0  0.69862  0.41550  0.49050  1.0000
  C   C798      1.0  0.67311  0.43669  0.47304  1.0000
  H   H624      1.0  0.53039  0.29778  0.45806  1.0000
  S   S104      1.0  0.51480  0.43478  0.35147  1.0000
  C   C799      1.0  0.69642  0.46704  0.52132  1.0000
  C   C800      1.0  0.70949  0.36661  0.54870  1.0000
  C   C801      1.0  0.66721  0.35911  0.53707  1.0000
  C   C802      1.0  0.64453  0.32928  0.54407  1.0000
  C   C803      1.0  0.72611  0.34488  0.56888  1.0000
  S   S105      1.0  0.98464  0.47753  0.41324  1.0000
  C   C804      1.0  0.88315  0.44696  0.48413  1.0000
  S   S106      1.0  0.52584  0.11747  0.65525  1.0000
  Fe  Fe53      1.0  0.65483  0.35646  0.66435  1.0000
  H   H625      1.0  0.69519  0.41057  0.59593  1.0000
  H   H626      1.0  0.80132  0.41403  0.47775  1.0000
  H   H627      1.0  0.87894  0.37098  0.44254  1.0000
  C   C805      1.0  0.56219  0.18192  0.65486  1.0000
  H   H628      1.0  0.84102  0.39361  0.56421  1.0000
  H   H629      1.0  0.82500  0.33475  0.54976  1.0000
  H   H630      1.0  0.70827  0.38743  0.48508  1.0000
  H   H631      1.0  0.66374  0.42473  0.45447  1.0000
  H   H632      1.0  0.90008  0.29131  0.51440  1.0000
  P   P29       1.0  0.90114  0.37827  0.50745  1.0000
  C   C806      1.0  0.57174  0.43646  0.54320  1.0000
  H   H633      1.0  0.65054  0.37629  0.52303  1.0000
  H   H634      1.0  0.61172  0.32407  0.53516  1.0000
  H   H635      1.0  0.57747  0.48342  0.64534  1.0000
  C   C807      1.0  0.56792  0.12727  0.42743  1.0000
  C   C808      1.0  0.72830  0.45527  0.41197  1.0000
  C   C809      1.0  0.73027  0.29280  0.47035  1.0000
  C   C810      1.0  0.56301  0.17283  0.46398  1.0000
  C   C811      1.0  0.66358  0.30665  0.56283  1.0000
  C   C812      1.0  0.91048  0.44821  0.52855  1.0000
  H   H636      1.0  0.71221  0.44510  0.63577  1.0000
  H   H637      1.0  0.87488  0.44278  0.40886  1.0000
  C   C813      1.0  0.88968  0.38379  0.59335  1.0000
  C   C814      1.0  0.51102  0.29139  0.52739  1.0000
  H   H638      1.0  0.85957  0.39279  0.61039  1.0000
  H   H639      1.0  0.92480  0.43652  0.54586  1.0000
  C   C815      1.0  0.78364  0.33845  0.46294  1.0000
  C   C816      1.0  0.52057  0.28672  0.47768  1.0000
  H   H640      1.0  0.70375  0.47956  0.54012  1.0000
  C   C817      1.0  0.80998  0.33218  0.48710  1.0000
  H   H641      1.0  0.80582  0.45837  0.54314  1.0000
  C   C818      1.0  0.55328  0.42908  0.51863  1.0000
  C   C819      1.0  0.80627  0.48057  0.41438  1.0000
  C   C820      1.0  0.53888  0.18005  0.54501  1.0000
  C   C821      1.0  0.50949  0.23985  0.65742  1.0000
  C   C822      1.0  0.87901  0.38391  0.56655  1.0000
  S   S107      1.0  0.57811  0.42703  0.41825  1.0000
  C   C823      1.0  0.89507  0.42809  0.50714  1.0000
  C   C824      1.0  0.52438  0.39392  0.56601  1.0000
  H   H642      1.0  0.53620  0.12431  0.59717  1.0000
  C   C825      1.0  0.99561  0.33266  0.48813  1.0000
  C   C826      1.0  0.91662  0.37289  0.54336  1.0000
  C   C827      1.0  0.75333  0.48480  0.41544  1.0000
  S   S108      1.0  0.74129  0.34724  0.66092  1.0000
  Fe  Fe54      1.0  0.55457  0.32693  0.66053  1.0000
  H   H643      1.0  0.98188  0.31414  0.50238  1.0000
  H   H644      1.0  0.50214  0.10097  0.42811  1.0000
  C   C828      1.0  0.51902  0.12126  0.43798  1.0000
  C   C829      1.0  0.82473  0.47587  0.33792  1.0000
  C   C830      1.0  0.91024  0.48484  0.52786  1.0000
  H   H645      1.0  0.50238  0.23931  0.45921  1.0000
  C   C831      1.0  0.50427  0.38768  0.54178  1.0000
  C   C832      1.0  0.52477  0.30534  0.50205  1.0000
  H   H646      1.0  0.59088  0.23236  0.65439  1.0000
  C   C833      1.0  0.88244  0.48365  0.48377  1.0000
  H   H647      1.0  0.77753  0.48516  0.63026  1.0000
  C   C834      1.0  0.67172  0.48834  0.50349  1.0000
  H   H648      1.0  0.51277  0.38051  0.58427  1.0000
  H   H649      1.0  0.51344  0.30619  0.54633  1.0000
  H   H650      1.0  0.82307  0.49265  0.58367  1.0000
  S   S109      1.0  0.51084  0.38239  0.66298  1.0000
  H   H651      1.0  0.99958  0.36185  0.53302  1.0000
  H   H652      1.0  0.77998  0.31577  0.72332  1.0000
  S   S110      1.0  0.90423  0.36948  0.90832  1.0000
  Fe  Fe55      1.0  0.54946  0.46222  0.93983  1.0000
  H   H653      1.0  0.63477  0.48394  0.97393  1.0000
  H   H654      1.0  0.51734  0.11304  0.84669  1.0000
  Fe  Fe56      1.0  0.56978  0.42659  0.88150  1.0000
  C   C835      1.0  0.95529  0.42038  0.75322  1.0000
  S   S111      1.0  0.56297  0.38068  0.85246  1.0000
  H   H655      1.0  0.77324  0.46895  0.74730  1.0000
  C   C836      1.0  0.77522  0.39483  0.81951  1.0000
  H   H656      1.0  0.64514  0.39296  0.74059  1.0000
  S   S112      1.0  0.61499  0.42392  0.91672  1.0000
  Fe  Fe57      1.0  0.55492  0.39349  0.69681  1.0000
  C   C837      1.0  0.75848  0.46273  0.79115  1.0000
  H   H657      1.0  0.52706  0.33941  0.94400  1.0000
  C   C838      1.0  0.55211  0.39372  0.81957  1.0000
  C   C839      1.0  0.53422  0.42909  0.81568  1.0000
  H   H658      1.0  0.85332  0.28800  0.98827  1.0000
  C   C840      1.0  0.53162  0.41384  0.76735  1.0000
  C   C841      1.0  0.54959  0.37840  0.77119  1.0000
  C   C842      1.0  0.55963  0.36836  0.79724  1.0000
  H   H659      1.0  0.87430  0.39371  0.96769  1.0000
  H   H660      1.0  0.84320  0.41255  0.73188  1.0000
  H   H661      1.0  0.55520  0.35859  0.75421  1.0000
  H   H662      1.0  0.57334  0.34090  0.80007  1.0000
  C   C843      1.0  0.77057  0.45240  0.89645  1.0000
  C   C844      1.0  0.81948  0.45457  0.88290  1.0000
  C   C845      1.0  0.86053  0.42898  0.88625  1.0000
  C   C846      1.0  0.85290  0.40124  0.90331  1.0000
  C   C847      1.0  0.80377  0.39876  0.91650  1.0000
  C   C848      1.0  0.76264  0.42438  0.91314  1.0000
  H   H663      1.0  0.53073  0.37536  0.98665  1.0000
  H   H664      1.0  0.89793  0.43046  0.87529  1.0000
  H   H665      1.0  0.79747  0.37715  0.92941  1.0000
  H   H666      1.0  0.72503  0.42270  0.92375  1.0000
  H   H667      1.0  0.87630  0.42675  0.81443  1.0000
  C   C849      1.0  0.81413  0.37342  0.82978  1.0000
  H   H668      1.0  0.69380  0.41145  0.82450  1.0000
  C   C850      1.0  0.75659  0.48160  0.76739  1.0000
  C   C851      1.0  0.75977  0.34027  0.73402  1.0000
  H   H669      1.0  0.69177  0.33635  0.71700  1.0000
  H   H670      1.0  0.82196  0.35053  0.75421  1.0000
  C   C852      1.0  0.52381  0.43908  0.78974  1.0000
  S   S113      1.0  0.72077  0.48621  0.89329  1.0000
  C   C853      1.0  0.75785  0.39255  0.76434  1.0000
  H   H671      1.0  0.96659  0.42683  0.79540  1.0000
  H   H672      1.0  0.84115  0.33792  0.95816  1.0000
  H   H673      1.0  0.51810  0.19494  0.73464  1.0000
  C   C854      1.0  0.77536  0.38214  0.66903  1.0000
  P   P30       1.0  0.78749  0.41689  0.78799  1.0000
  S   S114      1.0  0.51312  0.46685  0.98469  1.0000
  H   H674      1.0  0.93220  0.41549  0.71337  1.0000
  C   C855      1.0  0.87904  0.37220  0.98121  1.0000
  H   H675      1.0  0.50999  0.46653  0.78699  1.0000
  S   S115      1.0  0.59570  0.33781  0.69599  1.0000
  C   C856      1.0  0.86025  0.34072  0.97583  1.0000
  H   H676      1.0  0.94875  0.48810  0.81673  1.0000
  H   H677      1.0  0.83349  0.33992  0.86193  1.0000
  C   C857      1.0  0.78359  0.36028  0.75117  1.0000
  S   S116      1.0  0.61620  0.41256  0.66771  1.0000
  C   C858      1.0  0.68378  0.38388  0.74360  1.0000
  H   H678      1.0  0.74451  0.34387  0.88522  1.0000
  H   H679      1.0  0.73984  0.46618  0.83558  1.0000
  S   S117      1.0  0.51653  0.42732  0.73529  1.0000
  H   H680      1.0  0.85292  0.36991  0.81944  1.0000
  C   C859      1.0  0.73764  0.47986  0.81693  1.0000
  C   C860      1.0  0.92035  0.41658  0.73545  1.0000
  H   H681      1.0  0.68625  0.42832  0.77121  1.0000
  C   C861      1.0  0.93944  0.42336  0.78168  1.0000
  C   C862      1.0  0.85663  0.40455  0.66779  1.0000
  H   H682      1.0  0.67477  0.37903  0.86589  1.0000
  S   S118      1.0  0.97746  0.44954  0.90308  1.0000
  S   S119      1.0  0.60219  0.47260  0.86315  1.0000
  C   C863      1.0  0.77832  0.44292  0.68558  1.0000
  H   H683      1.0  0.82570  0.47605  0.86977  1.0000
  H   H684      1.0  0.52785  0.44873  0.83279  1.0000
  S   S120      1.0  0.50143  0.45984  0.90620  1.0000
  C   C864      1.0  0.70986  0.35195  0.73039  1.0000
  H   H685      1.0  0.99444  0.42156  0.74485  1.0000
  Fe  Fe58      1.0  0.94858  0.47616  0.66944  1.0000
  C   C865      1.0  0.88848  0.42259  0.79239  1.0000
  S   S121      1.0  0.86443  0.47422  0.68435  1.0000
  C   C866      1.0  0.86979  0.41482  0.74609  1.0000
  C   C867      1.0  0.72482  0.39633  0.83261  1.0000
  C   C868      1.0  0.71380  0.37786  0.85610  1.0000
  C   C869      1.0  0.75296  0.35772  0.86675  1.0000
  C   C870      1.0  0.80307  0.35548  0.85359  1.0000
  C   C871      1.0  0.85372  0.41673  0.77466  1.0000
  C   C872      1.0  0.70753  0.40407  0.76067  1.0000
  H   H686      1.0  0.60227  0.41456  0.98788  1.0000
  Fe  Fe59      1.0  0.64164  0.47302  0.90000  1.0000
  C   C873      1.0  0.75049  0.41520  0.68092  1.0000
  Fe  Fe60      1.0  0.97872  0.39082  0.90345  1.0000
  H   H687      1.0  0.70976  0.41954  0.68652  1.0000
  H   H688      1.0  0.75845  0.46845  0.69446  1.0000
  C   C874      1.0  0.83145  0.43802  0.67857  1.0000
  C   C875      1.0  0.86749  0.31251  0.99268  1.0000
  C   C876      1.0  0.50981  0.49208  0.67578  1.0000
  H   H689      1.0  0.52333  0.47095  0.68808  1.0000
  H   H690      1.0  0.82228  0.48764  0.94834  1.0000
  H   H691      1.0  0.90546  0.49136  0.96358  1.0000
  H   H692      1.0  0.71417  0.55998  0.13521  1.0000
  H   H693      1.0  0.79458  0.55955  0.05533  1.0000
  C   C877      1.0  0.65021  0.57050  0.11377  1.0000
  C   C878      1.0  0.98799  0.78472  0.32271  1.0000
  C   C879      1.0  0.82845  0.49609  0.23561  1.0000
  Fe  Fe61      1.0  0.53723  0.49579  0.16799  1.0000
  C   C880      1.0  0.62027  0.62058  0.01168  1.0000
  H   H694      1.0  0.62027  0.62449  0.05547  1.0000
  C   C881      1.0  0.82451  0.53833  0.04656  1.0000
  C   C882      1.0  0.63019  0.56294  0.08996  1.0000
  C   C883      1.0  0.69929  0.55506  0.11635  1.0000
  C   C884      1.0  0.70932  0.52516  0.07080  1.0000
  C   C885      1.0  0.65955  0.54038  0.06853  1.0000
  C   C886      1.0  0.72861  0.53221  0.09511  1.0000
  H   H695      1.0  0.53043  0.65188  0.06673  1.0000
  C   C887      1.0  0.91397  0.51837  0.03079  1.0000
  H   H696      1.0  0.59155  0.57409  0.08833  1.0000
  C   C888      1.0  0.50294  0.71750  0.21043  1.0000
  C   C889      1.0  0.72343  0.50641  0.01157  1.0000
  H   H697      1.0  0.62733  0.58759  0.13056  1.0000
  H   H698      1.0  0.50740  0.92092  0.21641  1.0000
  C   C890      1.0  0.59793  0.62923  0.03909  1.0000
  H   H699      1.0  0.96452  0.50230  0.19944  1.0000
  H   H700      1.0  0.80672  0.54620  0.21894  1.0000
  H   H701      1.0  0.54028  0.56532  0.13880  1.0000
  H   H702      1.0  0.88327  0.57081  0.04884  1.0000
  C   C891      1.0  0.51414  0.56911  0.29349  1.0000
  H   H703      1.0  0.79037  0.49516  0.24607  1.0000
  H   H704      1.0  0.89395  0.55007  0.19566  1.0000
  C   C892      1.0  0.88672  0.52745  0.20736  1.0000
  H   H705      1.0  0.99349  0.81178  0.31887  1.0000
  H   H706      1.0  0.54064  0.66855  0.18865  1.0000
  C   C893      1.0  0.54689  0.64454  0.04540  1.0000
  C   C894      1.0  0.81322  0.50479  0.03881  1.0000
  H   H707      1.0  0.64287  0.53462  0.05049  1.0000
  C   C895      1.0  0.51755  0.65060  0.02429  1.0000
  H   H708      1.0  0.82944  0.50380  0.16423  1.0000
  H   H709      1.0  0.54810  0.51889  0.27227  1.0000
  H   H710      1.0  0.53532  0.56535  0.31047  1.0000
  C   C896      1.0  0.87472  0.54497  0.04271  1.0000
  C   C897      1.0  0.83769  0.52531  0.22051  1.0000
  H   H711      1.0  0.54206  0.62600  0.12214  1.0000
  H   H712      1.0  0.76603  0.51970  0.09793  1.0000
  H   H713      1.0  0.95282  0.52353  0.02769  1.0000
  C   C898      1.0  0.92649  0.50040  0.20937  1.0000
  H   H714      1.0  0.52231  0.73401  0.19632  1.0000
  C   C899      1.0  0.52105  0.54274  0.27210  1.0000
  C   C900      1.0  0.51130  0.62099  0.13754  1.0000
  C   C901      1.0  0.51038  0.58675  0.14696  1.0000
  H   H715      1.0  0.65970  0.60853  0.00683  1.0000
  C   C902      1.0  0.51333  0.68058  0.20615  1.0000
  P   P31       1.0  0.74807  0.49656  0.04296  1.0000
  C   C903      1.0  0.93933  0.77762  0.33283  1.0000
  H   H716      1.0  0.77168  0.54622  0.00060  1.0000
  H   H717      1.0  0.66137  0.51665  0.50845  1.0000
  H   H718      1.0  0.56490  0.97368  0.49168  1.0000
  C   C904      1.0  0.51783  0.93350  0.48613  1.0000
  S   S122      1.0  0.97543  0.50728  0.63364  1.0000
  S   S123      1.0  0.83573  0.51878  0.41865  1.0000
  H   H719      1.0  0.89664  0.53090  0.50481  1.0000
  S   S124      1.0  0.99593  0.63322  0.38460  1.0000
  H   H720      1.0  0.54665  0.53117  0.61697  1.0000
  C   C905      1.0  0.93163  0.74296  0.33829  1.0000
  S   S125      1.0  0.95212  0.56191  0.43464  1.0000
  S   S126      1.0  0.95638  0.53880  0.36958  1.0000
  H   H721      1.0  0.53277  0.91689  0.50122  1.0000
  H   H722      1.0  0.73157  0.51117  0.41870  1.0000
  H   H723      1.0  0.50057  0.96161  0.34751  1.0000
  Fe  Fe62      1.0  0.92070  0.52135  0.41008  1.0000
  C   C906      1.0  0.53601  0.96543  0.48076  1.0000
  H   H724      1.0  0.89410  0.73747  0.34651  1.0000
  H   H725      1.0  0.92309  0.49931  0.54429  1.0000
  H   H726      1.0  0.90763  0.79906  0.33673  1.0000
  Fe  Fe63      1.0  0.99376  0.57550  0.39447  1.0000
  H   H727      1.0  0.99302  0.84455  0.51404  1.0000
  C   C907      1.0  0.52297  0.52618  0.63579  1.0000
  H   H728      1.0  0.96679  0.68856  0.33845  1.0000
  C   C908      1.0  0.51656  0.98690  0.46143  1.0000
  C   C909      1.0  0.98884  0.79353  0.53072  1.0000
  H   H729      1.0  0.94938  0.80032  0.54000  1.0000
  H   H730      1.0  0.87336  0.49732  0.46593  1.0000
  H   H731      1.0  0.99606  0.74101  0.54521  1.0000
  C   C910      1.0  0.89571  0.50262  0.50563  1.0000
  C   C911      1.0  0.54040  0.49916  0.65178  1.0000
  C   C912      1.0  0.97252  0.71535  0.33354  1.0000
  C   C913      1.0  0.84434  0.54067  0.80233  1.0000
  C   C914      1.0  0.71321  0.51494  0.81884  1.0000
  H   H732      1.0  0.58549  0.75000  0.78771  1.0000
  H   H733      1.0  0.52014  0.65126  0.98028  1.0000
  H   H734      1.0  0.50157  0.70229  0.77482  1.0000
  H   H735      1.0  0.92801  0.67023  0.83311  1.0000
  H   H736      1.0  0.52995  0.97777  0.68387  1.0000
  C   C915      1.0  0.85948  0.55335  0.90873  1.0000
  H   H737      1.0  0.90585  0.68227  0.92143  1.0000
  P   P32       1.0  0.83978  0.58005  0.88170  1.0000
  C   C916      1.0  0.77172  0.59379  0.88941  1.0000
  C   C917      1.0  0.87117  0.61900  0.87985  1.0000
  C   C918      1.0  0.87713  0.63778  0.90407  1.0000
  H   H738      1.0  0.66122  0.56219  0.88337  1.0000
  S   S127      1.0  0.99702  0.50003  0.69676  1.0000
  Fe  Fe64      1.0  0.53680  0.50599  0.89003  1.0000
  C   C919      1.0  0.61967  0.82869  0.76814  1.0000
  C   C920      1.0  0.75090  0.62661  0.90363  1.0000
  C   C921      1.0  0.69818  0.63626  0.91012  1.0000
  C   C922      1.0  0.73885  0.57096  0.88191  1.0000
  C   C923      1.0  0.85720  0.55359  0.84939  1.0000
  C   C924      1.0  0.90024  0.52729  0.84523  1.0000
  C   C925      1.0  0.52015  0.95508  0.69488  1.0000
  H   H739      1.0  0.95999  0.53325  0.94289  1.0000
  H   H740      1.0  0.69594  0.52749  0.83879  1.0000
  C   C926      1.0  0.82953  0.56031  0.82764  1.0000
  H   H741      1.0  0.93297  0.57095  0.90693  1.0000
  H   H742      1.0  0.65333  0.84074  0.76186  1.0000
  C   C927      1.0  0.58101  0.77755  0.78280  1.0000
  C   C928      1.0  0.51590  0.59872  0.90659  1.0000
  C   C929      1.0  0.53571  0.89225  0.70170  1.0000
  H   H743      1.0  0.86299  0.62913  0.92405  1.0000
  H   H744      1.0  0.88556  0.61717  0.83521  1.0000
  C   C930      1.0  0.66587  0.61315  0.90269  1.0000
  H   H745      1.0  0.73660  0.56036  0.95828  1.0000
  H   H746      1.0  0.77493  0.64492  0.90976  1.0000
  H   H747      1.0  0.68229  0.66169  0.92092  1.0000
  H   H748      1.0  0.75409  0.54552  0.87107  1.0000
  H   H749      1.0  0.54728  0.57888  0.90905  1.0000
  H   H750      1.0  0.69136  0.56056  0.79662  1.0000
  C   C931      1.0  0.57155  0.84865  0.76965  1.0000
  H   H751      1.0  0.82296  0.54579  0.78560  1.0000
  H   H752      1.0  0.79684  0.58090  0.83010  1.0000
  H   H753      1.0  0.56788  0.87617  0.76452  1.0000
  C   C932      1.0  0.51054  0.63246  0.92008  1.0000
  C   C933      1.0  0.54917  0.92165  0.68797  1.0000
  H   H754      1.0  0.62508  0.62058  0.90769  1.0000
  C   C934      1.0  0.71055  0.53343  0.79509  1.0000
  C   C935      1.0  0.91965  0.67962  0.87713  1.0000
  C   C936      1.0  0.53256  0.79747  0.78445  1.0000
  C   C937      1.0  0.90131  0.66793  0.90268  1.0000
  H   H755      1.0  0.55800  0.86631  0.69614  1.0000
  H   H756      1.0  0.53763  0.63835  0.93305  1.0000
  S   S128      1.0  0.57929  0.51122  0.92532  1.0000
  C   C938      1.0  0.84541  0.50699  0.94015  1.0000
  C   C939      1.0  0.88716  0.51457  0.79839  1.0000
  H   H757      1.0  0.52025  0.64758  0.79882  1.0000
  H   H758      1.0  0.66174  0.77771  0.77344  1.0000
  C   C940      1.0  0.68622  0.58044  0.88872  1.0000
  C   C941      1.0  0.62438  0.79318  0.77468  1.0000
  C   C942      1.0  0.92302  0.53260  0.93692  1.0000
  H   H759      1.0  0.60955  0.62257  0.96923  1.0000
  C   C943      1.0  0.82907  0.52915  0.92034  1.0000
  C   C944      1.0  0.89215  0.50898  0.94866  1.0000
  H   H760      1.0  0.79321  0.52662  0.91371  1.0000
  C   C945      1.0  0.91378  0.66116  0.85294  1.0000
  C   C946      1.0  0.90728  0.55420  0.91668  1.0000
  C   C947      1.0  0.88962  0.63100  0.85424  1.0000
  C   C948      1.0  0.51411  0.67509  0.83855  1.0000
  C   C949      1.0  0.52818  0.83308  0.77771  1.0000
  H   H761      1.0  0.92286  0.52171  0.86139  1.0000
  H   H762      1.0  0.58160  0.91855  0.67169  1.0000
  C   C950      1.0  0.91512  0.50799  0.81982  1.0000
  H   H763      1.0  0.73095  0.53106  0.75088  1.0000
  H   H764      1.0  0.52196  0.65103  0.84911  1.0000
  C   C951      1.0  0.72206  0.54057  0.97111  1.0000
  H   H765      1.0  0.66953  0.52888  0.94444  1.0000
  H   H766      1.0  0.93839  0.70300  0.87605  1.0000
  C   C952      1.0  0.74191  0.53235  0.99509  1.0000
  C   C953      1.0  0.54112  0.64401  0.99680  1.0000
  C   C954      1.0  0.73261  0.51683  0.76937  1.0000
  C   C955      1.0  0.68393  0.52290  0.96335  1.0000
  C   C956      1.0  0.50513  0.70809  0.85331  1.0000
  C   C957      1.0  0.51290  0.67320  0.81025  1.0000
  H   H767      1.0  0.50600  0.70960  0.87528  1.0000
  C   C958      1.0  0.59201  0.62834  0.99052  1.0000
  C   C959      1.0  0.50199  0.70429  0.79677  1.0000
  C   C960      1.0  0.66478  0.49743  0.97983  1.0000
  H   H768      1.0  0.89889  0.49964  0.77865  1.0000
