data_image0
_chemical_formula_structural       FeHSH2CH2CH3CH2C3H2CSH3CH3FeSC2HCHC2HC4HCHCHSCH2FeSC3HFeS2CHFePFeSH2C2H3C2H3C3H2CHC4HCH2CHC2H4C2FePHC2HC3PHC2HC2HC4SH3SCH3CHC2H2FeSHC4H4C4HC5HC3H2C4H2C4HC3HC2HCHC2S2CFeS2FeS2FeSFeS3FeS2FeS2FeSFeS3C3H3C3H6C4HCH3C7H4C3H3CHCH2C3HC2H2C5HC7HC3HC3PH2C9H2CHC6PC9HCH3CHCH6CH5CHCHC2HPC2HC3H4C6HCH3C2HCHC3HC6H2CHCHC3PHCHCH2CH3C2HCHCHC2PH2C5H4CHC2H5C2H5CHCHC5HC4HCHCHCH6CH2CH2C2H2CHSCHCHCHC2HS2H2CH2CHCFeH2SH3C2PC5H3CH2C5HC3H2CH2CHSHC2H2CHC2HFeH2SH2CHCH2CH2C3HPH3C2H2CH2C2H2CSHC3SC2HCH2C2HC2HCH2CHC4PC2H3C4HC8HSCH4CH3C4HCHCH2C2HCH2CFeC2H2CH2C6PH4CHFeCHC3HC6H2CH2FeCSC4FeSHFeS4HFeCFeS2FeS2FeSFeS3FeS2FeSHFeHFeSHSC2HC2H3C4FeCH2C6H4CHC2HSHCH2CPH2SH2C4HC2H2C7H2C10H2C6PC4HC13H20C2HCH2C2H5C8H2C2HCSCHCHCH2SHC2H2C3HCSCHC4PHSC2HCHC2H2CH2CSPC2HCHC2PC2H5CHCHC3SH2C4HC3HCH2C3H4CFeHCH2C5H3C3HC2H3C4HCHC3H2C2HC2H2CHCH3PCH4CHCH2C2HCHCHC3HC2H4CHC2HCH3SHC6H3CH3SH2C2HCFeS2FeSHFeSFeS2HFeS2FeSHFeSFeS3H3CH3C2HC2HC2HC6H4C4HC3H2CH2CHSC2HC4H3C3HCHC2HC3HCPHC6PC6H11C4HCH2CHCHC10HC3HCH2C2HCH2CH3C5HC2H2C4PCHC6H4CH2C3PC5SC2H2C7H3C4H2CH5C6PC3HSC2H2CHCHC3HC3H2CHC2H2CHC2H3CH2CHC6H3CH3C4H2C2SC4H4C2HCHSHCH3CH2C2H5C3HCH3CSC2H4CHCH3C2HC2H2C2HC2SFeS2FeS2FeHFeCS2FeS2FeS2FeSFeS3H5CHC5HCHC6H4C2SC3SHCHC3FeHC4HC3H5CH6SC2H2C2H3C2HCHCHSC3H2C2HCH2CHCH2C4HSC7HCHC3HCHC2H2PCH3C2HCHC2HCHC2H3CH3C2H3CH2C2H2CHC2HC8HCHCH2FeC3H2C2FeHSC3HCH2CH2C2HCPH4CSH2C2P3CH2C2H3C2HC2SPHC5HCHC2HCHC3H2C2HCHCHCHC3H3CH3C4HCHC4H4CHCHC11HC3HCHC3H2CFeS2FeS2FeH2FeS2FeS2FeS2FeSFeS3FeSHFeS2FeSFeS2CFe2S2HC5SPHC3FeHC4H2C3HCH2C6H4C3H2CHCHCHC4H2C2H2CHC3HCPC2HCH2C4H4SH2CSH2C7H2C5H4C7PC8HC3H2C4H8PCH2CH2C2H3C3H2C3H2CSHC3H4CH2C4HC2SC2H3C8PH2C2HC2H3CH2C2H3C4HC5PCHC2HC6H2CH2CHCHC2HCH2CHC2H3CHCSC2HCH2CH2SCHC2H2CHCHCHCH2C2HSCHCH2CHCH3C2HC2SH7CHCH3C5HCH2CH3CH4C2PCHCHC4HC4SHFeSH2FeH2CHS2C3SHC2H2CFeH2C2H4CHCHCFeC2HC2SCHC3H3C4H2CHC3HCHC2HCHCSC2H2CH2CH2CHC4HC4H2CH2CH2CHC2HC2H2C2HCHC3HC2H2SHCPC2HC9PC4HSC5PCH8C2H2C3H2C5HC2PHCH3C3H3FeC3HCH5SHCH2C4HCSH3FeS2FeCSFeSFeHS2FeS2FeS2FeSFeS3C3HC4HCHCH3C6H4C2HC5H2CHPH3C5H3C2H6C2SCHPHC2HC3HC3H2CH2PC2HC2H2CHC3HCPC4H2C3HC5H2C3H5CHC2HC2HCH2C5HCHCHC3HCHC8HCHC2HCH2CH2CH2CH4CHC2HCHCH4CHFeSFeS2FeSFeS3FeS2FeSCFe2SHSHCH3C6H3CH2CHCSCH2CHC2H2SHCH2C7HC3HC7H2CH3CHC2HCHC3PHCH5CH2CH3C2H2PH2C5H2C7H4CHC8HSH6CH2C2H2CH2CHC2H3CHSH3FeSC2FeHSH2CSC3HCHCSHC2H10C4HCHCH2C2HCH2C2H2CH2CHCHCH2CHPCS2HC4H3C3FeC5HCS2C2HC2HC6H2C2HFeC3HC3FeC2H2C3HPH2CHC2H2C3HC3H2FeSC3HCH2CHSH2CHCFeH2C
_chemical_formula_sum              "Fe96 H1152 S192 C1440 P48"
_cell_length_a       61.1884
_cell_length_b       61.3308
_cell_length_c       40.1161
_cell_angle_alpha    90.2407
_cell_angle_beta     90.4039
_cell_angle_gamma    120.484

_space_group_name_H-M_alt    "P 1"
_space_group_IT_number       1

loop_
  _space_group_symop_operation_xyz
  'x, y, z'

loop_
  _atom_site_type_symbol
  _atom_site_label
  _atom_site_symmetry_multiplicity
  _atom_site_fract_x
  _atom_site_fract_y
  _atom_site_fract_z
  _atom_site_occupancy
  Fe  Fe1       1.0  0.30127  0.47117  0.43410  1.0000
  H   H1        1.0  0.18530  0.40741  0.03002  1.0000
  S   S1        1.0  0.26039  0.45180  0.45526  1.0000
  H   H2        1.0  0.00214  0.46806  0.43812  1.0000
  H   H3        1.0  0.27533  0.41164  0.47268  1.0000
  C   C1        1.0  0.21610  0.44466  0.48437  1.0000
  H   H4        1.0  0.10004  0.48505  0.42379  1.0000
  H   H5        1.0  0.22351  0.48201  0.37722  1.0000
  C   C2        1.0  0.24081  0.46261  0.47406  1.0000
  H   H6        1.0  0.13802  0.44868  0.46599  1.0000
  H   H7        1.0  0.99448  0.41633  0.99586  1.0000
  H   H8        1.0  0.30255  0.43930  0.24263  1.0000
  C   C3        1.0  0.17286  0.36884  0.01667  1.0000
  H   H9        1.0  0.18335  0.36640  0.03678  1.0000
  H   H10       1.0  0.22512  0.45486  0.04927  1.0000
  C   C4        1.0  0.22305  0.46346  0.02690  1.0000
  C   C5        1.0  0.00659  0.46375  0.07776  1.0000
  C   C6        1.0  0.15854  0.34901  0.99431  1.0000
  H   H11       1.0  0.29365  0.39401  0.32261  1.0000
  H   H12       1.0  0.30803  0.40460  0.44682  1.0000
  C   C7        1.0  0.11636  0.46419  0.44483  1.0000
  S   S2        1.0  0.29763  0.44500  0.08286  1.0000
  H   H13       1.0  0.12405  0.44740  0.03302  1.0000
  H   H14       1.0  0.08396  0.44765  0.04139  1.0000
  H   H15       1.0  0.15785  0.33112  0.99717  1.0000
  C   C8        1.0  0.13876  0.46485  0.45399  1.0000
  H   H16       1.0  0.11968  0.40082  0.99050  1.0000
  H   H17       1.0  0.08288  0.40354  0.00850  1.0000
  H   H18       1.0  0.18253  0.44713  0.03222  1.0000
  Fe  Fe2       1.0  0.30381  0.47878  0.05262  1.0000
  S   S3        1.0  0.27605  0.48545  0.01928  1.0000
  C   C9        1.0  0.17391  0.39196  0.01290  1.0000
  C   C10       1.0  0.19879  0.45906  0.01706  1.0000
  H   H19       1.0  0.30452  0.39875  0.26255  1.0000
  C   C11       1.0  0.24460  0.47907  0.00802  1.0000
  H   H20       1.0  0.01383  0.45139  0.08410  1.0000
  C   C12       1.0  0.98573  0.45513  0.05613  1.0000
  C   C13       1.0  0.98193  0.45531  0.44085  1.0000
  H   H21       1.0  0.09817  0.44743  0.44961  1.0000
  C   C14       1.0  0.31045  0.41139  0.47233  1.0000
  C   C15       1.0  0.12460  0.46476  0.04000  1.0000
  C   C16       1.0  0.31323  0.40551  0.31506  1.0000
  C   C17       1.0  0.10209  0.46494  0.04464  1.0000
  H   H22       1.0  0.20916  0.42477  0.48012  1.0000
  C   C18       1.0  0.11743  0.48541  0.43036  1.0000
  H   H23       1.0  0.31237  0.37815  0.10324  1.0000
  C   C19       1.0  0.29205  0.41532  0.48689  1.0000
  H   H24       1.0  0.08672  0.32842  0.92882  1.0000
  S   S4        1.0  0.12716  0.45102  0.59160  1.0000
  C   C20       1.0  0.17681  0.42613  0.57798  1.0000
  H   H25       1.0  0.13657  0.33876  0.82696  1.0000
  H   H26       1.0  0.15818  0.42388  0.57463  1.0000
  Fe  Fe3       1.0  0.09468  0.45377  0.56783  1.0000
  S   S5        1.0  0.05579  0.41849  0.55679  1.0000
  C   C21       1.0  0.99851  0.47720  0.68791  1.0000
  C   C22       1.0  0.09757  0.33098  0.90645  1.0000
  C   C23       1.0  0.05002  0.41400  0.65337  1.0000
  H   H27       1.0  0.19251  0.47235  0.86038  1.0000
  Fe  Fe4       1.0  0.11055  0.46350  0.87181  1.0000
  S   S6        1.0  0.10224  0.43767  0.91590  1.0000
  S   S7        1.0  0.10065  0.44476  0.81995  1.0000
  C   C24       1.0  0.06008  0.37456  0.93352  1.0000
  H   H28       1.0  0.98877  0.43747  0.58876  1.0000
  Fe  Fe5       1.0  0.13785  0.46955  0.94016  1.0000
  P   P1        1.0  0.24730  0.48196  0.60980  1.0000
  Fe  Fe6       1.0  0.08057  0.45525  0.93620  1.0000
  S   S8        1.0  0.04288  0.43587  0.96449  1.0000
  H   H29       1.0  0.16207  0.41351  0.98392  1.0000
  H   H30       1.0  0.23335  0.43811  0.65331  1.0000
  C   C25       1.0  0.01137  0.41516  0.94939  1.0000
  C   C26       1.0  0.00628  0.40482  0.91713  1.0000
  H   H31       1.0  0.03096  0.43014  0.82148  1.0000
  H   H32       1.0  0.02180  0.40956  0.90035  1.0000
  H   H33       1.0  0.16544  0.38885  0.55939  1.0000
  C   C27       1.0  0.20510  0.40958  0.57303  1.0000
  C   C28       1.0  0.24333  0.45524  0.66811  1.0000
  H   H34       1.0  0.05607  0.41172  0.62890  1.0000
  H   H35       1.0  0.07274  0.29273  0.88921  1.0000
  H   H36       1.0  0.02733  0.42135  0.74048  1.0000
  C   C29       1.0  0.02396  0.41153  0.56365  1.0000
  C   C30       1.0  0.01831  0.42945  0.57621  1.0000
  C   C31       1.0  0.00365  0.38720  0.55552  1.0000
  H   H37       1.0  0.03357  0.44823  0.58269  1.0000
  H   H38       1.0  0.00767  0.37312  0.54584  1.0000
  C   C32       1.0  0.25226  0.47909  0.65367  1.0000
  H   H39       1.0  0.24375  0.43457  0.58815  1.0000
  C   C33       1.0  0.22515  0.43244  0.58540  1.0000
  C   C34       1.0  0.11268  0.45923  0.78067  1.0000
  C   C35       1.0  0.10206  0.44510  0.75112  1.0000
  C   C36       1.0  0.11120  0.45584  0.71950  1.0000
  H   H40       1.0  0.09752  0.29779  0.83817  1.0000
  C   C37       1.0  0.24696  0.45327  0.70220  1.0000
  H   H41       1.0  0.08667  0.42572  0.75269  1.0000
  H   H42       1.0  0.10292  0.44471  0.69706  1.0000
  C   C38       1.0  0.19163  0.44621  0.89683  1.0000
  H   H43       1.0  0.03866  0.39508  0.83227  1.0000
  C   C39       1.0  0.08968  0.31068  0.88417  1.0000
  C   C40       1.0  0.02075  0.39114  0.82119  1.0000
  H   H44       1.0  0.21173  0.45740  0.90257  1.0000
  H   H45       1.0  0.99311  0.42077  0.66613  1.0000
  H   H46       1.0  0.04362  0.36806  0.91737  1.0000
  H   H47       1.0  0.23983  0.43482  0.71325  1.0000
  C   C41       1.0  0.13359  0.35694  0.87136  1.0000
  C   C42       1.0  0.11938  0.35439  0.89994  1.0000
  Fe  Fe7       1.0  0.13209  0.48345  0.62409  1.0000
  P   P2        1.0  0.12993  0.38029  0.92936  1.0000
  H   H48       1.0  0.99058  0.42191  0.79592  1.0000
  C   C43       1.0  0.15018  0.40945  0.90754  1.0000
  C   C44       1.0  0.17647  0.42357  0.91372  1.0000
  H   H49       1.0  0.20832  0.39437  0.56602  1.0000
  C   C45       1.0  0.18084  0.45463  0.87310  1.0000
  C   C46       1.0  0.15493  0.44021  0.86582  1.0000
  C   C47       1.0  0.13968  0.41768  0.88285  1.0000
  P   P3        1.0  0.03596  0.46498  0.70016  1.0000
  H   H50       1.0  0.04668  0.37974  0.67254  1.0000
  C   C48       1.0  0.02225  0.47462  0.76314  1.0000
  C   C49       1.0  0.99279  0.42326  0.57966  1.0000
  H   H51       1.0  0.18133  0.43793  0.50767  1.0000
  C   C50       1.0  0.10265  0.38187  0.94354  1.0000
  C   C51       1.0  0.08100  0.37300  0.92294  1.0000
  H   H52       1.0  0.07436  0.46967  0.74865  1.0000
  C   C52       1.0  0.29567  0.42497  0.51935  1.0000
  C   C53       1.0  0.10366  0.31352  0.85545  1.0000
  C   C54       1.0  0.02600  0.48016  0.79732  1.0000
  C   C55       1.0  0.99345  0.40619  0.80059  1.0000
  S   S9        1.0  0.08709  0.47945  0.89137  1.0000
  H   H53       1.0  0.08132  0.48047  0.80825  1.0000
  H   H54       1.0  0.15082  0.37459  0.86616  1.0000
  H   H55       1.0  0.01040  0.46553  0.93410  1.0000
  S   S10       1.0  0.16348  0.46160  0.97559  1.0000
  C   C56       1.0  0.01641  0.41102  0.81498  1.0000
  H   H56       1.0  0.03235  0.38475  0.72841  1.0000
  H   H57       1.0  0.14655  0.44663  0.84721  1.0000
  H   H58       1.0  0.11964  0.40685  0.87682  1.0000
  C   C57       1.0  0.99083  0.40853  0.97086  1.0000
  H   H59       1.0  0.04474  0.38721  0.97222  1.0000
  C   C58       1.0  0.04461  0.39592  0.67794  1.0000
  C   C59       1.0  0.12564  0.33660  0.84911  1.0000
  H   H60       1.0  0.25595  0.47118  0.54148  1.0000
  H   H61       1.0  0.08040  0.36539  0.89835  1.0000
  Fe  Fe8       1.0  0.15243  0.48012  0.55356  1.0000
  S   S11       1.0  0.11961  0.48072  0.52768  1.0000
  H   H62       1.0  0.19315  0.46416  0.59579  1.0000
  C   C60       1.0  0.99062  0.45825  0.93989  1.0000
  C   C61       1.0  0.10310  0.39289  0.97454  1.0000
  C   C62       1.0  0.08220  0.39455  0.98491  1.0000
  C   C63       1.0  0.19685  0.44908  0.59006  1.0000
  H   H63       1.0  0.00533  0.35087  0.81834  1.0000
  H   H64       1.0  0.18549  0.41746  0.93160  1.0000
  H   H65       1.0  0.28169  0.42871  0.53012  1.0000
  H   H66       1.0  0.05169  0.44871  0.64075  1.0000
  C   C64       1.0  0.14535  0.35234  0.96806  1.0000
  C   C65       1.0  0.14632  0.37559  0.96397  1.0000
  C   C66       1.0  0.98398  0.46386  0.97072  1.0000
  C   C67       1.0  0.00511  0.45838  0.68556  1.0000
  H   H67       1.0  0.00465  0.45222  0.50087  1.0000
  C   C68       1.0  0.18094  0.40644  0.56932  1.0000
  C   C69       1.0  0.04012  0.47175  0.74467  1.0000
  C   C70       1.0  0.04315  0.47505  0.51772  1.0000
  C   C71       1.0  0.03651  0.39873  0.70932  1.0000
  C   C72       1.0  0.03389  0.41967  0.71617  1.0000
  H   H68       1.0  0.26213  0.47348  0.74857  1.0000
  C   C73       1.0  0.04763  0.43505  0.66023  1.0000
  C   C74       1.0  0.03995  0.43826  0.69185  1.0000
  C   C75       1.0  0.06068  0.38534  0.96448  1.0000
  H   H69       1.0  0.13468  0.33673  0.95097  1.0000
  H   H70       1.0  0.30507  0.13493  0.83031  1.0000
  C   C76       1.0  0.00204  0.36632  0.81324  1.0000
  C   C77       1.0  0.22126  0.45251  0.59365  1.0000
  C   C78       1.0  0.25950  0.47505  0.72211  1.0000
  C   C79       1.0  0.27423  0.48253  0.55356  1.0000
  H   H71       1.0  0.00525  0.47235  0.75162  1.0000
  H   H72       1.0  0.01221  0.48243  0.81135  1.0000
  C   C80       1.0  0.06491  0.47909  0.79562  1.0000
  C   C81       1.0  0.06107  0.47329  0.76157  1.0000
  C   C82       1.0  0.98827  0.43532  0.66965  1.0000
  C   C83       1.0  0.01953  0.47120  0.50749  1.0000
  H   H73       1.0  0.04648  0.45927  0.51825  1.0000
  C   C84       1.0  0.13249  0.48430  0.77819  1.0000
  C   C85       1.0  0.20875  0.47770  0.50644  1.0000
  C   C86       1.0  0.20021  0.45209  0.50023  1.0000
  H   H74       1.0  0.98119  0.36268  0.66877  1.0000
  C   C87       1.0  0.98104  0.38768  0.90685  1.0000
  C   C88       1.0  0.21684  0.48569  0.96923  1.0000
  H   H75       1.0  0.29469  0.48368  0.50947  1.0000
  C   C89       1.0  0.13148  0.48075  0.71710  1.0000
  H   H76       1.0  0.99895  0.47612  0.98797  1.0000
  C   C90       1.0  0.04749  0.48272  0.81346  1.0000
  C   C91       1.0  0.16066  0.39531  0.98678  1.0000
  S   S12       1.0  0.11521  0.48532  0.96371  1.0000
  S   S13       1.0  0.09872  0.48446  0.60228  1.0000
  C   C92       1.0  0.19527  0.46972  0.98784  1.0000
  Fe  Fe9       1.0  0.15566  0.69606  0.43119  1.0000
  S   S14       1.0  0.15994  0.67458  0.38798  1.0000
  S   S15       1.0  0.19391  0.73150  0.44844  1.0000
  Fe  Fe10      1.0  0.09666  0.65832  0.43173  1.0000
  S   S16       1.0  0.09851  0.63529  0.38967  1.0000
  S   S17       1.0  0.05840  0.64195  0.45853  1.0000
  Fe  Fe11      1.0  0.13286  0.63926  0.41599  1.0000
  S   S18       1.0  0.13767  0.60480  0.41959  1.0000
  Fe  Fe12      1.0  0.12509  0.67243  0.36533  1.0000
  S   S19       1.0  0.11532  0.67930  0.31250  1.0000
  S   S20       1.0  0.13006  0.66048  0.45982  1.0000
  S   S21       1.0  0.12188  0.69577  0.40670  1.0000
  Fe  Fe13      1.0  0.12517  0.64195  0.05541  1.0000
  S   S22       1.0  0.11007  0.66355  0.02754  1.0000
  S   S23       1.0  0.11844  0.60220  0.04583  1.0000
  Fe  Fe14      1.0  0.14081  0.67759  0.11656  1.0000
  S   S24       1.0  0.12702  0.70165  0.09271  1.0000
  S   S25       1.0  0.16002  0.68247  0.16751  1.0000
  Fe  Fe15      1.0  0.09246  0.66470  0.07622  1.0000
  S   S26       1.0  0.05217  0.65555  0.08992  1.0000
  Fe  Fe16      1.0  0.14604  0.69909  0.04566  1.0000
  S   S27       1.0  0.16725  0.73398  0.01081  1.0000
  S   S28       1.0  0.10566  0.64136  0.10296  1.0000
  S   S29       1.0  0.16181  0.67692  0.07069  1.0000
  C   C93       1.0  0.02080  0.63400  0.07493  1.0000
  C   C94       1.0  0.00025  0.62625  0.09674  1.0000
  C   C95       1.0  0.01566  0.62530  0.04189  1.0000
  H   H77       1.0  0.00396  0.63305  0.12219  1.0000
  H   H78       1.0  0.03118  0.63140  0.02476  1.0000
  H   H79       1.0  0.07116  0.62367  0.32569  1.0000
  C   C96       1.0  0.00051  0.55607  0.02592  1.0000
  C   C97       1.0  0.13574  0.79374  0.43073  1.0000
  C   C98       1.0  0.98970  0.55222  0.43049  1.0000
  H   H80       1.0  0.20454  0.83988  0.01566  1.0000
  H   H81       1.0  0.04275  0.67081  0.26322  1.0000
  H   H82       1.0  0.99546  0.64861  0.38733  1.0000
  H   H83       1.0  0.24161  0.84243  0.44159  1.0000
  H   H84       1.0  0.04407  0.53598  0.03369  1.0000
  H   H85       1.0  0.05259  0.59833  0.09063  1.0000
  C   C99       1.0  0.02733  0.63219  0.44255  1.0000
  C   C100      1.0  0.00603  0.61273  0.45877  1.0000
  C   C101      1.0  0.02323  0.64463  0.41616  1.0000
  C   C102      1.0  0.01814  0.48824  0.09108  1.0000
  H   H86       1.0  0.26732  0.50757  0.39932  1.0000
  C   C103      1.0  0.13288  0.58843  0.45764  1.0000
  H   H87       1.0  0.00727  0.57978  0.10466  1.0000
  H   H88       1.0  0.19181  0.49453  0.38890  1.0000
  H   H89       1.0  0.16128  0.73235  0.31599  1.0000
  C   C104      1.0  0.17812  0.55997  0.08433  1.0000
  C   C105      1.0  0.12784  0.67940  0.27251  1.0000
  C   C106      1.0  0.14938  0.67730  0.26830  1.0000
  C   C107      1.0  0.15888  0.67817  0.23601  1.0000
  C   C108      1.0  0.14681  0.68079  0.20754  1.0000
  C   C109      1.0  0.12520  0.68275  0.21178  1.0000
  C   C110      1.0  0.11590  0.68219  0.24407  1.0000
  H   H90       1.0  0.15885  0.67524  0.28988  1.0000
  H   H91       1.0  0.17568  0.67677  0.23306  1.0000
  H   H92       1.0  0.11581  0.68500  0.19023  1.0000
  H   H93       1.0  0.09934  0.68397  0.24704  1.0000
  C   C111      1.0  0.19155  0.55381  0.39307  1.0000
  C   C112      1.0  0.17949  0.58340  0.37189  1.0000
  C   C113      1.0  0.20287  0.55626  0.46425  1.0000
  H   H94       1.0  0.24244  0.77760  0.44174  1.0000
  H   H95       1.0  0.20402  0.59275  0.03255  1.0000
  H   H96       1.0  0.23173  0.58945  0.43894  1.0000
  C   C114      1.0  0.08955  0.71121  0.47209  1.0000
  H   H97       1.0  0.12290  0.73505  0.32548  1.0000
  C   C115      1.0  0.12398  0.58863  0.01012  1.0000
  H   H98       1.0  0.17526  0.60535  0.15017  1.0000
  H   H99       1.0  0.25862  0.86537  0.18361  1.0000
  C   C116      1.0  0.18892  0.57983  0.13928  1.0000
  C   C117      1.0  0.99827  0.63823  0.40697  1.0000
  C   C118      1.0  0.12837  0.82249  0.39751  1.0000
  H   H100      1.0  0.03744  0.61868  0.36438  1.0000
  C   C119      1.0  0.20050  0.51520  0.08894  1.0000
  C   C120      1.0  0.10926  0.80961  0.45187  1.0000
  H   H101      1.0  0.06490  0.59020  0.03557  1.0000
  H   H102      1.0  0.20371  0.53690  0.35537  1.0000
  C   C121      1.0  0.18532  0.57964  0.33955  1.0000
  C   C122      1.0  0.22956  0.72510  0.09151  1.0000
  C   C123      1.0  0.01250  0.57546  0.08083  1.0000
  C   C124      1.0  0.00967  0.61882  0.29053  1.0000
  C   C125      1.0  0.04494  0.58164  0.04145  1.0000
  H   H103      1.0  0.18396  0.50801  0.10464  1.0000
  C   C126      1.0  0.22506  0.53988  0.04185  1.0000
  C   C127      1.0  0.11301  0.82327  0.42256  1.0000
  C   C128      1.0  0.26093  0.84207  0.14505  1.0000
  C   C129      1.0  0.13835  0.74344  0.34353  1.0000
  C   C130      1.0  0.19723  0.76004  0.99725  1.0000
  C   C131      1.0  0.13300  0.56557  0.45790  1.0000
  C   C132      1.0  0.99375  0.56048  0.05741  1.0000
  H   H104      1.0  0.11865  0.75461  0.37720  1.0000
  C   C133      1.0  0.14089  0.50721  0.42480  1.0000
  C   C134      1.0  0.25726  0.74154  0.42357  1.0000
  C   C135      1.0  0.99198  0.60989  0.21263  1.0000
  H   H105      1.0  0.09587  0.74086  0.43838  1.0000
  C   C136      1.0  0.17603  0.59266  0.13193  1.0000
  C   C137      1.0  0.01277  0.61764  0.32495  1.0000
  C   C138      1.0  0.16428  0.58930  0.10085  1.0000
  P   P4        1.0  0.15099  0.77545  0.43656  1.0000
  H   H106      1.0  0.98668  0.60282  0.00523  1.0000
  H   H107      1.0  0.20243  0.68840  0.44105  1.0000
  C   C139      1.0  0.26682  0.80794  0.16409  1.0000
  C   C140      1.0  0.14913  0.51017  0.05059  1.0000
  C   C141      1.0  0.27306  0.76267  0.40442  1.0000
  C   C142      1.0  0.23784  0.77585  0.46789  1.0000
  C   C143      1.0  0.26372  0.82121  0.13775  1.0000
  C   C144      1.0  0.21748  0.52747  0.41859  1.0000
  C   C145      1.0  0.26672  0.81519  0.19716  1.0000
  C   C146      1.0  0.19822  0.58085  0.01049  1.0000
  C   C147      1.0  0.22882  0.49889  0.39190  1.0000
  H   H108      1.0  0.20139  0.72339  0.12501  1.0000
  H   H109      1.0  0.27840  0.77884  0.05949  1.0000
  C   C148      1.0  0.16221  0.48664  0.44862  1.0000
  H   H110      1.0  0.12644  0.52747  0.06032  1.0000
  C   C149      1.0  0.03522  0.57408  0.16629  1.0000
  C   C150      1.0  0.06159  0.58660  0.16307  1.0000
  C   C151      1.0  0.07674  0.60996  0.17885  1.0000
  C   C152      1.0  0.06556  0.62090  0.19756  1.0000
  C   C153      1.0  0.03910  0.60863  0.20078  1.0000
  C   C154      1.0  0.02398  0.58501  0.18509  1.0000
  P   P5        1.0  0.02511  0.62381  0.22406  1.0000
  C   C155      1.0  0.02843  0.62097  0.26845  1.0000
  C   C156      1.0  0.04228  0.65690  0.21326  1.0000
  C   C157      1.0  0.04848  0.67574  0.23759  1.0000
  C   C158      1.0  0.06278  0.70132  0.22909  1.0000
  C   C159      1.0  0.07088  0.70823  0.19631  1.0000
  C   C160      1.0  0.06454  0.68957  0.17193  1.0000
  C   C161      1.0  0.05027  0.66403  0.18034  1.0000
  C   C162      1.0  0.05062  0.62275  0.28154  1.0000
  C   C163      1.0  0.05372  0.62178  0.31594  1.0000
  H   H111      1.0  0.06920  0.70061  0.46781  1.0000
  C   C164      1.0  0.10474  0.73399  0.45548  1.0000
  H   H112      1.0  0.08555  0.48786  0.05516  1.0000
  H   H113      1.0  0.02913  0.56428  0.42416  1.0000
  H   H114      1.0  0.19819  0.58262  0.16332  1.0000
  C   C165      1.0  0.13119  0.74718  0.46008  1.0000
  H   H115      1.0  0.25877  0.85282  0.12531  1.0000
  C   C166      1.0  0.24491  0.82067  0.07009  1.0000
  H   H116      1.0  0.10775  0.55204  0.03299  1.0000
  H   H117      1.0  0.02347  0.55601  0.15396  1.0000
  H   H118      1.0  0.07034  0.57838  0.14814  1.0000
  H   H119      1.0  0.09721  0.61989  0.17626  1.0000
  H   H120      1.0  0.07761  0.63920  0.20908  1.0000
  H   H121      1.0  0.00356  0.57511  0.18683  1.0000
  C   C167      1.0  0.99035  0.60923  0.03089  1.0000
  H   H122      1.0  0.99734  0.64035  0.18005  1.0000
  H   H123      1.0  0.08220  0.72802  0.18978  1.0000
  H   H124      1.0  0.07081  0.69478  0.14645  1.0000
  H   H125      1.0  0.04570  0.64983  0.16114  1.0000
  H   H126      1.0  0.06594  0.62553  0.26554  1.0000
  C   C168      1.0  0.14797  0.48724  0.04282  1.0000
  H   H127      1.0  0.17771  0.57353  0.42331  1.0000
  C   C169      1.0  0.01001  0.53045  0.45380  1.0000
  H   H128      1.0  0.25848  0.53779  0.03106  1.0000
  C   C170      1.0  0.18059  0.79665  0.45775  1.0000
  C   C171      1.0  0.12637  0.51017  0.05510  1.0000
  H   H129      1.0  0.25242  0.50924  0.07780  1.0000
  P   P6        1.0  0.19391  0.53619  0.42756  1.0000
  C   C172      1.0  0.19002  0.56358  0.11560  1.0000
  C   C173      1.0  0.18583  0.55434  0.01292  1.0000
  H   H130      1.0  0.25981  0.73258  0.05787  1.0000
  C   C174      1.0  0.26177  0.76707  0.07419  1.0000
  C   C175      1.0  0.21901  0.80352  0.06426  1.0000
  C   C176      1.0  0.30158  0.83294  0.04669  1.0000
  H   H131      1.0  0.28648  0.82819  0.02884  1.0000
  H   H132      1.0  0.21967  0.76965  0.12705  1.0000
  H   H133      1.0  0.21532  0.49458  0.11482  1.0000
  H   H134      1.0  0.99071  0.56759  0.41600  1.0000
  C   C177      1.0  0.20381  0.53149  0.06244  1.0000
  C   C178      1.0  0.21813  0.50746  0.09471  1.0000
  C   C179      1.0  0.24386  0.78504  0.99613  1.0000
  C   C180      1.0  0.25589  0.84512  0.05671  1.0000
  C   C181      1.0  0.15563  0.76440  0.39690  1.0000
  C   C182      1.0  0.25355  0.51334  0.40430  1.0000
  H   H135      1.0  0.03427  0.49489  0.10789  1.0000
  C   C183      1.0  0.23909  0.51577  0.07397  1.0000
  H   H136      1.0  0.15443  0.59939  0.09491  1.0000
  H   H137      1.0  0.22125  0.70473  0.09050  1.0000
  H   H138      1.0  0.27949  0.54577  0.43374  1.0000
  C   C184      1.0  0.22495  0.82988  0.45581  1.0000
  C   C185      1.0  0.17938  0.75121  0.36219  1.0000
  H   H139      1.0  0.20990  0.78444  0.07366  1.0000
  C   C186      1.0  0.03807  0.58601  0.07285  1.0000
  H   H140      1.0  0.17218  0.59600  0.37633  1.0000
  C   C187      1.0  0.24137  0.85200  0.03715  1.0000
  C   C188      1.0  0.03481  0.61914  0.33767  1.0000
  C   C189      1.0  0.01133  0.55032  0.43513  1.0000
  H   H141      1.0  0.18468  0.79693  0.04000  1.0000
  C   C190      1.0  0.26371  0.83584  0.20420  1.0000
  C   C191      1.0  0.21568  0.83473  0.03131  1.0000
  C   C192      1.0  0.10300  0.48765  0.05220  1.0000
  C   C193      1.0  0.25052  0.77780  0.09353  1.0000
  C   C194      1.0  0.21834  0.73563  0.11094  1.0000
  C   C195      1.0  0.29784  0.77968  0.41524  1.0000
  H   H142      1.0  0.00884  0.60306  0.47937  1.0000
  H   H143      1.0  0.13437  0.55748  0.43462  1.0000
  C   C196      1.0  0.19815  0.65139  0.44389  1.0000
  H   H144      1.0  0.26892  0.80473  0.21732  1.0000
  C   C197      1.0  0.98396  0.62219  0.19048  1.0000
  H   H145      1.0  0.11791  0.78480  0.47911  1.0000
  C   C198      1.0  0.22877  0.76186  0.11201  1.0000
  C   C199      1.0  0.30703  0.77557  0.44531  1.0000
  C   C200      1.0  0.20448  0.81059  0.04509  1.0000
  P   P7        1.0  0.17956  0.53927  0.05309  1.0000
  H   H146      1.0  0.19854  0.55993  0.30871  1.0000
  C   C201      1.0  0.98106  0.60578  0.44887  1.0000
  H   H147      1.0  0.15199  0.80779  0.38220  1.0000
  C   C202      1.0  0.16535  0.57310  0.07717  1.0000
  H   H148      1.0  0.14122  0.52342  0.41378  1.0000
  H   H149      1.0  0.24807  0.55825  0.44671  1.0000
  C   C203      1.0  0.22186  0.58187  0.46214  1.0000
  H   H150      1.0  0.19572  0.74906  0.35867  1.0000
  H   H151      1.0  0.15646  0.57114  0.05304  1.0000
  H   H152      1.0  0.20036  0.55415  0.12179  1.0000
  C   C204      1.0  0.04777  0.52913  0.01083  1.0000
  C   C205      1.0  0.05451  0.51053  0.01262  1.0000
  H   H153      1.0  0.22156  0.74996  0.02338  1.0000
  C   C206      1.0  0.25128  0.74080  0.07319  1.0000
  H   H154      1.0  0.17932  0.48694  0.45648  1.0000
  C   C207      1.0  0.00908  0.50427  0.08232  1.0000
  H   H155      1.0  0.27575  0.85883  0.06099  1.0000
  C   C208      1.0  0.16349  0.50794  0.43376  1.0000
  C   C209      1.0  0.29629  0.82763  0.08068  1.0000
  P   P8        1.0  0.26386  0.81171  0.09507  1.0000
  H   H156      1.0  0.16252  0.74596  0.48325  1.0000
  H   H157      1.0  0.26936  0.79198  0.15912  1.0000
  C   C210      1.0  0.11654  0.56289  0.01086  1.0000
  C   C211      1.0  0.19714  0.54995  0.36045  1.0000
  C   C212      1.0  0.13606  0.75454  0.37285  1.0000
  C   C213      1.0  0.22094  0.76368  0.00722  1.0000
  C   C214      1.0  0.24925  0.48825  0.47990  1.0000
  H   H158      1.0  0.01828  0.52344  0.09214  1.0000
  H   H159      1.0  0.05584  0.50323  0.03655  1.0000
  H   H160      1.0  0.99822  0.61590  0.34187  1.0000
  H   H161      1.0  0.26591  0.76606  0.38142  1.0000
  C   C215      1.0  0.17717  0.76237  0.39148  1.0000
  H   H162      1.0  0.19770  0.64888  0.41707  1.0000
  C   C216      1.0  0.24253  0.53195  0.04758  1.0000
  C   C217      1.0  0.98840  0.49577  0.06044  1.0000
  H   H163      1.0  0.19183  0.61428  0.45431  1.0000
  H   H164      1.0  0.03931  0.65983  0.40363  1.0000
  H   H165      1.0  0.16507  0.48668  0.03798  1.0000
  H   H166      1.0  0.25018  0.87060  0.02606  1.0000
  H   H167      1.0  0.25384  0.72103  0.46844  1.0000
  C   C218      1.0  0.26088  0.84931  0.17816  1.0000
  C   C219      1.0  0.13984  0.80790  0.40163  1.0000
  H   H168      1.0  0.13148  0.83328  0.37492  1.0000
  H   H169      1.0  0.23783  0.72880  0.41558  1.0000
  H   H170      1.0  0.26359  0.84142  0.22984  1.0000
  H   H171      1.0  0.18274  0.58951  0.31892  1.0000
  H   H172      1.0  0.10416  0.83461  0.41936  1.0000
  C   C220      1.0  0.20064  0.67357  0.45738  1.0000
  H   H173      1.0  0.19194  0.76863  0.41026  1.0000
  C   C221      1.0  0.26629  0.73723  0.45344  1.0000
  H   H174      1.0  0.06790  0.71577  0.24807  1.0000
  C   C222      1.0  0.16000  0.74179  0.33820  1.0000
  C   C223      1.0  0.18261  0.57058  0.39851  1.0000
  C   C224      1.0  0.12071  0.79501  0.45607  1.0000
  C   C225      1.0  0.02620  0.56676  0.01766  1.0000
  C   C226      1.0  0.19489  0.63189  0.46491  1.0000
  H   H175      1.0  0.20110  0.81399  0.41251  1.0000
  C   C227      1.0  0.20202  0.81355  0.43944  1.0000
  C   C228      1.0  0.29116  0.75401  0.46413  1.0000
  C   C229      1.0  0.26037  0.53485  0.42375  1.0000
  C   C230      1.0  0.21089  0.50597  0.39881  1.0000
  H   H176      1.0  0.02683  0.52898  0.45612  1.0000
  C   C231      1.0  0.14217  0.73684  0.48072  1.0000
  H   H177      1.0  0.22798  0.55203  0.02084  1.0000
  C   C232      1.0  0.24241  0.54185  0.43105  1.0000
  H   H178      1.0  0.29796  0.75026  0.48714  1.0000
  C   C233      1.0  0.19418  0.56296  0.33384  1.0000
  H   H179      1.0  0.26817  0.50240  0.47251  1.0000
  H   H180      1.0  0.98227  0.50878  0.05353  1.0000
  H   H181      1.0  0.09755  0.81042  0.47144  1.0000
  H   H182      1.0  0.99280  0.61845  0.28137  1.0000
  H   H183      1.0  0.26185  0.78724  0.00362  1.0000
  H   H184      1.0  0.98563  0.54462  0.00811  1.0000
  C   C234      1.0  0.98714  0.51274  0.46882  1.0000
  H   H185      1.0  0.31291  0.82920  0.12920  1.0000
  H   H186      1.0  0.30969  0.79600  0.40013  1.0000
  C   C235      1.0  0.21474  0.75503  0.47855  1.0000
  H   H187      1.0  0.27253  0.81045  0.48165  1.0000
  H   H188      1.0  0.13156  0.53560  0.48794  1.0000
  C   C236      1.0  0.13006  0.59825  0.48775  1.0000
  C   C237      1.0  0.13118  0.55304  0.48805  1.0000
  H   H189      1.0  0.12977  0.61570  0.48790  1.0000
  H   H190      1.0  0.24257  0.61769  0.48798  1.0000
  C   C238      1.0  0.25569  0.73207  0.56099  1.0000
  H   H191      1.0  0.21478  0.49429  0.94687  1.0000
  S   S30       1.0  0.26967  0.81723  0.55453  1.0000
  C   C239      1.0  0.12803  0.58568  0.51784  1.0000
  H   H192      1.0  0.05082  0.53709  0.92659  1.0000
  C   C240      1.0  0.29484  0.81570  0.83521  1.0000
  H   H193      1.0  0.18560  0.55614  0.54485  1.0000
  C   C241      1.0  0.99957  0.56595  0.93879  1.0000
  H   H194      1.0  0.18061  0.54005  0.93004  1.0000
  C   C242      1.0  0.12162  0.64632  0.55238  1.0000
  C   C243      1.0  0.24827  0.74431  0.58378  1.0000
  H   H195      1.0  0.14732  0.60122  0.93118  1.0000
  S   S31       1.0  0.12736  0.54887  0.55700  1.0000
  S   S32       1.0  0.13390  0.54970  0.91776  1.0000
  H   H196      1.0  0.24556  0.69718  0.53586  1.0000
  H   H197      1.0  0.06723  0.52572  0.60651  1.0000
  C   C244      1.0  0.13089  0.56458  0.95407  1.0000
  H   H198      1.0  0.11254  0.65791  0.93097  1.0000
  H   H199      1.0  0.24020  0.51556  0.49984  1.0000
  C   C245      1.0  0.11207  0.63670  0.58386  1.0000
  H   H200      1.0  0.27804  0.51572  0.72345  1.0000
  C   C246      1.0  0.00872  0.55002  0.94850  1.0000
  Fe  Fe17      1.0  0.12303  0.50825  0.91748  1.0000
  H   H201      1.0  0.19095  0.72951  0.88291  1.0000
  H   H202      1.0  0.21978  0.55706  0.59221  1.0000
  S   S33       1.0  0.15928  0.51220  0.58798  1.0000
  H   H203      1.0  0.30026  0.93269  0.65212  1.0000
  H   H204      1.0  0.24481  0.80127  0.69369  1.0000
  H   H205      1.0  0.11175  0.54852  0.62664  1.0000
  C   C247      1.0  0.05895  0.51157  0.95274  1.0000
  C   C248      1.0  0.07692  0.63714  0.95635  1.0000
  P   P9        1.0  0.98479  0.48683  0.49304  1.0000
  C   C249      1.0  0.21976  0.79935  0.96495  1.0000
  C   C250      1.0  0.06016  0.59190  0.96232  1.0000
  C   C251      1.0  0.21736  0.52771  0.62396  1.0000
  C   C252      1.0  0.24911  0.79351  0.52450  1.0000
  C   C253      1.0  0.22585  0.77287  0.53509  1.0000
  H   H206      1.0  0.19144  0.73799  0.52149  1.0000
  H   H207      1.0  0.22081  0.77169  0.56107  1.0000
  H   H208      1.0  0.21814  0.59397  0.62859  1.0000
  C   C254      1.0  0.24815  0.52258  0.57710  1.0000
  H   H209      1.0  0.21907  0.74047  0.61692  1.0000
  H   H210      1.0  0.16564  0.78543  0.50756  1.0000
  C   C255      1.0  0.22642  0.64849  0.59457  1.0000
  C   C256      1.0  0.24527  0.80355  0.72055  1.0000
  C   C257      1.0  0.19606  0.56324  0.52196  1.0000
  C   C258      1.0  0.22417  0.50932  0.62828  1.0000
  C   C259      1.0  0.22485  0.73081  0.59953  1.0000
  H   H211      1.0  0.14084  0.49545  0.80060  1.0000
  C   C260      1.0  0.29075  0.80022  0.90143  1.0000
  C   C261      1.0  0.19646  0.65668  0.51323  1.0000
  C   C262      1.0  0.13877  0.59048  0.95347  1.0000
  H   H212      1.0  0.28938  0.79493  0.92742  1.0000
  H   H213      1.0  0.03454  0.48938  0.63739  1.0000
  C   C263      1.0  0.09994  0.61818  0.93363  1.0000
  H   H214      1.0  0.09255  0.63071  0.58962  1.0000
  H   H215      1.0  0.03110  0.53134  0.51850  1.0000
  C   C264      1.0  0.22578  0.54342  0.59613  1.0000
  H   H216      1.0  0.15757  0.51414  0.74515  1.0000
  S   S34       1.0  0.30738  0.88620  0.59826  1.0000
  H   H217      1.0  0.16459  0.64042  0.61894  1.0000
  C   C265      1.0  0.29619  0.48963  0.53529  1.0000
  C   C266      1.0  0.14671  0.65379  0.54473  1.0000
  H   H218      1.0  0.12028  0.62725  0.63220  1.0000
  H   H219      1.0  0.26226  0.90944  0.87645  1.0000
  C   C267      1.0  0.05833  0.61354  0.96808  1.0000
  H   H220      1.0  0.20110  0.69340  0.50166  1.0000
  C   C268      1.0  0.23967  0.50664  0.60489  1.0000
  C   C269      1.0  0.25498  0.79471  0.49058  1.0000
  H   H221      1.0  0.30272  0.79393  0.50949  1.0000
  Fe  Fe18      1.0  0.30733  0.85408  0.57001  1.0000
  H   H222      1.0  0.00803  0.58501  0.94855  1.0000
  H   H223      1.0  0.04274  0.61232  0.98214  1.0000
  S   S35       1.0  0.14523  0.49498  0.67828  1.0000
  H   H224      1.0  0.17579  0.57712  0.60174  1.0000
  H   H225      1.0  0.12583  0.59349  0.54095  1.0000
  C   C270      1.0  0.10065  0.70140  0.49323  1.0000
  H   H226      1.0  0.10946  0.64772  0.53371  1.0000
  C   C271      1.0  0.19386  0.63440  0.49942  1.0000
  H   H227      1.0  0.07554  0.65377  0.96146  1.0000
  H   H228      1.0  0.20988  0.76899  0.72823  1.0000
  C   C272      1.0  0.21510  0.58862  0.51972  1.0000
  H   H229      1.0  0.29740  0.82215  0.80985  1.0000
  H   H230      1.0  0.16574  0.60551  0.57088  1.0000
  C   C273      1.0  0.12769  0.63472  0.60778  1.0000
  C   C274      1.0  0.99635  0.52498  0.93636  1.0000
  C   C275      1.0  0.01529  0.49166  0.50614  1.0000
  H   H231      1.0  0.30189  0.51246  0.62687  1.0000
  P   P10       1.0  0.19442  0.65993  0.55774  1.0000
  H   H232      1.0  0.27375  0.74270  0.54858  1.0000
  H   H233      1.0  0.19010  0.61853  0.51491  1.0000
  H   H234      1.0  0.16493  0.78252  0.88986  1.0000
  C   C276      1.0  0.10402  0.52500  0.66978  1.0000
  C   C277      1.0  0.14191  0.49488  0.74665  1.0000
  H   H235      1.0  0.20227  0.81394  0.85894  1.0000
  H   H236      1.0  0.25058  0.63953  0.62364  1.0000
  C   C278      1.0  0.05364  0.49953  0.64748  1.0000
  H   H237      1.0  0.17149  0.51933  0.98488  1.0000
  H   H238      1.0  0.21673  0.49675  0.64939  1.0000
  C   C279      1.0  0.18551  0.55135  0.95257  1.0000
  C   C280      1.0  0.09778  0.63949  0.93922  1.0000
  H   H239      1.0  0.11449  0.53122  0.98424  1.0000
  H   H240      1.0  0.11639  0.62006  0.92097  1.0000
  C   C281      1.0  0.18433  0.61327  0.58235  1.0000
  S   S36       1.0  0.27219  0.83083  0.96105  1.0000
  H   H241      1.0  0.20642  0.81378  0.53597  1.0000
  C   C282      1.0  0.20236  0.63918  0.57990  1.0000
  C   C283      1.0  0.19001  0.59706  0.59983  1.0000
  C   C284      1.0  0.21584  0.69269  0.56916  1.0000
  S   S37       1.0  0.14745  0.49421  0.89444  1.0000
  C   C285      1.0  0.26558  0.82473  0.73572  1.0000
  C   C286      1.0  0.17870  0.77773  0.88112  1.0000
  H   H242      1.0  0.19045  0.69518  0.60442  1.0000
  C   C287      1.0  0.21386  0.60653  0.61478  1.0000
  H   H243      1.0  0.24074  0.66832  0.59298  1.0000
  H   H244      1.0  0.01170  0.49552  0.69880  1.0000
  C   C288      1.0  0.24115  0.54085  0.57272  1.0000
  C   C289      1.0  0.03435  0.51555  0.51770  1.0000
  H   H245      1.0  0.08885  0.68347  0.50547  1.0000
  C   C290      1.0  0.20898  0.75371  0.51253  1.0000
  C   C291      1.0  0.15278  0.64212  0.60012  1.0000
  H   H246      1.0  0.19973  0.58630  0.92605  1.0000
  C   C292      1.0  0.25902  0.89114  0.86833  1.0000
  H   H247      1.0  0.21964  0.60113  0.54103  1.0000
  H   H248      1.0  0.25957  0.89924  0.81609  1.0000
  C   C293      1.0  0.22564  0.78542  0.74003  1.0000
  H   H249      1.0  0.30156  0.93799  0.71360  1.0000
  C   C294      1.0  0.22802  0.59793  0.48983  1.0000
  C   C295      1.0  0.17552  0.75401  0.88820  1.0000
  C   C296      1.0  0.24665  0.80982  0.79018  1.0000
  C   C297      1.0  0.22631  0.78849  0.77470  1.0000
  P   P11       1.0  0.24783  0.81383  0.83509  1.0000
  C   C298      1.0  0.21848  0.78982  0.85350  1.0000
  C   C299      1.0  0.27323  0.81059  0.85345  1.0000
  H   H250      1.0  0.17903  0.77548  0.96736  1.0000
  H   H251      1.0  0.25954  0.52049  0.55827  1.0000
  H   H252      1.0  0.15943  0.74052  0.90267  1.0000
  C   C300      1.0  0.24349  0.80340  0.97537  1.0000
  C   C301      1.0  0.27149  0.80293  0.88677  1.0000
  C   C302      1.0  0.21463  0.76557  0.85960  1.0000
  C   C303      1.0  0.19333  0.74784  0.87713  1.0000
  H   H253      1.0  0.24694  0.55241  0.55058  1.0000
  C   C304      1.0  0.23333  0.49567  0.49575  1.0000
  C   C305      1.0  0.20001  0.79555  0.86368  1.0000
  C   C306      1.0  0.25246  0.84435  0.84741  1.0000
  C   C307      1.0  0.25404  0.86201  0.82387  1.0000
  C   C308      1.0  0.25766  0.88543  0.83435  1.0000
  C   C309      1.0  0.06238  0.49911  0.52774  1.0000
  C   C310      1.0  0.25646  0.87331  0.89187  1.0000
  C   C311      1.0  0.25336  0.85012  0.88147  1.0000
  H   H254      1.0  0.13566  0.70616  0.51293  1.0000
  S   S38       1.0  0.18975  0.48836  0.52730  1.0000
  C   C312      1.0  0.23209  0.63220  0.61200  1.0000
  H   H255      1.0  0.08412  0.57865  0.94152  1.0000
  H   H256      1.0  0.21090  0.77421  0.78920  1.0000
  H   H257      1.0  0.20478  0.52912  0.64167  1.0000
  H   H258      1.0  0.15374  0.66114  0.52030  1.0000
  C   C313      1.0  0.23962  0.70633  0.55382  1.0000
  H   H259      1.0  0.28083  0.83883  0.72064  1.0000
  H   H260      1.0  0.25535  0.79922  0.90177  1.0000
  H   H261      1.0  0.22854  0.76068  0.85183  1.0000
  C   C314      1.0  0.26629  0.82786  0.77031  1.0000
  C   C315      1.0  0.24118  0.49030  0.97925  1.0000
  C   C316      1.0  0.12890  0.56321  0.51820  1.0000
  C   C317      1.0  0.08555  0.50451  0.68776  1.0000
  H   H262      1.0  0.25244  0.85798  0.79748  1.0000
  C   C318      1.0  0.07216  0.52015  0.62968  1.0000
  H   H263      1.0  0.27178  0.51947  0.66338  1.0000
  C   C319      1.0  0.08134  0.59451  0.94528  1.0000
  H   H264      1.0  0.25175  0.83673  0.90012  1.0000
  H   H265      1.0  0.26046  0.76441  0.58879  1.0000
  C   C320      1.0  0.05183  0.52988  0.95079  1.0000
  C   C321      1.0  0.04610  0.53880  0.97985  1.0000
  H   H266      1.0  0.24441  0.84207  0.50331  1.0000
  C   C322      1.0  0.20865  0.70511  0.59229  1.0000
  H   H267      1.0  0.28217  0.84450  0.78154  1.0000
  H   H268      1.0  0.12373  0.53411  0.67768  1.0000
  C   C323      1.0  0.16237  0.65139  0.56829  1.0000
  Fe  Fe19      1.0  0.12570  0.51122  0.56417  1.0000
  C   C324      1.0  0.19654  0.57755  0.95030  1.0000
  C   C325      1.0  0.09730  0.53301  0.64097  1.0000
  H   H269      1.0  0.30540  0.79856  0.57047  1.0000
  H   H270      1.0  0.25770  0.87771  0.91827  1.0000
  C   C326      1.0  0.06006  0.50173  0.98361  1.0000
  H   H271      1.0  0.00214  0.51188  0.94430  1.0000
  H   H272      1.0  0.06395  0.50519  0.93038  1.0000
  C   C327      1.0  0.20505  0.81379  0.50902  1.0000
  C   C328      1.0  0.12697  0.71418  0.49746  1.0000
  C   C329      1.0  0.19010  0.54701  0.49448  1.0000
  C   C330      1.0  0.19982  0.67627  0.49187  1.0000
  C   C331      1.0  0.31205  0.80523  0.88304  1.0000
  C   C332      1.0  0.18209  0.79748  0.49275  1.0000
  P   P12       1.0  0.03545  0.56145  0.97712  1.0000
  H   H273      1.0  0.25752  0.50254  0.96439  1.0000
  H   H274      1.0  0.17534  0.52737  0.49693  1.0000
  H   H275      1.0  0.06582  0.48771  0.98508  1.0000
  H   H276      1.0  0.08066  0.50206  0.53563  1.0000
  C   C333      1.0  0.27588  0.49042  0.58685  1.0000
  H   H277      1.0  0.09167  0.49842  0.70921  1.0000
  Fe  Fe20      1.0  0.31035  0.86565  0.94383  1.0000
  C   C334      1.0  0.18008  0.53970  0.98370  1.0000
  H   H278      1.0  0.21888  0.81288  0.94865  1.0000
  C   C335      1.0  0.29995  0.50572  0.60148  1.0000
  C   C336      1.0  0.06003  0.49183  0.67722  1.0000
  C   C337      1.0  0.26487  0.50088  0.67389  1.0000
  H   H279      1.0  0.07288  0.53791  0.53602  1.0000
  C   C338      1.0  0.19702  0.77794  0.97558  1.0000
  C   C339      1.0  0.05793  0.51931  0.52797  1.0000
  C   C340      1.0  0.20307  0.59233  0.97926  1.0000
  C   C341      1.0  0.26847  0.49884  0.70795  1.0000
  C   C342      1.0  0.12024  0.55099  0.98320  1.0000
  C   C343      1.0  0.13548  0.60253  0.98145  1.0000
  H   H280      1.0  0.21169  0.61267  0.97749  1.0000
  H   H281      1.0  0.14155  0.62244  0.98073  1.0000
  C   C344      1.0  0.22651  0.82985  0.49057  1.0000
  H   H282      1.0  0.31208  0.89701  0.75730  1.0000
  H   H283      1.0  0.05051  0.48709  0.83990  1.0000
  Fe  Fe21      1.0  0.34911  0.46554  0.42311  1.0000
  C   C345      1.0  0.47196  0.10324  0.04093  1.0000
  S   S39       1.0  0.37678  0.45021  0.42533  1.0000
  C   C346      1.0  0.64523  0.14186  0.22600  1.0000
  C   C347      1.0  0.42460  0.99183  0.04078  1.0000
  C   C348      1.0  0.48438  0.22456  0.40803  1.0000
  C   C349      1.0  0.38389  0.47412  0.22816  1.0000
  Fe  Fe22      1.0  0.33363  0.44969  0.06063  1.0000
  S   S40       1.0  0.33680  0.41530  0.04517  1.0000
  H   H284      1.0  0.56938  0.99529  0.35667  1.0000
  Fe  Fe23      1.0  0.62658  0.13705  0.07756  1.0000
  S   S41       1.0  0.59323  0.14367  0.07275  1.0000
  S   S42       1.0  0.62772  0.05786  0.04319  1.0000
  S   S43       1.0  0.62173  0.10455  0.10929  1.0000
  S   S44       1.0  0.61882  0.10602  0.40267  1.0000
  H   H285      1.0  0.61926  0.47336  0.13238  1.0000
  Fe  Fe24      1.0  0.62100  0.12875  0.44787  1.0000
  C   C350      1.0  0.62260  0.46230  0.11416  1.0000
  Fe  Fe25      1.0  0.44657  0.37209  0.07054  1.0000
  S   S45       1.0  0.47726  0.38784  0.10995  1.0000
  S   S46       1.0  0.43293  0.40098  0.06615  1.0000
  Fe  Fe26      1.0  0.45543  0.32630  0.05719  1.0000
  S   S47       1.0  0.48578  0.33990  0.09710  1.0000
  S   S48       1.0  0.44094  0.28853  0.02707  1.0000
  Fe  Fe27      1.0  0.46067  0.34849  0.12932  1.0000
  S   S49       1.0  0.44673  0.33872  0.18370  1.0000
  Fe  Fe28      1.0  0.49983  0.37863  0.07471  1.0000
  S   S50       1.0  0.54163  0.40876  0.06887  1.0000
  S   S51       1.0  0.42906  0.33244  0.09085  1.0000
  S   S52       1.0  0.47047  0.36507  0.03381  1.0000
  Fe  Fe29      1.0  0.43129  0.35421  0.42835  1.0000
  S   S53       1.0  0.46691  0.38744  0.40933  1.0000
  S   S54       1.0  0.39409  0.35508  0.42571  1.0000
  Fe  Fe30      1.0  0.45863  0.32441  0.44842  1.0000
  S   S55       1.0  0.49576  0.35691  0.42993  1.0000
  H   H286      1.0  0.46719  0.08159  0.99670  1.0000
  Fe  Fe31      1.0  0.48546  0.38297  0.45551  1.0000
  H   H287      1.0  0.36181  0.34799  0.31593  1.0000
  Fe  Fe32      1.0  0.47379  0.35822  0.38506  1.0000
  S   S56       1.0  0.49164  0.36417  0.33309  1.0000
  H   H288      1.0  0.54811  0.40705  0.46791  1.0000
  S   S57       1.0  0.43720  0.32460  0.40190  1.0000
  C   C351      1.0  0.44292  0.23605  0.39692  1.0000
  C   C352      1.0  0.33234  0.41787  0.33912  1.0000
  H   H289      1.0  0.41389  0.24898  0.48484  1.0000
  C   C353      1.0  0.39998  0.46597  0.24090  1.0000
  C   C354      1.0  0.41320  0.42146  0.26881  1.0000
  H   H290      1.0  0.44797  0.44991  0.13183  1.0000
  H   H291      1.0  0.43787  0.20600  0.27533  1.0000
  H   H292      1.0  0.34719  0.43626  0.17773  1.0000
  C   C355      1.0  0.47779  0.23313  0.27219  1.0000
  C   C356      1.0  0.51830  0.02825  0.03061  1.0000
  C   C357      1.0  0.55273  0.42608  0.03119  1.0000
  C   C358      1.0  0.57600  0.44912  0.03107  1.0000
  Fe  Fe33      1.0  0.64124  0.09683  0.06752  1.0000
  C   C359      1.0  0.54236  0.07405  0.03062  1.0000
  H   H293      1.0  0.58649  0.45660  0.05411  1.0000
  H   H294      1.0  0.47851  0.23064  0.24561  1.0000
  C   C360      1.0  0.45938  0.34778  0.22509  1.0000
  C   C361      1.0  0.44306  0.33673  0.25237  1.0000
  C   C362      1.0  0.45231  0.34232  0.28559  1.0000
  C   C363      1.0  0.47818  0.35875  0.29202  1.0000
  C   C364      1.0  0.49439  0.37013  0.26476  1.0000
  C   C365      1.0  0.48504  0.36502  0.23161  1.0000
  H   H295      1.0  0.42316  0.32345  0.24775  1.0000
  H   H296      1.0  0.43956  0.33328  0.30615  1.0000
  H   H297      1.0  0.51440  0.38294  0.26933  1.0000
  H   H298      1.0  0.49777  0.37416  0.21112  1.0000
  C   C366      1.0  0.35089  0.30255  0.11099  1.0000
  H   H299      1.0  0.53854  0.01004  0.04805  1.0000
  C   C367      1.0  0.42362  0.40643  0.27693  1.0000
  C   C368      1.0  0.32093  0.47056  0.27756  1.0000
  H   H300      1.0  0.42081  0.37153  0.19562  1.0000
  S   S58       1.0  0.46503  0.29327  0.47218  1.0000
  H   H301      1.0  0.38497  0.18475  0.41376  1.0000
  C   C369      1.0  0.36898  0.36373  0.22113  1.0000
  H   H302      1.0  0.57853  0.05033  0.05917  1.0000
  H   H303      1.0  0.58161  0.99983  0.25022  1.0000
  C   C370      1.0  0.57879  0.14489  0.03475  1.0000
  P   P13       1.0  0.39657  0.45543  0.28363  1.0000
  H   H304      1.0  0.62605  0.01553  0.38650  1.0000
  H   H305      1.0  0.52775  0.37716  0.16462  1.0000
  S   S59       1.0  0.44930  0.35091  0.47612  1.0000
  H   H306      1.0  0.38615  0.34027  0.21890  1.0000
  H   H307      1.0  0.48022  0.12335  0.08767  1.0000
  C   C371      1.0  0.60381  0.00561  0.04010  1.0000
  C   C372      1.0  0.61095  0.02689  0.06078  1.0000
  C   C373      1.0  0.60469  0.02291  0.09456  1.0000
  C   C374      1.0  0.41781  0.43527  0.32640  1.0000
  H   H308      1.0  0.61009  0.03897  0.11090  1.0000
  C   C375      1.0  0.64546  0.47319  0.09680  1.0000
  C   C376      1.0  0.62308  0.03334  0.43133  1.0000
  H   H309      1.0  0.49795  0.01974  0.47216  1.0000
  H   H310      1.0  0.54188  0.34803  0.41746  1.0000
  C   C377      1.0  0.38632  0.48245  0.19527  1.0000
  C   C378      1.0  0.36312  0.41105  0.05351  1.0000
  C   C379      1.0  0.38631  0.43071  0.06578  1.0000
  C   C380      1.0  0.40723  0.42713  0.06964  1.0000
  C   C381      1.0  0.40528  0.40373  0.06211  1.0000
  C   C382      1.0  0.38188  0.38383  0.05073  1.0000
  C   C383      1.0  0.36104  0.38755  0.04628  1.0000
  H   H311      1.0  0.38836  0.44895  0.07120  1.0000
  H   H312      1.0  0.42510  0.44274  0.07835  1.0000
  C   C384      1.0  0.49886  0.25329  0.32417  1.0000
  C   C385      1.0  0.39936  0.20436  0.40991  1.0000
  C   C386      1.0  0.38108  0.42343  0.42331  1.0000
  C   C387      1.0  0.40581  0.42737  0.42609  1.0000
  C   C388      1.0  0.41021  0.40684  0.42603  1.0000
  C   C389      1.0  0.38987  0.38191  0.42342  1.0000
  C   C390      1.0  0.36517  0.37801  0.42010  1.0000
  C   C391      1.0  0.36079  0.39856  0.41985  1.0000
  C   C392      1.0  0.36344  0.35203  0.28946  1.0000
  C   C393      1.0  0.45987  0.42761  0.15924  1.0000
  H   H313      1.0  0.34926  0.35888  0.41803  1.0000
  H   H314      1.0  0.34167  0.39507  0.41746  1.0000
  C   C394      1.0  0.42327  0.27509  0.13500  1.0000
  C   C395      1.0  0.42260  0.26269  0.10539  1.0000
  C   C396      1.0  0.44132  0.25659  0.09920  1.0000
  C   C397      1.0  0.46086  0.26309  0.12240  1.0000
  C   C398      1.0  0.46114  0.27472  0.15276  1.0000
  C   C399      1.0  0.44248  0.28111  0.15857  1.0000
  P   P14       1.0  0.48748  0.28508  0.18143  1.0000
  C   C400      1.0  0.47855  0.28772  0.22346  1.0000
  C   C401      1.0  0.49835  0.26274  0.18349  1.0000
  C   C402      1.0  0.52318  0.27080  0.19440  1.0000
  C   C403      1.0  0.53171  0.25355  0.19642  1.0000
  H   H315      1.0  0.46271  0.46183  0.04678  1.0000
  C   C404      1.0  0.49055  0.21989  0.17762  1.0000
  C   C405      1.0  0.48192  0.23706  0.17574  1.0000
  C   C406      1.0  0.45432  0.27011  0.23512  1.0000
  C   C407      1.0  0.44696  0.27266  0.26717  1.0000
  C   C408      1.0  0.46388  0.29253  0.28796  1.0000
  C   C409      1.0  0.48838  0.30947  0.27707  1.0000
  C   C410      1.0  0.49580  0.30699  0.24504  1.0000
  C   C411      1.0  0.51158  0.31513  0.16533  1.0000
  C   C412      1.0  0.52890  0.31624  0.14164  1.0000
  C   C413      1.0  0.54606  0.33931  0.12695  1.0000
  C   C414      1.0  0.54593  0.36134  0.13565  1.0000
  C   C415      1.0  0.52864  0.36032  0.15905  1.0000
  C   C416      1.0  0.51126  0.33723  0.17342  1.0000
  H   H316      1.0  0.40939  0.28078  0.13926  1.0000
  H   H317      1.0  0.40818  0.25865  0.08659  1.0000
  H   H318      1.0  0.44118  0.24769  0.07574  1.0000
  H   H319      1.0  0.47591  0.25943  0.11622  1.0000
  H   H320      1.0  0.44307  0.29135  0.18088  1.0000
  H   H321      1.0  0.53596  0.29043  0.20116  1.0000
  H   H322      1.0  0.40856  0.02798  0.99637  1.0000
  H   H323      1.0  0.43284  0.41869  0.36015  1.0000
  H   H324      1.0  0.46243  0.23019  0.16828  1.0000
  H   H325      1.0  0.44090  0.25475  0.21919  1.0000
  H   H326      1.0  0.42797  0.25955  0.27567  1.0000
  H   H327      1.0  0.45788  0.29514  0.31229  1.0000
  H   H328      1.0  0.50134  0.32507  0.29313  1.0000
  H   H329      1.0  0.51478  0.32049  0.23700  1.0000
  H   H330      1.0  0.52853  0.29919  0.13352  1.0000
  H   H331      1.0  0.55882  0.33994  0.10788  1.0000
  H   H332      1.0  0.55841  0.37898  0.12321  1.0000
  H   H333      1.0  0.49683  0.33637  0.18969  1.0000
  H   H334      1.0  0.47974  0.43972  0.15344  1.0000
  H   H335      1.0  0.54795  0.14540  0.05968  1.0000
  C   C417      1.0  0.52725  0.30950  0.43302  1.0000
  C   C418      1.0  0.61699  0.01237  0.41047  1.0000
  H   H336      1.0  0.49047  0.29002  0.02524  1.0000
  C   C419      1.0  0.34459  0.42334  0.27145  1.0000
  H   H337      1.0  0.52215  0.21483  0.18906  1.0000
  H   H338      1.0  0.41504  0.44572  0.34616  1.0000
  C   C420      1.0  0.42177  0.47593  0.18775  1.0000
  C   C421      1.0  0.35753  0.43316  0.32941  1.0000
  H   H339      1.0  0.45785  0.21555  0.44835  1.0000
  H   H340      1.0  0.42562  0.39497  0.25791  1.0000
  H   H341      1.0  0.40652  0.42075  0.24359  1.0000
  H   H342      1.0  0.34886  0.42509  0.24516  1.0000
  H   H343      1.0  0.54397  0.03320  0.20368  1.0000
  C   C422      1.0  0.31447  0.45959  0.24531  1.0000
  C   C423      1.0  0.49875  0.29590  0.37395  1.0000
  C   C424      1.0  0.56982  0.04887  0.39617  1.0000
  C   C425      1.0  0.63008  0.43430  0.06511  1.0000
  C   C426      1.0  0.39350  0.22340  0.41462  1.0000
  C   C427      1.0  0.34629  0.32110  0.16198  1.0000
  C   C428      1.0  0.59936  0.98733  0.42040  1.0000
  C   C429      1.0  0.45880  0.00231  0.98904  1.0000
  H   H344      1.0  0.58526  0.42951  0.11912  1.0000
  H   H345      1.0  0.58178  0.06748  0.17554  1.0000
  C   C430      1.0  0.63814  0.07364  0.32891  1.0000
  C   C431      1.0  0.44195  0.43338  0.14719  1.0000
  H   H346      1.0  0.39349  0.36562  0.11387  1.0000
  C   C432      1.0  0.45109  0.26732  0.01137  1.0000
  S   S60       1.0  0.64224  0.15098  0.32645  1.0000
  C   C433      1.0  0.49652  0.27695  0.39562  1.0000
  H   H347      1.0  0.52752  0.20488  0.40491  1.0000
  C   C434      1.0  0.58918  0.14511  0.00370  1.0000
  H   H348      1.0  0.42808  0.19558  0.39744  1.0000
  C   C435      1.0  0.41111  0.43679  0.29325  1.0000
  H   H349      1.0  0.31406  0.45873  0.29936  1.0000
  H   H350      1.0  0.60624  0.14405  0.00244  1.0000
  S   S61       1.0  0.33405  0.47722  0.46692  1.0000
  H   H351      1.0  0.50100  0.01049  0.02632  1.0000
  C   C436      1.0  0.50055  0.19594  0.44412  1.0000
  C   C437      1.0  0.48821  0.07463  0.03464  1.0000
  H   H352      1.0  0.43592  0.21143  0.33574  1.0000
  H   H353      1.0  0.56838  0.29591  0.47017  1.0000
  C   C438      1.0  0.52957  0.32821  0.41114  1.0000
  C   C439      1.0  0.54460  0.14754  0.00635  1.0000
  C   C440      1.0  0.58148  0.04264  0.37107  1.0000
  H   H354      1.0  0.51645  0.33598  0.36517  1.0000
  C   C441      1.0  0.48691  0.02774  0.48122  1.0000
  S   S62       1.0  0.31384  0.45952  0.17658  1.0000
  C   C442      1.0  0.49594  0.05348  0.47598  1.0000
  H   H355      1.0  0.51398  0.06511  0.46375  1.0000
  C   C443      1.0  0.55377  0.05804  0.38783  1.0000
  C   C444      1.0  0.42389  0.21061  0.40088  1.0000
  C   C445      1.0  0.41218  0.24870  0.41028  1.0000
  C   C446      1.0  0.35639  0.37218  0.24209  1.0000
  P   P15       1.0  0.47476  0.24402  0.38572  1.0000
  H   H356      1.0  0.40783  0.26355  0.41462  1.0000
  S   S63       1.0  0.33797  0.48104  0.02692  1.0000
  C   C447      1.0  0.56213  0.05059  0.04931  1.0000
  C   C448      1.0  0.32295  0.47462  0.21651  1.0000
  H   H357      1.0  0.48737  0.29099  0.35142  1.0000
  C   C449      1.0  0.46377  0.02117  0.01292  1.0000
  H   H358      1.0  0.52744  0.14846  0.00764  1.0000
  C   C450      1.0  0.45489  0.21925  0.28898  1.0000
  C   C451      1.0  0.47583  0.23964  0.34124  1.0000
  H   H359      1.0  0.43868  0.39369  0.31612  1.0000
  H   H360      1.0  0.32771  0.41584  0.36538  1.0000
  C   C452      1.0  0.37498  0.34260  0.26862  1.0000
  H   H361      1.0  0.36936  0.47404  0.24357  1.0000
  H   H362      1.0  0.54366  0.09214  0.02683  1.0000
  C   C453      1.0  0.48084  0.19890  0.45612  1.0000
  S   S64       1.0  0.35873  0.47573  0.10100  1.0000
  P   P16       1.0  0.37456  0.37262  0.17752  1.0000
  C   C454      1.0  0.36382  0.43618  0.29548  1.0000
  C   C455      1.0  0.47508  0.08599  0.02169  1.0000
  H   H363      1.0  0.44973  0.02991  0.05748  1.0000
  C   C456      1.0  0.59422  0.00370  0.47263  1.0000
  H   H364      1.0  0.58784  0.99540  0.13380  1.0000
  C   C457      1.0  0.60698  0.07360  0.21679  1.0000
  C   C458      1.0  0.35389  0.36657  0.27612  1.0000
  P   P17       1.0  0.59119  0.03543  0.30543  1.0000
  C   C459      1.0  0.57639  0.04445  0.33733  1.0000
  C   C460      1.0  0.62422  0.04880  0.31636  1.0000
  H   H365      1.0  0.55405  0.25008  0.46826  1.0000
  H   H366      1.0  0.59480  0.03676  0.37803  1.0000
  H   H367      1.0  0.51366  0.23025  0.37316  1.0000
  H   H368      1.0  0.53761  0.31486  0.45641  1.0000
  H   H369      1.0  0.54565  0.06391  0.40736  1.0000
  C   C461      1.0  0.56021  0.05368  0.32913  1.0000
  H   H370      1.0  0.62787  0.07592  0.26092  1.0000
  C   C462      1.0  0.44652  0.01572  0.03889  1.0000
  H   H371      1.0  0.43655  0.47684  0.17208  1.0000
  C   C463      1.0  0.49055  0.45541  0.02410  1.0000
  C   C464      1.0  0.58816  0.04674  0.26501  1.0000
  C   C465      1.0  0.56452  0.03493  0.24847  1.0000
  S   S65       1.0  0.58300  0.11460  0.47364  1.0000
  H   H372      1.0  0.43111  0.48176  0.47431  1.0000
  H   H373      1.0  0.62607  0.01563  0.30220  1.0000
  C   C466      1.0  0.58345  0.06174  0.20052  1.0000
  C   C467      1.0  0.49976  0.25016  0.28974  1.0000
  C   C468      1.0  0.43094  0.40564  0.30976  1.0000
  C   C469      1.0  0.41969  0.46803  0.22085  1.0000
  H   H374      1.0  0.60904  0.00837  0.01413  1.0000
  C   C470      1.0  0.35606  0.38636  0.16298  1.0000
  C   C471      1.0  0.57610  0.00126  0.30345  1.0000
  C   C472      1.0  0.61104  0.02878  0.46220  1.0000
  H   H375      1.0  0.50351  0.10338  0.11113  1.0000
  C   C473      1.0  0.47291  0.21326  0.43829  1.0000
  H   H376      1.0  0.34325  0.37219  0.03671  1.0000
  H   H377      1.0  0.55650  0.05614  0.30347  1.0000
  C   C474      1.0  0.48232  0.10964  0.07308  1.0000
  C   C475      1.0  0.49536  0.09835  0.08627  1.0000
  C   C476      1.0  0.50425  0.22155  0.39616  1.0000
  H   H378      1.0  0.37204  0.44272  0.34847  1.0000
  H   H379      1.0  0.54795  0.01970  0.26028  1.0000
  H   H380      1.0  0.62397  0.15101  0.26037  1.0000
  H   H381      1.0  0.43360  0.46376  0.23064  1.0000
  C   C477      1.0  0.32800  0.40812  0.13977  1.0000
  Fe  Fe34      1.0  0.32356  0.47291  0.12232  1.0000
  H   H382      1.0  0.45094  0.27485  0.39928  1.0000
  C   C478      1.0  0.58070  0.15860  0.48121  1.0000
  H   H383      1.0  0.33628  0.31890  0.18501  1.0000
  H   H384      1.0  0.55101  0.25991  0.20439  1.0000
  C   C479      1.0  0.45389  0.22241  0.32337  1.0000
  C   C480      1.0  0.59198  0.99811  0.10748  1.0000
  C   C481      1.0  0.40488  0.48282  0.17484  1.0000
  C   C482      1.0  0.35948  0.40883  0.17742  1.0000
  C   C483      1.0  0.42246  0.46301  0.99589  1.0000
  H   H385      1.0  0.37461  0.21859  0.42213  1.0000
  H   H386      1.0  0.41350  0.23962  0.99439  1.0000
  H   H387      1.0  0.34503  0.28624  0.09487  1.0000
  C   C484      1.0  0.51226  0.20726  0.41416  1.0000
  C   C485      1.0  0.56750  0.98665  0.33252  1.0000
  C   C486      1.0  0.56219  0.04246  0.21639  1.0000
  H   H388      1.0  0.62921  0.08489  0.33237  1.0000
  C   C487      1.0  0.51953  0.05136  0.02424  1.0000
  C   C488      1.0  0.51527  0.32141  0.38163  1.0000
  H   H389      1.0  0.58102  0.09128  0.04812  1.0000
  H   H390      1.0  0.47793  0.20018  0.17099  1.0000
  H   H391      1.0  0.59875  0.16845  0.46869  1.0000
  C   C489      1.0  0.33882  0.29994  0.14141  1.0000
  C   C490      1.0  0.49805  0.08067  0.06731  1.0000
  C   C491      1.0  0.42779  0.41985  0.33453  1.0000
  C   C492      1.0  0.57423  0.98907  0.27286  1.0000
  H   H392      1.0  0.59176  0.40486  0.07545  1.0000
  C   C493      1.0  0.53953  0.02789  0.04311  1.0000
  H   H393      1.0  0.57418  0.04765  0.42211  1.0000
  C   C494      1.0  0.47619  0.27247  0.01378  1.0000
  C   C495      1.0  0.36625  0.34493  0.15250  1.0000
  C   C496      1.0  0.60717  0.42358  0.08228  1.0000
  H   H394      1.0  0.51750  0.26091  0.27665  1.0000
  H   H395      1.0  0.38002  0.36580  0.04447  1.0000
  C   C497      1.0  0.47760  0.46855  0.02848  1.0000
  C   C498      1.0  0.55631  0.14584  0.03585  1.0000
  H   H396      1.0  0.34682  0.41472  0.47803  1.0000
  C   C499      1.0  0.51091  0.28393  0.42523  1.0000
  C   C500      1.0  0.41614  0.41710  0.15327  1.0000
  H   H397      1.0  0.40266  0.42147  0.14220  1.0000
  H   H398      1.0  0.37956  0.32846  0.07737  1.0000
  C   C501      1.0  0.60346  0.43753  0.10687  1.0000
  H   H399      1.0  0.51611  0.26648  0.33741  1.0000
  C   C502      1.0  0.42625  0.38912  0.18326  1.0000
  H   H400      1.0  0.48545  0.43869  0.03880  1.0000
  H   H401      1.0  0.42930  0.41027  0.42872  1.0000
  H   H402      1.0  0.42171  0.44645  0.42864  1.0000
  P   P18       1.0  0.49189  0.05218  0.00958  1.0000
  C   C503      1.0  0.43678  0.25504  0.40152  1.0000
  H   H403      1.0  0.50797  0.07196  0.07815  1.0000
  H   H404      1.0  0.53704  0.06817  0.34789  1.0000
  H   H405      1.0  0.46152  0.11164  0.03071  1.0000
  H   H406      1.0  0.38215  0.33107  0.27888  1.0000
  C   C504      1.0  0.45200  0.40550  0.17732  1.0000
  H   H407      1.0  0.60342  0.48062  0.00164  1.0000
  C   C505      1.0  0.37044  0.32629  0.10118  1.0000
  H   H408      1.0  0.46574  0.40039  0.18554  1.0000
  H   H409      1.0  0.62347  0.08838  0.20425  1.0000
  C   C506      1.0  0.37752  0.34819  0.23460  1.0000
  C   C507      1.0  0.34510  0.41931  0.16626  1.0000
  H   H410      1.0  0.34841  0.38307  0.23257  1.0000
  C   C508      1.0  0.56356  0.07365  0.04299  1.0000
  H   H411      1.0  0.50910  0.26970  0.44266  1.0000
  C   C509      1.0  0.60938  0.06632  0.24899  1.0000
  H   H412      1.0  0.59457  0.42993  0.47935  1.0000
  C   C510      1.0  0.40803  0.39493  0.17181  1.0000
  C   C511      1.0  0.33888  0.37535  0.13611  1.0000
  C   C512      1.0  0.37830  0.34737  0.12196  1.0000
  H   H413      1.0  0.37333  0.41830  0.19716  1.0000
  C   C513      1.0  0.51545  0.22814  0.18785  1.0000
  C   C514      1.0  0.54904  0.06052  0.35432  1.0000
  H   H414      1.0  0.52006  0.45357  0.99757  1.0000
  H   H415      1.0  0.34468  0.37363  0.29227  1.0000
  H   H416      1.0  0.32349  0.28157  0.14885  1.0000
  H   H417      1.0  0.50673  0.18486  0.45812  1.0000
  C   C515      1.0  0.50992  0.46368  0.00074  1.0000
  H   H418      1.0  0.33638  0.35865  0.12337  1.0000
  C   C516      1.0  0.32502  0.38626  0.12458  1.0000
  C   C517      1.0  0.63634  0.03474  0.31202  1.0000
  H   H419      1.0  0.64269  0.19123  0.05833  1.0000
  C   C518      1.0  0.48296  0.25501  0.00104  1.0000
  H   H420      1.0  0.63527  0.46816  0.00816  1.0000
  H   H421      1.0  0.47167  0.19009  0.47936  1.0000
  H   H422      1.0  0.63225  0.42346  0.04534  1.0000
  S   S66       1.0  0.31447  0.45585  0.39136  1.0000
  H   H423      1.0  0.43213  0.45270  0.00068  1.0000
  C   C519      1.0  0.41083  0.48444  0.30760  1.0000
  C   C520      1.0  0.63838  0.14585  0.25802  1.0000
  C   C521      1.0  0.31937  0.40816  0.28125  1.0000
  C   C522      1.0  0.43300  0.24414  0.99635  1.0000
  C   C523      1.0  0.53922  0.41696  0.00118  1.0000
  C   C524      1.0  0.55662  0.42350  0.48416  1.0000
  H   H424      1.0  0.48903  0.08435  0.48292  1.0000
  H   H425      1.0  0.61558  0.04453  0.47875  1.0000
  H   H426      1.0  0.50246  0.25952  0.00290  1.0000
  C   C525      1.0  0.58570  0.46278  0.00131  1.0000
  H   H427      1.0  0.63598  0.14375  0.20404  1.0000
  H   H428      1.0  0.31733  0.41665  0.13067  1.0000
  H   H429      1.0  0.41115  0.98779  0.06058  1.0000
  S   S67       1.0  0.64386  0.12793  0.03464  1.0000
  H   H430      1.0  0.52139  0.39923  0.00074  1.0000
  H   H431      1.0  0.53105  0.48404  0.48046  1.0000
  C   C526      1.0  0.48188  0.06436  0.48671  1.0000
  C   C527      1.0  0.56910  0.13253  0.48642  1.0000
  H   H432      1.0  0.57811  0.19214  0.48853  1.0000
  C   C528      1.0  0.64675  0.46375  0.99226  1.0000
  Fe  Fe35      1.0  0.44712  0.11502  0.94238  1.0000
  S   S68       1.0  0.47420  0.11757  0.90354  1.0000
  S   S69       1.0  0.42246  0.07632  0.96745  1.0000
  Fe  Fe36      1.0  0.47016  0.17394  0.94355  1.0000
  S   S70       1.0  0.49860  0.17883  0.90362  1.0000
  H   H433      1.0  0.53920  0.10315  0.91205  1.0000
  Fe  Fe37      1.0  0.46622  0.14514  0.87726  1.0000
  S   S71       1.0  0.45572  0.13336  0.82202  1.0000
  Fe  Fe38      1.0  0.50422  0.15058  0.93274  1.0000
  S   S72       1.0  0.54256  0.15273  0.93769  1.0000
  S   S73       1.0  0.43722  0.14135  0.91541  1.0000
  H   H434      1.0  0.35914  0.21310  0.81147  1.0000
  Fe  Fe39      1.0  0.47176  0.15868  0.62191  1.0000
  S   S74       1.0  0.43208  0.13568  0.60110  1.0000
  S   S75       1.0  0.48323  0.17762  0.67377  1.0000
  Fe  Fe40      1.0  0.49501  0.15859  0.55325  1.0000
  S   S76       1.0  0.45674  0.13532  0.52880  1.0000
  H   H435      1.0  0.53889  0.38665  0.54079  1.0000
  Fe  Fe41      1.0  0.44677  0.16168  0.55600  1.0000
  S   S77       1.0  0.42686  0.18172  0.53215  1.0000
  Fe  Fe42      1.0  0.44577  0.11152  0.57573  1.0000
  S   S78       1.0  0.43229  0.06888  0.58303  1.0000
  S   S79       1.0  0.48545  0.18551  0.57841  1.0000
  S   S80       1.0  0.48515  0.13417  0.59862  1.0000
  H   H436      1.0  0.43115  0.01236  0.51908  1.0000
  H   H437      1.0  0.34491  0.38256  0.52344  1.0000
  H   H438      1.0  0.35946  0.39371  0.58846  1.0000
  C   C529      1.0  0.49516  0.06212  0.96660  1.0000
  H   H439      1.0  0.58599  0.00054  0.49717  1.0000
  H   H440      1.0  0.53854  0.04730  0.94380  1.0000
  H   H441      1.0  0.64157  0.45563  0.60548  1.0000
  C   C530      1.0  0.43780  0.21295  0.51602  1.0000
  C   C531      1.0  0.47572  0.06147  0.91318  1.0000
  H   H442      1.0  0.59375  0.12735  0.54657  1.0000
  C   C532      1.0  0.35701  0.40702  0.60339  1.0000
  C   C533      1.0  0.62833  0.20546  0.93265  1.0000
  H   H443      1.0  0.50717  0.00179  0.94639  1.0000
  C   C534      1.0  0.56622  0.29313  0.60853  1.0000
  C   C535      1.0  0.59430  0.45802  0.51155  1.0000
  H   H444      1.0  0.53858  0.42295  0.94829  1.0000
  C   C536      1.0  0.46476  0.14604  0.78109  1.0000
  C   C537      1.0  0.45376  0.12972  0.75337  1.0000
  C   C538      1.0  0.45967  0.13883  0.72042  1.0000
  C   C539      1.0  0.47642  0.16457  0.71469  1.0000
  C   C540      1.0  0.48760  0.18085  0.74240  1.0000
  C   C541      1.0  0.48194  0.17168  0.77535  1.0000
  H   H445      1.0  0.44039  0.10988  0.75743  1.0000
  H   H446      1.0  0.45081  0.12605  0.69950  1.0000
  H   H447      1.0  0.50058  0.20078  0.73836  1.0000
  H   H448      1.0  0.49065  0.18448  0.79629  1.0000
  C   C542      1.0  0.56896  0.17196  0.49248  1.0000
  C   C543      1.0  0.57539  0.44615  0.62705  1.0000
  C   C544      1.0  0.57908  0.46628  0.52621  1.0000
  C   C545      1.0  0.32990  0.17465  0.82094  1.0000
  H   H449      1.0  0.35632  0.99799  0.52714  1.0000
  C   C546      1.0  0.31764  0.43058  0.53734  1.0000
  C   C547      1.0  0.53393  0.13336  0.51394  1.0000
  C   C548      1.0  0.58850  0.12993  0.64702  1.0000
  H   H450      1.0  0.51588  0.12350  0.52642  1.0000
  H   H451      1.0  0.54476  0.47542  0.86011  1.0000
  C   C549      1.0  0.55796  0.09077  0.58324  1.0000
  H   H452      1.0  0.55554  0.38122  0.59495  1.0000
  H   H453      1.0  0.47174  0.00615  0.96869  1.0000
  C   C550      1.0  0.37428  0.12750  0.88466  1.0000
  H   H454      1.0  0.42537  0.20896  0.97277  1.0000
  S   S81       1.0  0.47778  0.14708  0.97348  1.0000
  C   C551      1.0  0.40522  0.04475  0.95090  1.0000
  C   C552      1.0  0.39433  0.03945  0.91894  1.0000
  H   H455      1.0  0.36796  0.01054  0.88483  1.0000
  C   C553      1.0  0.35889  0.42879  0.58918  1.0000
  C   C554      1.0  0.38927  0.02913  0.55104  1.0000
  C   C555      1.0  0.40940  0.03635  0.57364  1.0000
  C   C556      1.0  0.41173  0.01709  0.58937  1.0000
  H   H456      1.0  0.38710  0.04352  0.53857  1.0000
  H   H457      1.0  0.42723  0.02232  0.60672  1.0000
  H   H458      1.0  0.57334  0.29254  0.58412  1.0000
  C   C557      1.0  0.38017  0.41830  0.52890  1.0000
  C   C558      1.0  0.53373  0.27755  0.54164  1.0000
  C   C559      1.0  0.57241  0.45331  0.97121  1.0000
  H   H459      1.0  0.51473  0.34975  0.50307  1.0000
  C   C560      1.0  0.45857  0.04944  0.50221  1.0000
  H   H460      1.0  0.48467  0.35021  0.64973  1.0000
  C   C561      1.0  0.62115  0.18284  0.59061  1.0000
  C   C562      1.0  0.37475  0.18892  0.81914  1.0000
  H   H461      1.0  0.54391  0.46053  0.77594  1.0000
  C   C563      1.0  0.61444  0.14205  0.65528  1.0000
  C   C564      1.0  0.39243  0.11203  0.84406  1.0000
  C   C565      1.0  0.33246  0.41708  0.49020  1.0000
  H   H462      1.0  0.40003  0.20624  0.50769  1.0000
  C   C566      1.0  0.46385  0.01278  0.49771  1.0000
  P   P19       1.0  0.36545  0.43527  0.54529  1.0000
  H   H463      1.0  0.39205  0.07785  0.85699  1.0000
  C   C567      1.0  0.43960  0.21619  0.89316  1.0000
  C   C568      1.0  0.46394  0.22075  0.88653  1.0000
  C   C569      1.0  0.46741  0.20651  0.86213  1.0000
  C   C570      1.0  0.44655  0.18762  0.84448  1.0000
  C   C571      1.0  0.42212  0.18337  0.85031  1.0000
  C   C572      1.0  0.41870  0.19739  0.87541  1.0000
  P   P20       1.0  0.39510  0.15784  0.82899  1.0000
  C   C573      1.0  0.40182  0.15428  0.78613  1.0000
  C   C574      1.0  0.38647  0.13137  0.76900  1.0000
  C   C575      1.0  0.39132  0.12860  0.73567  1.0000
  C   C576      1.0  0.41115  0.14886  0.71901  1.0000
  C   C577      1.0  0.42598  0.17196  0.73553  1.0000
  C   C578      1.0  0.42123  0.17479  0.76885  1.0000
  H   H464      1.0  0.43697  0.22686  0.91272  1.0000
  H   H465      1.0  0.47999  0.23477  0.90111  1.0000
  H   H466      1.0  0.48620  0.20963  0.85750  1.0000
  H   H467      1.0  0.44945  0.17611  0.82661  1.0000
  H   H468      1.0  0.39994  0.19356  0.88178  1.0000
  H   H469      1.0  0.40267  0.11421  0.82128  1.0000
  H   H470      1.0  0.37988  0.11068  0.72282  1.0000
  H   H471      1.0  0.41533  0.14660  0.69341  1.0000
  H   H472      1.0  0.44155  0.18751  0.72260  1.0000
  H   H473      1.0  0.43284  0.19293  0.78100  1.0000
  H   H474      1.0  0.39410  0.20408  0.81545  1.0000
  C   C579      1.0  0.44939  0.02368  0.50721  1.0000
  C   C580      1.0  0.39419  0.99113  0.58303  1.0000
  C   C581      1.0  0.46356  0.23090  0.51284  1.0000
  C   C582      1.0  0.40663  0.43051  0.52534  1.0000
  H   H475      1.0  0.62270  0.45687  0.94933  1.0000
  C   C583      1.0  0.64198  0.19708  0.57004  1.0000
  H   H476      1.0  0.59476  0.46966  0.67042  1.0000
  H   H477      1.0  0.47530  0.28801  0.56174  1.0000
  C   C584      1.0  0.62786  0.16094  0.53337  1.0000
  H   H478      1.0  0.49010  0.07957  0.56985  1.0000
  C   C585      1.0  0.56920  0.04339  0.96330  1.0000
  H   H479      1.0  0.36519  0.35944  0.50153  1.0000
  C   C586      1.0  0.54552  0.15938  0.50887  1.0000
  C   C587      1.0  0.44632  0.25335  0.58224  1.0000
  C   C588      1.0  0.38578  0.48029  0.50994  1.0000
  C   C589      1.0  0.36532  0.39244  0.52085  1.0000
  C   C590      1.0  0.42693  0.04296  0.67745  1.0000
  C   C591      1.0  0.44561  0.05864  0.70049  1.0000
  C   C592      1.0  0.44911  0.04843  0.72972  1.0000
  C   C593      1.0  0.43384  0.02253  0.73599  1.0000
  C   C594      1.0  0.41460  0.00663  0.71328  1.0000
  C   C595      1.0  0.41150  0.01709  0.68372  1.0000
  H   H480      1.0  0.55604  0.31355  0.51686  1.0000
  C   C596      1.0  0.40036  0.02423  0.97155  1.0000
  C   C597      1.0  0.57925  0.10263  0.69506  1.0000
  C   C598      1.0  0.54348  0.45663  0.74946  1.0000
  H   H481      1.0  0.54115  0.45979  0.53125  1.0000
  C   C599      1.0  0.42006  0.21982  0.50549  1.0000
  H   H482      1.0  0.59203  0.20289  0.92662  1.0000
  H   H483      1.0  0.64268  0.14391  0.68944  1.0000
  C   C600      1.0  0.37749  0.01417  0.90873  1.0000
  C   C601      1.0  0.59914  0.18380  0.88679  1.0000
  H   H484      1.0  0.35973  0.10507  0.92904  1.0000
  C   C602      1.0  0.45374  0.26201  0.48875  1.0000
  H   H485      1.0  0.47738  0.22592  0.52050  1.0000
  H   H486      1.0  0.42421  0.05092  0.65473  1.0000
  C   C603      1.0  0.41795  0.41711  0.51350  1.0000
  H   H487      1.0  0.43679  0.01502  0.75888  1.0000
  H   H488      1.0  0.39705  0.00568  0.66550  1.0000
  H   H489      1.0  0.60503  0.43118  0.56715  1.0000
  C   C604      1.0  0.60707  0.14662  0.55392  1.0000
  C   C605      1.0  0.54860  0.25786  0.48873  1.0000
  C   C606      1.0  0.40462  0.48356  0.56432  1.0000
  C   C607      1.0  0.55276  0.45323  0.51982  1.0000
  C   C608      1.0  0.37178  0.00318  0.54459  1.0000
  H   H490      1.0  0.52779  0.22211  0.51374  1.0000
  C   C609      1.0  0.53501  0.46799  0.72671  1.0000
  C   C610      1.0  0.51455  0.06399  0.56432  1.0000
  H   H491      1.0  0.61090  0.16561  0.85110  1.0000
  H   H492      1.0  0.53691  0.10003  0.50757  1.0000
  C   C611      1.0  0.54538  0.36523  0.57818  1.0000
  C   C612      1.0  0.54162  0.34152  0.58704  1.0000
  C   C613      1.0  0.52844  0.32064  0.56542  1.0000
  C   C614      1.0  0.51879  0.32390  0.53514  1.0000
  P   P21       1.0  0.52405  0.28995  0.57597  1.0000
  C   C615      1.0  0.54310  0.29254  0.61205  1.0000
  H   H493      1.0  0.61885  0.19161  0.61276  1.0000
  C   C616      1.0  0.58020  0.29396  0.63676  1.0000
  C   C617      1.0  0.57128  0.29435  0.66862  1.0000
  C   C618      1.0  0.54845  0.29407  0.67230  1.0000
  C   C619      1.0  0.53442  0.29323  0.64415  1.0000
  C   C620      1.0  0.60544  0.19819  0.91609  1.0000
  C   C621      1.0  0.45215  0.99218  0.57326  1.0000
  H   H494      1.0  0.54915  0.33967  0.61063  1.0000
  H   H495      1.0  0.50834  0.30815  0.51816  1.0000
  H   H496      1.0  0.57674  0.09351  0.58716  1.0000
  H   H497      1.0  0.50558  0.99828  0.51959  1.0000
  C   C622      1.0  0.64536  0.18610  0.54143  1.0000
  H   H498      1.0  0.61148  0.10905  0.72483  1.0000
  H   H499      1.0  0.62847  0.15715  0.64017  1.0000
  C   C623      1.0  0.51697  0.46130  0.60553  1.0000
  C   C624      1.0  0.62305  0.45262  0.61177  1.0000
  C   C625      1.0  0.51618  0.48496  0.98146  1.0000
  P   P22       1.0  0.57744  0.13907  0.61074  1.0000
  C   C626      1.0  0.55288  0.11000  0.59167  1.0000
  C   C627      1.0  0.52660  0.00831  0.95364  1.0000
  C   C628      1.0  0.54934  0.29350  0.51629  1.0000
  C   C629      1.0  0.60243  0.43879  0.59025  1.0000
  C   C630      1.0  0.50907  0.08266  0.57360  1.0000
  S   S82       1.0  0.47451  0.21042  0.96957  1.0000
  C   C631      1.0  0.34427  0.14485  0.82985  1.0000
  C   C632      1.0  0.52817  0.10561  0.58713  1.0000
  H   H500      1.0  0.35041  0.38528  0.64813  1.0000
  H   H501      1.0  0.45473  0.04056  0.95560  1.0000
  C   C633      1.0  0.53896  0.06800  0.56918  1.0000
  C   C634      1.0  0.56408  0.15833  0.62259  1.0000
  C   C635      1.0  0.56259  0.17441  0.59905  1.0000
  C   C636      1.0  0.55166  0.18890  0.60744  1.0000
  C   C637      1.0  0.54182  0.18720  0.63923  1.0000
  C   C638      1.0  0.54289  0.17101  0.66271  1.0000
  C   C639      1.0  0.55406  0.15666  0.65453  1.0000
  H   H502      1.0  0.55090  0.10034  0.66105  1.0000
  H   H503      1.0  0.49996  0.04653  0.55305  1.0000
  H   H504      1.0  0.35675  0.46243  0.59913  1.0000
  C   C640      1.0  0.57099  0.11006  0.66705  1.0000
  C   C641      1.0  0.48531  0.24567  0.60418  1.0000
  C   C642      1.0  0.49236  0.36609  0.63283  1.0000
  C   C643      1.0  0.61592  0.17692  0.87371  1.0000
  H   H505      1.0  0.52357  0.11991  0.59362  1.0000
  H   H506      1.0  0.59777  0.29389  0.63396  1.0000
  C   C644      1.0  0.38322  0.46162  0.98163  1.0000
  H   H507      1.0  0.56945  0.17545  0.57393  1.0000
  H   H508      1.0  0.55021  0.20093  0.58892  1.0000
  H   H509      1.0  0.53286  0.19804  0.64546  1.0000
  H   H510      1.0  0.53460  0.16932  0.68706  1.0000
  H   H511      1.0  0.55445  0.14411  0.67302  1.0000
  C   C645      1.0  0.49417  0.38267  0.57770  1.0000
  C   C646      1.0  0.46005  0.22751  0.61042  1.0000
  C   C647      1.0  0.43971  0.22661  0.98394  1.0000
  C   C648      1.0  0.51033  0.39034  0.64435  1.0000
  C   C649      1.0  0.52034  0.41100  0.62258  1.0000
  C   C650      1.0  0.51229  0.40684  0.58903  1.0000
  P   P23       1.0  0.54476  0.44224  0.63644  1.0000
  C   C651      1.0  0.54121  0.46577  0.61412  1.0000
  C   C652      1.0  0.54291  0.44688  0.68077  1.0000
  C   C653      1.0  0.53467  0.46314  0.69252  1.0000
  H   H512      1.0  0.33975  0.12560  0.83433  1.0000
  S   S83       1.0  0.62742  0.47357  0.51927  1.0000
  C   C654      1.0  0.55153  0.44031  0.73806  1.0000
  C   C655      1.0  0.55125  0.43544  0.70390  1.0000
  H   H513      1.0  0.49139  0.26813  0.49621  1.0000
  H   H514      1.0  0.45200  0.00139  0.62511  1.0000
  C   C656      1.0  0.47141  0.25496  0.49895  1.0000
  H   H515      1.0  0.39797  0.05489  0.90271  1.0000
  C   C657      1.0  0.54428  0.03423  0.95243  1.0000
  H   H516      1.0  0.37312  0.46912  0.48988  1.0000
  C   C658      1.0  0.58293  0.43649  0.49071  1.0000
  C   C659      1.0  0.35547  0.44554  0.60951  1.0000
  C   C660      1.0  0.52100  0.08846  0.92114  1.0000
  H   H517      1.0  0.43829  0.42663  0.51003  1.0000
  C   C661      1.0  0.49948  0.07904  0.90069  1.0000
  C   C662      1.0  0.47158  0.27155  0.57586  1.0000
  C   C663      1.0  0.52250  0.34757  0.52641  1.0000
  H   H518      1.0  0.58277  0.06353  0.96329  1.0000
  H   H519      1.0  0.51626  0.39276  0.67018  1.0000
  C   C664      1.0  0.62264  0.13452  0.68328  1.0000
  H   H520      1.0  0.58758  0.48269  0.54253  1.0000
  C   C665      1.0  0.33621  0.42654  0.52297  1.0000
  C   C666      1.0  0.54577  0.12007  0.50297  1.0000
  H   H521      1.0  0.55826  0.43165  0.75574  1.0000
  H   H522      1.0  0.55807  0.42315  0.69549  1.0000
  C   C667      1.0  0.54907  0.43044  0.97139  1.0000
  H   H523      1.0  0.44761  0.05783  0.51056  1.0000
  C   C668      1.0  0.38674  0.46879  0.53955  1.0000
  C   C669      1.0  0.44055  0.23122  0.59918  1.0000
  H   H524      1.0  0.50013  0.44373  0.61214  1.0000
  H   H525      1.0  0.58096  0.17759  0.87473  1.0000
  H   H526      1.0  0.58192  0.29458  0.69049  1.0000
  C   C670      1.0  0.39678  0.44923  0.98683  1.0000
  H   H527      1.0  0.63231  0.21602  0.95576  1.0000
  H   H528      1.0  0.45557  0.21018  0.62321  1.0000
  C   C671      1.0  0.59634  0.46038  0.64833  1.0000
  H   H529      1.0  0.50003  0.24215  0.61288  1.0000
  C   C672      1.0  0.42790  0.24414  0.49231  1.0000
  C   C673      1.0  0.60353  0.15741  0.58279  1.0000
  C   C674      1.0  0.37447  0.08869  0.89488  1.0000
  C   C675      1.0  0.36955  0.16437  0.82636  1.0000
  C   C676      1.0  0.63960  0.45743  0.95887  1.0000
  C   C677      1.0  0.57876  0.43575  0.59766  1.0000
  H   H530      1.0  0.37089  0.11555  0.78145  1.0000
  H   H531      1.0  0.47044  0.34349  0.59053  1.0000
  H   H532      1.0  0.41859  0.45038  0.53130  1.0000
  C   C678      1.0  0.36837  0.10678  0.90499  1.0000
  H   H533      1.0  0.58613  0.14785  0.95039  1.0000
  H   H534      1.0  0.48809  0.37976  0.55173  1.0000
  H   H535      1.0  0.34773  0.45360  0.65896  1.0000
  C   C679      1.0  0.37671  0.37917  0.50886  1.0000
  C   C680      1.0  0.38608  0.13011  0.85382  1.0000
  C   C681      1.0  0.53388  0.99125  0.96500  1.0000
  C   C682      1.0  0.49132  0.26764  0.58620  1.0000
  H   H536      1.0  0.50104  0.08625  0.87567  1.0000
  H   H537      1.0  0.52883  0.48068  0.73563  1.0000
  C   C683      1.0  0.38651  0.09135  0.86443  1.0000
  C   C684      1.0  0.53378  0.24207  0.51434  1.0000
  S   S84       1.0  0.58423  0.46910  0.93274  1.0000
  C   C685      1.0  0.51888  0.08013  0.95398  1.0000
  C   C686      1.0  0.55657  0.28362  0.48984  1.0000
  C   C687      1.0  0.53599  0.36830  0.54776  1.0000
  C   C688      1.0  0.57768  0.14718  0.97422  1.0000
  H   H538      1.0  0.37052  0.07303  0.91110  1.0000
  H   H539      1.0  0.40638  0.47499  0.58694  1.0000
  H   H540      1.0  0.63019  0.15254  0.51087  1.0000
  H   H541      1.0  0.45882  0.05507  0.89791  1.0000
  C   C689      1.0  0.52659  0.25189  0.54078  1.0000
  C   C690      1.0  0.60507  0.11486  0.70318  1.0000
  H   H542      1.0  0.52004  0.42220  0.57135  1.0000
  C   C691      1.0  0.61995  0.46329  0.64087  1.0000
  H   H543      1.0  0.56562  0.08733  0.71043  1.0000
  S   S85       1.0  0.53146  0.17680  0.52312  1.0000
  H   H544      1.0  0.46348  0.06068  0.74771  1.0000
  C   C692      1.0  0.34854  0.41891  0.65736  1.0000
  H   H545      1.0  0.38633  0.00336  0.77241  1.0000
  H   H546      1.0  0.51658  0.29268  0.64743  1.0000
  H   H547      1.0  0.43114  0.25589  0.57279  1.0000
  C   C693      1.0  0.35034  0.44061  0.64344  1.0000
  H   H548      1.0  0.51523  0.23923  0.56027  1.0000
  H   H549      1.0  0.56338  0.42582  0.57992  1.0000
  C   C694      1.0  0.37222  0.99365  0.92955  1.0000
  C   C695      1.0  0.48428  0.36227  0.59953  1.0000
  H   H550      1.0  0.54324  0.05357  0.56181  1.0000
  H   H551      1.0  0.38710  0.42876  0.98515  1.0000
  H   H552      1.0  0.45726  0.07875  0.69572  1.0000
  H   H553      1.0  0.42095  0.21664  0.60284  1.0000
  H   H554      1.0  0.54140  0.29408  0.69702  1.0000
  C   C696      1.0  0.40300  0.39146  0.50534  1.0000
  C   C697      1.0  0.38438  0.99888  0.96076  1.0000
  C   C698      1.0  0.47351  0.05321  0.94604  1.0000
  H   H555      1.0  0.37017  0.14177  0.89333  1.0000
  C   C699      1.0  0.55886  0.00066  0.97635  1.0000
  H   H556      1.0  0.34453  0.41508  0.68366  1.0000
  H   H557      1.0  0.63558  0.11292  0.95290  1.0000
  H   H558      1.0  0.32019  0.43854  0.56208  1.0000
  C   C700      1.0  0.55548  0.14868  0.97538  1.0000
  S   S86       1.0  0.50817  0.41590  0.49191  1.0000
  C   C701      1.0  0.35187  0.40214  0.63735  1.0000
  C   C702      1.0  0.35499  0.19406  0.81670  1.0000
  H   H559      1.0  0.36308  0.45076  0.97597  1.0000
  H   H560      1.0  0.63409  0.15222  0.94843  1.0000
  H   H561      1.0  0.45936  0.01150  0.56587  1.0000
  H   H562      1.0  0.41170  0.38122  0.49530  1.0000
  C   C703      1.0  0.64516  0.19828  0.92000  1.0000
  H   H563      1.0  0.49562  0.47572  0.58065  1.0000
  C   C704      1.0  0.63885  0.18411  0.89023  1.0000
  H   H564      1.0  0.53572  0.08847  0.96950  1.0000
  H   H565      1.0  0.37942  0.99857  0.83320  1.0000
  H   H566      1.0  0.63601  0.47428  0.65736  1.0000
  C   C705      1.0  0.32454  0.15003  0.82736  1.0000
  C   C706      1.0  0.54142  0.43186  0.49866  1.0000
  H   H567      1.0  0.52826  0.47239  0.67547  1.0000
  C   C707      1.0  0.51431  0.47946  0.58793  1.0000
  C   C708      1.0  0.57647  0.02662  0.97522  1.0000
  H   H568      1.0  0.59568  0.03392  0.98438  1.0000
  H   H569      1.0  0.31459  0.17864  0.81906  1.0000
  C   C709      1.0  0.38570  0.98740  0.78480  1.0000
  C   C710      1.0  0.44811  0.98657  0.60716  1.0000
  H   H570      1.0  0.56460  0.98803  0.98673  1.0000
  C   C711      1.0  0.46486  0.23188  0.98585  1.0000
  C   C712      1.0  0.60449  0.92140  0.15419  1.0000
  S   S87       1.0  0.40102  0.54130  0.06426  1.0000
  Fe  Fe43      1.0  0.48993  0.87037  0.43815  1.0000
  S   S88       1.0  0.32786  0.50658  0.09364  1.0000
  S   S89       1.0  0.44989  0.86379  0.44469  1.0000
  Fe  Fe44      1.0  0.52702  0.87819  0.38167  1.0000
  S   S90       1.0  0.55797  0.88670  0.41917  1.0000
  S   S91       1.0  0.54134  0.88500  0.32775  1.0000
  Fe  Fe45      1.0  0.52882  0.85289  0.44832  1.0000
  H   H571      1.0  0.46178  0.95965  0.06578  1.0000
  Fe  Fe46      1.0  0.54563  0.91099  0.44588  1.0000
  C   C713      1.0  0.44818  0.52462  0.10559  1.0000
  S   S92       1.0  0.49828  0.84359  0.40925  1.0000
  S   S93       1.0  0.51619  0.90407  0.40720  1.0000
  Fe  Fe47      1.0  0.49463  0.86377  0.05938  1.0000
  S   S94       1.0  0.53486  0.88217  0.04127  1.0000
  S   S95       1.0  0.46425  0.85371  0.01958  1.0000
  Fe  Fe48      1.0  0.50989  0.85774  0.13059  1.0000
  S   S96       1.0  0.55061  0.87493  0.11585  1.0000
  S   S97       1.0  0.49440  0.84178  0.18244  1.0000
  Fe  Fe49      1.0  0.54516  0.90444  0.08960  1.0000
  S   S98       1.0  0.57056  0.94624  0.10526  1.0000
  Fe  Fe50      1.0  0.53622  0.85068  0.06894  1.0000
  S   S99       1.0  0.55453  0.82886  0.04600  1.0000
  S   S100      1.0  0.50455  0.88765  0.10585  1.0000
  S   S101      1.0  0.49578  0.83183  0.08532  1.0000
  H   H572      1.0  0.53763  0.59601  0.00892  1.0000
  H   H573      1.0  0.59561  0.92315  0.33195  1.0000
  H   H574      1.0  0.39710  0.52859  0.33593  1.0000
  H   H575      1.0  0.58555  0.96472  0.03666  1.0000
  H   H576      1.0  0.54916  0.78078  0.45162  1.0000
  C   C714      1.0  0.54394  0.79847  0.02648  1.0000
  H   H577      1.0  0.44098  0.97423  0.43473  1.0000
  C   C715      1.0  0.44559  0.50076  0.46747  1.0000
  C   C716      1.0  0.42355  0.56834  0.46640  1.0000
  C   C717      1.0  0.41320  0.88806  0.00821  1.0000
  C   C718      1.0  0.41959  0.66882  0.05030  1.0000
  C   C719      1.0  0.56111  0.79496  0.00713  1.0000
  H   H578      1.0  0.51623  0.81522  0.14507  1.0000
  C   C720      1.0  0.48379  0.75422  0.44421  1.0000
  H   H579      1.0  0.58907  0.65167  0.45182  1.0000
  C   C721      1.0  0.52699  0.87330  0.28778  1.0000
  C   C722      1.0  0.54072  0.88586  0.25915  1.0000
  C   C723      1.0  0.53096  0.87681  0.22680  1.0000
  C   C724      1.0  0.50727  0.85481  0.22263  1.0000
  C   C725      1.0  0.49346  0.84230  0.25128  1.0000
  C   C726      1.0  0.50314  0.85153  0.28364  1.0000
  H   H580      1.0  0.55902  0.90281  0.26208  1.0000
  H   H581      1.0  0.54181  0.88674  0.20511  1.0000
  H   H582      1.0  0.47512  0.82529  0.24840  1.0000
  H   H583      1.0  0.49233  0.84159  0.30533  1.0000
  C   C727      1.0  0.35414  0.87002  0.44752  1.0000
  C   C728      1.0  0.34967  0.82843  0.44251  1.0000
  S   S102      1.0  0.32139  0.51098  0.41497  1.0000
  C   C729      1.0  0.39728  0.66926  0.04350  1.0000
  C   C730      1.0  0.51695  0.95065  0.03616  1.0000
  C   C731      1.0  0.41541  0.55596  0.02610  1.0000
  S   S103      1.0  0.39552  0.90335  0.00290  1.0000
  H   H584      1.0  0.43662  0.75764  0.06188  1.0000
  C   C732      1.0  0.48231  0.55004  0.45002  1.0000
  H   H585      1.0  0.44706  0.73036  0.02775  1.0000
  C   C733      1.0  0.44173  0.57289  0.02558  1.0000
  C   C734      1.0  0.58326  0.82439  0.15816  1.0000
  C   C735      1.0  0.41976  0.97324  0.01685  1.0000
  Fe  Fe51      1.0  0.35459  0.51642  0.44618  1.0000
  H   H586      1.0  0.48732  0.95162  0.10711  1.0000
  C   C736      1.0  0.44463  0.86702  0.01619  1.0000
  C   C737      1.0  0.47726  0.95724  0.05755  1.0000
  C   C738      1.0  0.44616  0.88502  0.03904  1.0000
  C   C739      1.0  0.48262  0.95828  0.02357  1.0000
  H   H587      1.0  0.45953  0.89101  0.05965  1.0000
  C   C740      1.0  0.59052  0.98076  0.05283  1.0000
  C   C741      1.0  0.58480  0.97685  0.08678  1.0000
  C   C742      1.0  0.50665  0.55736  0.01186  1.0000
  H   H588      1.0  0.45340  0.68457  0.08158  1.0000
  H   H589      1.0  0.40753  0.87077  0.45620  1.0000
  H   H590      1.0  0.34497  0.51271  0.19859  1.0000
  H   H591      1.0  0.37343  0.48816  0.18539  1.0000
  H   H592      1.0  0.35958  0.93172  0.43082  1.0000
  C   C743      1.0  0.57453  0.63344  0.46092  1.0000
  H   H593      1.0  0.41632  0.55692  0.44397  1.0000
  H   H594      1.0  0.53271  0.94850  0.02853  1.0000
  H   H595      1.0  0.36928  0.57155  0.09155  1.0000
  H   H596      1.0  0.37351  0.89577  0.40737  1.0000
  H   H597      1.0  0.49240  0.65000  0.40790  1.0000
  H   H598      1.0  0.42262  0.80831  0.43056  1.0000
  S   S104      1.0  0.56911  0.95140  0.46823  1.0000
  C   C744      1.0  0.40242  0.79492  0.43234  1.0000
  C   C745      1.0  0.60356  0.93726  0.17848  1.0000
  H   H599      1.0  0.56052  0.95331  0.24736  1.0000
  H   H600      1.0  0.49858  0.50939  0.07319  1.0000
  C   C746      1.0  0.55135  0.83487  0.17279  1.0000
  C   C747      1.0  0.35032  0.76073  0.43703  1.0000
  H   H601      1.0  0.61942  0.96940  0.34307  1.0000
  H   H602      1.0  0.60057  0.80907  0.36633  1.0000
  H   H603      1.0  0.47398  0.59949  0.99659  1.0000
  C   C748      1.0  0.43682  0.97849  0.99096  1.0000
  C   C749      1.0  0.59484  0.85339  0.41031  1.0000
  H   H604      1.0  0.59955  0.89416  0.37017  1.0000
  C   C750      1.0  0.50533  0.95029  0.47659  1.0000
  H   H605      1.0  0.45743  0.65443  0.42948  1.0000
  C   C751      1.0  0.42301  0.96424  0.44753  1.0000
  H   H606      1.0  0.44226  0.54960  0.35333  1.0000
  S   S105      1.0  0.34365  0.51205  0.32137  1.0000
  C   C752      1.0  0.48481  0.53789  0.99607  1.0000
  C   C753      1.0  0.43741  0.86869  0.48204  1.0000
  C   C754      1.0  0.43485  0.48945  0.99980  1.0000
  H   H607      1.0  0.37109  0.65392  0.43057  1.0000
  H   H608      1.0  0.54100  0.57145  0.43782  1.0000
  C   C755      1.0  0.55610  0.96031  0.33071  1.0000
  C   C756      1.0  0.42394  0.66020  0.46909  1.0000
  H   H609      1.0  0.49762  0.76531  0.42544  1.0000
  C   C757      1.0  0.63143  0.84649  0.37869  1.0000
  H   H610      1.0  0.48720  0.72152  0.43629  1.0000
  H   H611      1.0  0.38876  0.59646  0.45500  1.0000
  C   C758      1.0  0.51992  0.67638  0.44311  1.0000
  H   H612      1.0  0.44794  0.48821  0.31113  1.0000
  C   C759      1.0  0.44149  0.51221  0.44003  1.0000
  H   H613      1.0  0.60204  0.82702  0.16055  1.0000
  H   H614      1.0  0.33048  0.84923  0.00921  1.0000
  C   C760      1.0  0.60840  0.93072  0.35325  1.0000
  C   C761      1.0  0.33577  0.49686  0.28143  1.0000
  C   C762      1.0  0.54720  0.58821  0.45313  1.0000
  C   C763      1.0  0.46406  0.79666  0.99610  1.0000
  H   H615      1.0  0.56813  0.81530  0.39472  1.0000
  S   S106      1.0  0.51875  0.87802  0.47856  1.0000
  C   C764      1.0  0.47572  0.66470  0.44176  1.0000
  C   C765      1.0  0.43651  0.49655  0.31709  1.0000
  C   C766      1.0  0.60281  0.89861  0.16333  1.0000
  C   C767      1.0  0.35999  0.78630  0.44542  1.0000
  C   C768      1.0  0.40862  0.70154  0.08601  1.0000
  C   C769      1.0  0.61074  0.91427  0.37507  1.0000
  C   C770      1.0  0.37713  0.94027  0.44511  1.0000
  H   H616      1.0  0.37968  0.86479  0.37500  1.0000
  C   C771      1.0  0.60609  0.82693  0.37860  1.0000
  H   H617      1.0  0.46755  0.52909  0.34135  1.0000
  C   C772      1.0  0.34646  0.85106  0.05785  1.0000
  C   C773      1.0  0.37640  0.93915  0.47987  1.0000
  C   C774      1.0  0.35753  0.56713  0.04012  1.0000
  H   H618      1.0  0.43158  0.90922  0.05292  1.0000
  C   C775      1.0  0.31639  0.83357  0.10301  1.0000
  H   H619      1.0  0.39990  0.51511  0.48313  1.0000
  C   C776      1.0  0.60340  0.91496  0.47914  1.0000
  C   C777      1.0  0.63000  0.84373  0.22024  1.0000
  H   H620      1.0  0.35936  0.60875  0.43068  1.0000
  H   H621      1.0  0.59796  0.90300  0.24744  1.0000
  P   P24       1.0  0.46718  0.50720  0.01556  1.0000
  C   C778      1.0  0.63855  0.86943  0.39493  1.0000
  H   H622      1.0  0.51784  0.94328  0.47001  1.0000
  H   H623      1.0  0.40619  0.48860  0.14908  1.0000
  H   H624      1.0  0.47142  0.96194  0.00600  1.0000
  C   C779      1.0  0.49160  0.95271  0.08080  1.0000
  C   C780      1.0  0.39923  0.61615  0.03158  1.0000
  H   H625      1.0  0.52280  0.94625  0.08814  1.0000
  C   C781      1.0  0.56906  0.84612  0.31684  1.0000
  H   H626      1.0  0.44374  0.71337  0.11239  1.0000
  C   C782      1.0  0.54274  0.80412  0.12909  1.0000
  C   C783      1.0  0.43356  0.53138  0.34081  1.0000
  H   H627      1.0  0.64681  0.89892  0.18004  1.0000
  C   C784      1.0  0.39347  0.60504  0.06326  1.0000
  H   H628      1.0  0.60844  0.86938  0.33038  1.0000
  C   C785      1.0  0.46580  0.52431  0.12762  1.0000
  C   C786      1.0  0.60150  0.93062  0.21208  1.0000
  H   H629      1.0  0.51512  0.83053  0.98966  1.0000
  H   H630      1.0  0.34187  0.54796  0.04315  1.0000
  H   H631      1.0  0.51928  0.69331  0.03910  1.0000
  C   C787      1.0  0.62735  0.86326  0.20637  1.0000
  H   H632      1.0  0.60463  0.85993  0.47884  1.0000
  H   H633      1.0  0.40437  0.71414  0.09987  1.0000
  H   H634      1.0  0.60294  0.88626  0.14403  1.0000
  C   C788      1.0  0.36998  0.85944  0.39868  1.0000
  C   C789      1.0  0.47999  0.63287  0.06428  1.0000
  H   H635      1.0  0.54385  0.92793  0.29857  1.0000
  H   H636      1.0  0.35607  0.53219  0.25526  1.0000
  H   H637      1.0  0.49576  0.56942  0.44352  1.0000
  C   C790      1.0  0.59998  0.90791  0.22135  1.0000
  H   H638      1.0  0.43969  0.61212  0.05826  1.0000
  H   H639      1.0  0.45609  0.54611  0.41108  1.0000
  C   C791      1.0  0.45970  0.53693  0.43158  1.0000
  C   C792      1.0  0.47857  0.67318  0.03444  1.0000
  H   H640      1.0  0.51298  0.55427  0.03569  1.0000
  H   H641      1.0  0.52059  0.65751  0.06559  1.0000
  C   C793      1.0  0.51951  0.77758  0.03069  1.0000
  H   H642      1.0  0.45283  0.57590  0.04801  1.0000
  C   C794      1.0  0.36661  0.75240  0.42629  1.0000
  C   C795      1.0  0.60025  0.89155  0.19695  1.0000
  H   H643      1.0  0.50603  0.77968  0.04562  1.0000
  C   C796      1.0  0.49570  0.66248  0.42891  1.0000
  C   C797      1.0  0.56258  0.96271  0.27112  1.0000
  C   C798      1.0  0.52972  0.75032  0.99651  1.0000
  C   C799      1.0  0.44775  0.51984  0.33398  1.0000
  C   C800      1.0  0.37294  0.58050  0.06738  1.0000
  C   C801      1.0  0.51263  0.75374  0.01616  1.0000
  C   C802      1.0  0.42242  0.96310  0.48249  1.0000
  C   C803      1.0  0.47988  0.93686  0.46667  1.0000
  H   H644      1.0  0.53037  0.79159  0.10951  1.0000
  C   C804      1.0  0.59493  0.86068  0.31009  1.0000
  H   H645      1.0  0.60400  0.95447  0.17103  1.0000
  C   C805      1.0  0.34454  0.51185  0.25263  1.0000
  H   H646      1.0  0.49759  0.51857  0.13277  1.0000
  H   H647      1.0  0.64558  0.84378  0.36638  1.0000
  Fe  Fe52      1.0  0.33653  0.49637  0.37452  1.0000
  C   C806      1.0  0.43035  0.89534  0.03515  1.0000
  C   C807      1.0  0.36140  0.83522  0.41124  1.0000
  C   C808      1.0  0.45154  0.74875  0.01869  1.0000
  H   H648      1.0  0.35688  0.85011  0.10889  1.0000
  H   H649      1.0  0.40266  0.95478  0.01815  1.0000
  C   C809      1.0  0.50253  0.65562  0.05885  1.0000
  C   C810      1.0  0.43079  0.70109  0.09308  1.0000
  Fe  Fe53      1.0  0.36119  0.50694  0.06892  1.0000
  H   H650      1.0  0.48057  0.61709  0.07532  1.0000
  S   S107      1.0  0.37348  0.54771  0.48540  1.0000
  C   C811      1.0  0.47795  0.72944  0.45068  1.0000
  C   C812      1.0  0.50180  0.67578  0.04399  1.0000
  C   C813      1.0  0.50232  0.95473  0.01258  1.0000
  H   H651      1.0  0.46568  0.52883  0.15374  1.0000
  C   C814      1.0  0.44570  0.76410  0.03798  1.0000
  H   H652      1.0  0.54536  0.84618  0.18643  1.0000
  H   H653      1.0  0.53540  0.67463  0.43327  1.0000
  C   C815      1.0  0.43626  0.68475  0.07539  1.0000
  H   H654      1.0  0.54924  0.94907  0.35314  1.0000
  H   H655      1.0  0.60053  0.94282  0.23087  1.0000
  C   C816      1.0  0.53486  0.81755  0.14891  1.0000
  C   C817      1.0  0.34138  0.84535  0.09161  1.0000
  H   H656      1.0  0.37701  0.48751  0.30690  1.0000
  C   C818      1.0  0.60327  0.86463  0.27713  1.0000
  P   P25       1.0  0.42623  0.64777  0.02667  1.0000
  H   H657      1.0  0.49388  0.73776  0.02024  1.0000
  H   H658      1.0  0.33025  0.74717  0.43864  1.0000
  H   H659      1.0  0.39422  0.82307  0.44945  1.0000
  H   H660      1.0  0.50472  0.50370  0.48099  1.0000
  C   C819      1.0  0.40715  0.66704  0.45516  1.0000
  S   S108      1.0  0.37145  0.50558  0.40459  1.0000
  H   H661      1.0  0.36583  0.86034  0.04903  1.0000
  H   H662      1.0  0.53147  0.82431  0.29590  1.0000
  C   C820      1.0  0.56563  0.61177  0.44098  1.0000
  C   C821      1.0  0.55159  0.83508  0.29067  1.0000
  P   P26       1.0  0.33914  0.79736  0.45921  1.0000
  P   P27       1.0  0.59702  0.86155  0.20813  1.0000
  P   P28       1.0  0.62924  0.90257  0.43224  1.0000
  C   C822      1.0  0.45670  0.63020  0.05471  1.0000
  H   H663      1.0  0.56238  0.84392  0.34226  1.0000
  H   H664      1.0  0.62331  0.87670  0.27236  1.0000
  C   C823      1.0  0.44835  0.51900  0.07186  1.0000
  C   C824      1.0  0.58782  0.83041  0.39445  1.0000
  H   H665      1.0  0.42982  0.62882  0.47917  1.0000
  H   H666      1.0  0.37463  0.68589  0.05585  1.0000
  H   H667      1.0  0.58032  0.85564  0.42225  1.0000
  C   C825      1.0  0.58580  0.85379  0.25054  1.0000
  C   C826      1.0  0.51150  0.94954  0.07010  1.0000
  H   H668      1.0  0.35905  0.73270  0.41968  1.0000
  C   C827      1.0  0.57552  0.83812  0.17817  1.0000
  C   C828      1.0  0.53717  0.58624  0.48510  1.0000
  S   S109      1.0  0.53691  0.82028  0.46128  1.0000
  P   P29       1.0  0.45432  0.68402  0.48622  1.0000
  H   H669      1.0  0.61400  0.82778  0.23197  1.0000
  C   C829      1.0  0.39673  0.49617  0.31456  1.0000
  C   C830      1.0  0.38620  0.80328  0.44303  1.0000
  C   C831      1.0  0.33826  0.50085  0.22040  1.0000
  C   C832      1.0  0.46623  0.51311  0.05966  1.0000
  C   C833      1.0  0.62179  0.95676  0.35953  1.0000
  H   H670      1.0  0.57322  0.79766  0.11750  1.0000
  C   C834      1.0  0.56695  0.80759  0.13364  1.0000
  H   H671      1.0  0.38410  0.65694  0.02441  1.0000
  C   C835      1.0  0.48691  0.53843  0.47710  1.0000
  C   C836      1.0  0.40811  0.51957  0.33102  1.0000
  H   H672      1.0  0.43442  0.52946  0.11437  1.0000
  C   C837      1.0  0.44983  0.58438  0.47114  1.0000
  H   H673      1.0  0.57332  0.61319  0.41633  1.0000
  C   C838      1.0  0.62033  0.87293  0.41136  1.0000
  C   C839      1.0  0.55984  0.83891  0.25766  1.0000
  C   C840      1.0  0.62636  0.92373  0.40357  1.0000
  H   H674      1.0  0.54568  0.83063  0.23815  1.0000
  H   H675      1.0  0.54303  0.70384  0.48064  1.0000
  C   C841      1.0  0.36650  0.87689  0.41690  1.0000
  C   C842      1.0  0.34559  0.84584  0.46020  1.0000
  H   H676      1.0  0.61007  0.93256  0.46601  1.0000
  C   C843      1.0  0.52071  0.58103  0.99681  1.0000
  H   H677      1.0  0.47270  0.91934  0.45264  1.0000
  C   C844      1.0  0.55330  0.94836  0.29999  1.0000
  H   H678      1.0  0.59483  0.97149  0.40410  1.0000
  C   C845      1.0  0.37728  0.62312  0.44144  1.0000
  H   H679      1.0  0.43463  0.51968  0.05549  1.0000
  C   C846      1.0  0.54427  0.78017  0.47758  1.0000
  C   C847      1.0  0.39265  0.76950  0.42393  1.0000
  C   C848      1.0  0.40044  0.95276  0.42891  1.0000
  H   H680      1.0  0.40522  0.61511  0.08468  1.0000
  H   H681      1.0  0.41195  0.68660  0.45459  1.0000
  H   H682      1.0  0.40531  0.76313  0.41555  1.0000
  C   C849      1.0  0.39188  0.68563  0.06123  1.0000
  H   H683      1.0  0.60564  0.92644  0.12810  1.0000
  H   H684      1.0  0.42393  0.50207  0.42574  1.0000
  H   H685      1.0  0.36433  0.82198  0.39677  1.0000
  C   C850      1.0  0.47263  0.76521  0.46286  1.0000
  C   C851      1.0  0.48372  0.51853  0.11580  1.0000
  C   C852      1.0  0.48410  0.51314  0.08194  1.0000
  C   C853      1.0  0.38391  0.64854  0.44143  1.0000
  H   H686      1.0  0.56001  0.86377  0.99335  1.0000
  C   C854      1.0  0.60949  0.89686  0.46838  1.0000
  H   H687      1.0  0.46274  0.58531  0.45222  1.0000
  C   C855      1.0  0.45580  0.65045  0.03992  1.0000
  C   C856      1.0  0.45529  0.75132  0.48773  1.0000
  C   C857      1.0  0.36244  0.57840  0.00881  1.0000
  C   C858      1.0  0.63968  0.94995  0.40975  1.0000
  H   H688      1.0  0.44722  0.79997  0.04130  1.0000
  H   H689      1.0  0.58010  0.81078  0.00365  1.0000
  H   H690      1.0  0.40105  0.95389  0.40197  1.0000
  H   H691      1.0  0.47790  0.78472  0.45843  1.0000
  C   C859      1.0  0.45377  0.58621  0.99641  1.0000
  H   H692      1.0  0.35148  0.88353  0.46177  1.0000
  C   C860      1.0  0.52416  0.69256  0.47007  1.0000
  H   H693      1.0  0.47842  0.68888  0.02242  1.0000
  C   C861      1.0  0.48380  0.49005  0.00934  1.0000
  C   C862      1.0  0.55408  0.77126  0.99210  1.0000
  C   C863      1.0  0.58841  0.98272  0.45204  1.0000
  C   C864      1.0  0.42115  0.50178  0.99365  1.0000
  C   C865      1.0  0.47961  0.68012  0.46985  1.0000
  C   C866      1.0  0.45178  0.78797  0.02653  1.0000
  C   C867      1.0  0.46097  0.71554  0.47616  1.0000
  C   C868      1.0  0.41708  0.63457  0.46896  1.0000
  C   C869      1.0  0.32655  0.84479  0.03541  1.0000
  C   C870      1.0  0.39387  0.61617  0.45518  1.0000
  C   C871      1.0  0.50406  0.69409  0.48377  1.0000
  H   H694      1.0  0.43005  0.52209  0.99670  1.0000
  C   C872      1.0  0.38304  0.60286  0.00454  1.0000
  C   C873      1.0  0.63751  0.96637  0.38770  1.0000
  C   C874      1.0  0.41562  0.87089  0.48028  1.0000
  H   H695      1.0  0.33627  0.84105  0.48411  1.0000
  C   C875      1.0  0.46363  0.94573  0.47525  1.0000
  H   H696      1.0  0.44383  0.93447  0.46814  1.0000
  C   C876      1.0  0.46796  0.51398  0.48637  1.0000
  C   C877      1.0  0.40135  0.55163  0.99668  1.0000
  C   C878      1.0  0.60016  0.87421  0.48625  1.0000
  H   H697      1.0  0.38109  0.53860  0.99668  1.0000
  H   H698      1.0  0.43299  0.69302  0.99093  1.0000
  C   C879      1.0  0.42718  0.85943  0.98952  1.0000
  Fe  Fe54      1.0  0.34400  0.91328  0.57250  1.0000
  S   S110      1.0  0.36841  0.91102  0.61269  1.0000
  S   S111      1.0  0.35099  0.95136  0.55154  1.0000
  Fe  Fe55      1.0  0.36462  0.87798  0.58272  1.0000
  S   S112      1.0  0.39926  0.87345  0.57836  1.0000
  S   S113      1.0  0.34208  0.88150  0.54065  1.0000
  Fe  Fe56      1.0  0.36722  0.89524  0.96088  1.0000
  H   H699      1.0  0.46124  0.52765  0.95146  1.0000
  H   H700      1.0  0.42592  0.84551  0.97175  1.0000
  Fe  Fe57      1.0  0.34431  0.92364  0.92747  1.0000
  S   S114      1.0  0.34826  0.96236  0.91693  1.0000
  S   S115      1.0  0.37778  0.91963  0.91531  1.0000
  Fe  Fe58      1.0  0.52244  0.65850  0.62372  1.0000
  S   S116      1.0  0.56004  0.69359  0.61415  1.0000
  S   S117      1.0  0.50449  0.64132  0.67416  1.0000
  Fe  Fe59      1.0  0.51369  0.64470  0.54884  1.0000
  S   S118      1.0  0.55102  0.67881  0.53530  1.0000
  S   S119      1.0  0.49280  0.61818  0.50517  1.0000
  Fe  Fe60      1.0  0.56683  0.66824  0.57941  1.0000
  S   S120      1.0  0.60330  0.66593  0.57695  1.0000
  Fe  Fe61      1.0  0.54038  0.70080  0.57038  1.0000
  S   S121      1.0  0.53982  0.73832  0.56123  1.0000
  S   S122      1.0  0.53019  0.63330  0.59081  1.0000
  S   S123      1.0  0.50228  0.66655  0.58226  1.0000
  Fe  Fe62      1.0  0.52556  0.69097  0.94653  1.0000
  S   S124      1.0  0.49721  0.67037  0.90482  1.0000
  H   H701      1.0  0.60990  0.66477  0.67371  1.0000
  Fe  Fe63      1.0  0.54954  0.65690  0.93469  1.0000
  S   S125      1.0  0.52254  0.63471  0.89312  1.0000
  S   S126      1.0  0.58162  0.65021  0.95142  1.0000
  Fe  Fe64      1.0  0.52915  0.67222  0.87500  1.0000
  S   S127      1.0  0.54044  0.68726  0.82174  1.0000
  Fe  Fe65      1.0  0.49281  0.63441  0.92647  1.0000
  S   S128      1.0  0.45382  0.59863  0.92971  1.0000
  S   S129      1.0  0.55807  0.69501  0.91527  1.0000
  C   C880      1.0  0.40670  0.56733  0.49053  1.0000
  Fe  Fe66      1.0  0.62223  0.50528  0.92507  1.0000
  Fe  Fe67      1.0  0.33208  0.88255  0.63734  1.0000
  S   S130      1.0  0.62135  0.53564  0.89494  1.0000
  S   S131      1.0  0.63467  0.51986  0.59596  1.0000
  H   H702      1.0  0.58145  0.49296  0.61262  1.0000
  C   C881      1.0  0.62031  0.65494  0.83820  1.0000
  C   C882      1.0  0.59866  0.63362  0.94900  1.0000
  C   C883      1.0  0.59106  0.61155  0.92975  1.0000
  C   C884      1.0  0.60607  0.59979  0.92952  1.0000
  C   C885      1.0  0.62881  0.61019  0.94832  1.0000
  S   S132      1.0  0.62419  0.57300  0.58069  1.0000
  P   P30       1.0  0.39444  0.97323  0.72230  1.0000
  H   H703      1.0  0.57358  0.60343  0.91549  1.0000
  C   C886      1.0  0.58432  0.86940  0.51356  1.0000
  C   C887      1.0  0.50309  0.49803  0.98554  1.0000
  C   C888      1.0  0.46749  0.95025  0.88639  1.0000
  Fe  Fe68      1.0  0.35000  0.88418  0.88736  1.0000
  H   H704      1.0  0.38237  0.81477  0.56909  1.0000
  C   C889      1.0  0.47758  0.54239  0.96467  1.0000
  C   C890      1.0  0.43863  0.96181  0.61785  1.0000
  C   C891      1.0  0.61979  0.74687  0.76129  1.0000
  C   C892      1.0  0.60840  0.63958  0.57716  1.0000
  H   H705      1.0  0.45638  0.92103  0.97449  1.0000
  H   H706      1.0  0.51805  0.60761  0.82505  1.0000
  C   C893      1.0  0.57480  0.50388  0.83043  1.0000
  C   C894      1.0  0.59420  0.59473  0.58386  1.0000
  C   C895      1.0  0.58887  0.61464  0.58260  1.0000
  H   H707      1.0  0.53161  0.53290  0.82119  1.0000
  C   C896      1.0  0.54489  0.76193  0.49872  1.0000
  H   H708      1.0  0.56536  0.88338  0.54447  1.0000
  H   H709      1.0  0.56970  0.61073  0.58598  1.0000
  C   C897      1.0  0.51512  0.65422  0.71506  1.0000
  C   C898      1.0  0.53575  0.67862  0.72042  1.0000
  C   C899      1.0  0.54321  0.68822  0.75319  1.0000
  C   C900      1.0  0.53034  0.67359  0.78112  1.0000
  C   C901      1.0  0.51002  0.64897  0.77582  1.0000
  C   C902      1.0  0.50239  0.63945  0.74300  1.0000
  H   H710      1.0  0.54569  0.69024  0.69929  1.0000
  H   H711      1.0  0.55891  0.70728  0.75695  1.0000
  H   H712      1.0  0.49987  0.63749  0.79696  1.0000
  H   H713      1.0  0.48636  0.62058  0.73923  1.0000
  C   C903      1.0  0.53118  0.79621  0.52341  1.0000
  C   C904      1.0  0.53213  0.77819  0.54465  1.0000
  C   C905      1.0  0.53894  0.76076  0.53266  1.0000
  H   H714      1.0  0.57658  0.52480  0.58161  1.0000
  H   H715      1.0  0.52744  0.77771  0.57068  1.0000
  C   C906      1.0  0.38875  0.96949  0.76663  1.0000
  H   H716      1.0  0.60244  0.65625  0.88373  1.0000
  C   C907      1.0  0.40404  0.87296  0.50946  1.0000
  H   H717      1.0  0.47047  0.50513  0.50820  1.0000
  C   C908      1.0  0.33295  0.88756  0.79230  1.0000
  H   H718      1.0  0.62746  0.66060  0.98233  1.0000
  C   C909      1.0  0.37393  0.98392  0.56065  1.0000
  C   C910      1.0  0.53577  0.50229  0.57932  1.0000
  C   C911      1.0  0.58775  0.91015  0.50670  1.0000
  C   C912      1.0  0.58202  0.58253  0.72255  1.0000
  H   H719      1.0  0.38612  0.61108  0.98006  1.0000
  H   H720      1.0  0.50691  0.97167  0.90016  1.0000
  C   C913      1.0  0.38171  0.98474  0.81919  1.0000
  C   C914      1.0  0.58327  0.52613  0.81236  1.0000
  H   H721      1.0  0.57974  0.67933  0.79572  1.0000
  H   H722      1.0  0.53552  0.55525  0.56932  1.0000
  C   C915      1.0  0.55091  0.49221  0.84510  1.0000
  H   H723      1.0  0.58355  0.52973  0.74522  1.0000
  C   C916      1.0  0.58487  0.56023  0.67425  1.0000
  C   C917      1.0  0.44936  0.72653  0.49427  1.0000
  C   C918      1.0  0.63314  0.64402  0.57243  1.0000
  H   H724      1.0  0.50826  0.51442  0.97027  1.0000
  C   C919      1.0  0.64329  0.60165  0.84999  1.0000
  P   P31       1.0  0.51064  0.95805  0.96909  1.0000
  C   C920      1.0  0.32003  0.50485  0.54997  1.0000
  C   C921      1.0  0.41404  0.87264  0.54078  1.0000
  H   H725      1.0  0.62856  0.64298  0.71830  1.0000
  C   C922      1.0  0.43611  0.87096  0.54253  1.0000
  H   H726      1.0  0.43147  0.77630  0.92899  1.0000
  H   H727      1.0  0.44406  0.87081  0.56663  1.0000
  C   C923      1.0  0.58358  0.58053  0.68797  1.0000
  C   C924      1.0  0.35001  0.87390  0.73545  1.0000
  C   C925      1.0  0.55186  0.92857  0.92945  1.0000
  C   C926      1.0  0.31891  0.94372  0.70017  1.0000
  H   H728      1.0  0.37572  0.92258  0.69331  1.0000
  H   H729      1.0  0.57474  0.63529  0.63738  1.0000
  H   H730      1.0  0.32628  0.89291  0.81400  1.0000
  H   H731      1.0  0.52382  0.60396  0.95466  1.0000
  S   S133      1.0  0.33481  0.90091  0.97483  1.0000
  H   H732      1.0  0.37729  0.96201  0.86224  1.0000
  H   H733      1.0  0.58269  0.92398  0.51442  1.0000
  C   C927      1.0  0.32135  0.80008  0.55685  1.0000
  S   S134      1.0  0.51935  0.65443  0.96943  1.0000
  H   H734      1.0  0.34196  0.95547  0.74434  1.0000
  H   H735      1.0  0.51691  0.49366  0.85294  1.0000
  C   C928      1.0  0.50667  0.55912  0.54318  1.0000
  C   C929      1.0  0.51986  0.55850  0.57158  1.0000
  C   C930      1.0  0.51344  0.56308  0.60322  1.0000
  C   C931      1.0  0.49399  0.56858  0.60663  1.0000
  C   C932      1.0  0.48100  0.56951  0.57841  1.0000
  C   C933      1.0  0.48724  0.56470  0.54686  1.0000
  C   C934      1.0  0.36326  0.80623  0.52141  1.0000
  H   H736      1.0  0.53128  0.49132  0.96340  1.0000
  H   H737      1.0  0.46458  0.86749  0.51512  1.0000
  C   C935      1.0  0.45588  0.67982  0.60123  1.0000
  C   C936      1.0  0.44226  0.79497  0.91823  1.0000
  C   C937      1.0  0.63613  0.63222  0.96700  1.0000
  C   C938      1.0  0.52744  0.83279  0.96912  1.0000
  C   C939      1.0  0.41146  0.86985  0.98555  1.0000
  H   H738      1.0  0.48948  0.57293  0.63097  1.0000
  H   H739      1.0  0.46664  0.57481  0.58076  1.0000
  H   H740      1.0  0.47753  0.56629  0.52515  1.0000
  H   H741      1.0  0.52486  0.60876  0.72102  1.0000
  C   C940      1.0  0.55990  0.50711  0.58845  1.0000
  C   C941      1.0  0.49746  0.73773  0.90064  1.0000
  C   C942      1.0  0.48141  0.72840  0.87280  1.0000
  C   C943      1.0  0.46593  0.73831  0.86452  1.0000
  C   C944      1.0  0.46666  0.75772  0.88395  1.0000
  C   C945      1.0  0.48299  0.76735  0.91175  1.0000
  C   C946      1.0  0.49834  0.75717  0.91995  1.0000
  P   P32       1.0  0.48517  0.79300  0.93673  1.0000
  C   C947      1.0  0.51837  0.81677  0.94107  1.0000
  C   C948      1.0  0.46886  0.80745  0.91744  1.0000
  C   C949      1.0  0.48241  0.83193  0.90410  1.0000
  C   C950      1.0  0.46951  0.84374  0.89210  1.0000
  C   C951      1.0  0.44305  0.83124  0.89319  1.0000
  C   C952      1.0  0.42943  0.80682  0.90612  1.0000
  C   C953      1.0  0.44659  0.97293  0.54973  1.0000
  C   C954      1.0  0.47287  0.96844  0.49345  1.0000
  H   H742      1.0  0.37101  0.86460  0.77043  1.0000
  C   C955      1.0  0.52487  0.58581  0.78865  1.0000
  C   C956      1.0  0.56077  0.83911  0.91768  1.0000
  C   C957      1.0  0.53520  0.82028  0.91517  1.0000
  H   H743      1.0  0.58144  0.59861  0.73275  1.0000
  H   H744      1.0  0.39779  0.95018  0.52555  1.0000
  C   C958      1.0  0.49141  0.56625  0.95003  1.0000
  C   C959      1.0  0.43353  0.92768  0.69749  1.0000
  C   C960      1.0  0.40766  0.91730  0.69092  1.0000
  C   C961      1.0  0.62087  0.72477  0.76498  1.0000
  H   H745      1.0  0.50936  0.72995  0.90731  1.0000
  H   H746      1.0  0.48107  0.71353  0.85766  1.0000
  H   H747      1.0  0.45354  0.73109  0.84285  1.0000
  H   H748      1.0  0.45476  0.76531  0.87689  1.0000
  H   H749      1.0  0.51114  0.76437  0.94125  1.0000
  H   H750      1.0  0.50291  0.84223  0.90354  1.0000
  H   H751      1.0  0.48005  0.86281  0.88246  1.0000
  H   H752      1.0  0.43311  0.84058  0.88437  1.0000
  P   P33       1.0  0.51577  0.55529  0.50181  1.0000
  C   C962      1.0  0.47169  0.70349  0.55022  1.0000
  H   H753      1.0  0.60207  0.53529  0.80192  1.0000
  H   H754      1.0  0.58719  0.49621  0.83406  1.0000
  C   C963      1.0  0.56802  0.53702  0.80881  1.0000
  H   H755      1.0  0.57373  0.84136  0.89796  1.0000
  H   H756      1.0  0.52865  0.80845  0.89301  1.0000
  C   C964      1.0  0.61891  0.59918  0.57881  1.0000
  C   C965      1.0  0.31813  0.94067  0.66556  1.0000
  H   H757      1.0  0.39637  0.97670  0.59532  1.0000
  H   H758      1.0  0.44252  0.91670  0.69232  1.0000
  H   H759      1.0  0.55370  0.61436  0.86186  1.0000
  C   C966      1.0  0.34370  0.80586  0.57380  1.0000
  C   C967      1.0  0.62126  0.64366  0.96746  1.0000
  C   C968      1.0  0.34037  0.94740  0.64830  1.0000
  H   H760      1.0  0.42562  0.64239  0.53423  1.0000
  H   H761      1.0  0.53573  0.56473  0.75699  1.0000
  C   C969      1.0  0.56966  0.85485  0.94580  1.0000
  C   C970      1.0  0.57470  0.54200  0.51108  1.0000
  C   C971      1.0  0.57803  0.88731  0.52371  1.0000
  H   H762      1.0  0.43506  0.95743  0.64393  1.0000
  H   H763      1.0  0.38719  0.87440  0.50779  1.0000
  C   C972      1.0  0.51454  0.97249  0.49548  1.0000
  S   S135      1.0  0.36053  0.87519  0.83637  1.0000
  H   H764      1.0  0.47051  0.95795  0.86148  1.0000
  C   C973      1.0  0.52992  0.59993  0.81805  1.0000
  C   C974      1.0  0.44783  0.86914  0.51334  1.0000
  C   C975      1.0  0.55297  0.85183  0.97129  1.0000
  H   H765      1.0  0.58642  0.52660  0.68451  1.0000
  H   H766      1.0  0.63153  0.64809  0.85040  1.0000
  H   H767      1.0  0.58646  0.55888  0.64746  1.0000
  H   H768      1.0  0.43619  0.71613  0.51398  1.0000
  C   C976      1.0  0.31990  0.79739  0.52217  1.0000
  H   H769      1.0  0.60471  0.57175  0.85398  1.0000
  H   H770      1.0  0.43280  0.96400  0.97235  1.0000
  C   C977      1.0  0.59110  0.67243  0.80724  1.0000
  C   C978      1.0  0.53532  0.50259  0.84118  1.0000
  C   C979      1.0  0.47032  0.78156  0.97670  1.0000
  C   C980      1.0  0.56573  0.59439  0.82952  1.0000
  H   H771      1.0  0.63585  0.65667  0.79002  1.0000
  C   C981      1.0  0.60815  0.66876  0.78822  1.0000
  C   C982      1.0  0.41844  0.52111  0.53096  1.0000
  S   S136      1.0  0.33019  0.84926  0.61087  1.0000
  C   C983      1.0  0.34196  0.95363  0.71753  1.0000
  C   C984      1.0  0.55012  0.60389  0.83866  1.0000
  H   H772      1.0  0.58406  0.59487  0.67174  1.0000
  H   H773      1.0  0.40346  0.58203  0.53800  1.0000
  H   H774      1.0  0.46808  0.74514  0.97372  1.0000
  C   C985      1.0  0.61256  0.58793  0.80441  1.0000
  C   C986      1.0  0.63133  0.60644  0.78403  1.0000
  C   C987      1.0  0.43753  0.94814  0.56085  1.0000
  C   C988      1.0  0.41345  0.56460  0.96732  1.0000
  C   C989      1.0  0.43622  0.64776  0.92612  1.0000
  C   C990      1.0  0.43839  0.67052  0.91594  1.0000
  C   C991      1.0  0.43728  0.68679  0.93947  1.0000
  C   C992      1.0  0.46365  0.75733  0.98803  1.0000
  P   P34       1.0  0.58067  0.56738  0.78862  1.0000
  H   H775      1.0  0.53208  0.60722  0.66079  1.0000
  H   H776      1.0  0.59552  0.69737  0.68945  1.0000
  C   C993      1.0  0.58481  0.54202  0.69512  1.0000
  C   C994      1.0  0.63835  0.62401  0.57295  1.0000
  H   H777      1.0  0.58114  0.59765  0.84611  1.0000
  C   C995      1.0  0.33333  0.88302  0.73142  1.0000
  C   C996      1.0  0.62254  0.65966  0.80391  1.0000
  H   H778      1.0  0.56759  0.76920  0.97719  1.0000
  H   H779      1.0  0.53913  0.60738  0.52977  1.0000
  H   H780      1.0  0.56812  0.93479  0.91344  1.0000
  C   C997      1.0  0.61876  0.58575  0.83756  1.0000
  H   H781      1.0  0.63631  0.58853  0.71194  1.0000
  H   H782      1.0  0.50778  0.70650  0.50494  1.0000
  C   C998      1.0  0.32496  0.88991  0.76006  1.0000
  C   C999      1.0  0.34074  0.80003  0.50417  1.0000
  H   H783      1.0  0.43765  0.63532  0.90809  1.0000
  H   H784      1.0  0.44143  0.67569  0.88990  1.0000
  H   H785      1.0  0.43968  0.70475  0.93167  1.0000
  C   C1000     1.0  0.32192  0.51288  0.58307  1.0000
  C   C1001     1.0  0.43363  0.94267  0.59482  1.0000
  C   C1002     1.0  0.53916  0.90379  0.94140  1.0000
  C   C1003     1.0  0.45486  0.68203  0.53126  1.0000
  H   H786      1.0  0.39657  0.89829  0.68073  1.0000
  C   C1004     1.0  0.52282  0.93749  0.95933  1.0000
  C   C1005     1.0  0.43912  0.65833  0.58267  1.0000
  C   C1006     1.0  0.54785  0.61923  0.67719  1.0000
  C   C1007     1.0  0.48408  0.94841  0.94094  1.0000
  C   C1008     1.0  0.61201  0.70646  0.73935  1.0000
  P   P35       1.0  0.61264  0.67747  0.74467  1.0000
  C   C1009     1.0  0.54379  0.52491  0.82310  1.0000
  H   H787      1.0  0.35643  0.86827  0.71379  1.0000
  C   C1010     1.0  0.60173  0.73319  0.70603  1.0000
  C   C1011     1.0  0.44303  0.93225  0.89632  1.0000
  H   H788      1.0  0.38032  0.96154  0.65187  1.0000
  C   C1012     1.0  0.39893  0.95066  0.49861  1.0000
  C   C1013     1.0  0.43915  0.92193  0.92819  1.0000
  C   C1014     1.0  0.45962  0.92974  0.95027  1.0000
  C   C1015     1.0  0.42034  0.50966  0.56003  1.0000
  C   C1016     1.0  0.51300  0.58551  0.96604  1.0000
  C   C1017     1.0  0.50987  0.91243  0.97067  1.0000
  H   H789      1.0  0.56830  0.57269  0.52062  1.0000
  H   H790      1.0  0.38008  0.80968  0.50833  1.0000
  C   C1018     1.0  0.58143  0.56401  0.74375  1.0000
  H   H791      1.0  0.50885  0.58238  0.77310  1.0000
  H   H792      1.0  0.54560  0.89083  0.93486  1.0000
  C   C1019     1.0  0.60262  0.71099  0.70969  1.0000
  H   H793      1.0  0.57903  0.57567  0.58851  1.0000
  C   C1020     1.0  0.43965  0.58221  0.96711  1.0000
  H   H794      1.0  0.35832  0.92983  0.49246  1.0000
  C   C1021     1.0  0.43346  0.68003  0.97312  1.0000
  C   C1022     1.0  0.54029  0.57604  0.77952  1.0000
  H   H795      1.0  0.44727  0.98513  0.72782  1.0000
  C   C1023     1.0  0.41006  0.95604  0.71064  1.0000
  H   H796      1.0  0.55325  0.96424  0.92796  1.0000
  H   H797      1.0  0.42024  0.90776  0.93577  1.0000
  C   C1024     1.0  0.38048  0.96411  0.83561  1.0000
  H   H798      1.0  0.49337  0.90576  0.98639  1.0000
  C   C1025     1.0  0.58782  0.65304  0.71911  1.0000
  C   C1026     1.0  0.56115  0.58065  0.79962  1.0000
  H   H799      1.0  0.52577  0.80919  0.53336  1.0000
  H   H800      1.0  0.48477  0.72114  0.53825  1.0000
  H   H801      1.0  0.38156  0.92977  0.83037  1.0000
  C   C1027     1.0  0.44274  0.59844  0.52424  1.0000
  H   H802      1.0  0.59446  0.55272  0.51885  1.0000
  C   C1028     1.0  0.48800  0.95812  0.90847  1.0000
  S   S137      1.0  0.31668  0.88897  0.89711  1.0000
  C   C1029     1.0  0.38300  0.94599  0.81764  1.0000
  C   C1030     1.0  0.47220  0.70237  0.58497  1.0000
  H   H803      1.0  0.45005  0.60998  0.54656  1.0000
  C   C1031     1.0  0.57183  0.63509  0.66400  1.0000
  H   H804      1.0  0.52399  0.56305  0.62499  1.0000
  H   H805      1.0  0.59399  0.73628  0.68330  1.0000
  C   C1032     1.0  0.39593  0.93132  0.69770  1.0000
  H   H806      1.0  0.50797  0.87643  0.97094  1.0000
  H   H807      1.0  0.40236  0.56127  0.94477  1.0000
  S   S138      1.0  0.34271  0.85919  0.93229  1.0000
  C   C1033     1.0  0.34962  0.87841  0.79633  1.0000
  H   H808      1.0  0.38831  0.93391  0.76978  1.0000
  C   C1034     1.0  0.59177  0.65185  0.68481  1.0000
  C   C1035     1.0  0.38696  0.94852  0.78324  1.0000
  H   H809      1.0  0.62705  0.60881  0.75864  1.0000
  H   H810      1.0  0.57630  0.67144  0.85610  1.0000
  C   C1036     1.0  0.58318  0.54391  0.72970  1.0000
  H   H811      1.0  0.35043  0.56796  0.98773  1.0000
  C   C1037     1.0  0.35813  0.87170  0.76768  1.0000
  H   H812      1.0  0.43333  0.93295  0.54332  1.0000
  C   C1038     1.0  0.54381  0.62009  0.71126  1.0000
  H   H813      1.0  0.43384  0.52107  0.57934  1.0000
  C   C1039     1.0  0.60386  0.65944  0.85706  1.0000
  H   H814      1.0  0.55961  0.63846  0.75808  1.0000
  H   H815      1.0  0.42685  0.64072  0.59526  1.0000
  C   C1040     1.0  0.56361  0.63711  0.73217  1.0000
  C   C1041     1.0  0.58914  0.66800  0.84152  1.0000
  H   H816      1.0  0.40894  0.79729  0.90738  1.0000
  S   S139      1.0  0.32155  0.88530  0.69155  1.0000
  C   C1042     1.0  0.45955  0.59935  0.50010  1.0000
  H   H817      1.0  0.42649  0.92350  0.60327  1.0000
  C   C1043     1.0  0.43302  0.64128  0.95978  1.0000
  H   H818      1.0  0.33703  0.51074  0.53547  1.0000
  H   H819      1.0  0.45674  0.67885  0.62815  1.0000
  C   C1044     1.0  0.56263  0.48894  0.60587  1.0000
  H   H820      1.0  0.42707  0.92604  0.87925  1.0000
  C   C1045     1.0  0.40125  0.50637  0.50587  1.0000
  H   H821      1.0  0.60004  0.58270  0.91510  1.0000
  H   H822      1.0  0.46778  0.96021  0.71582  1.0000
  H   H823      1.0  0.33101  0.81770  0.83600  1.0000
  C   C1046     1.0  0.41639  0.58257  0.51934  1.0000
  C   C1047     1.0  0.36465  0.80906  0.55607  1.0000
  H   H824      1.0  0.53373  0.51613  0.56527  1.0000
  C   C1048     1.0  0.36445  0.96048  0.70032  1.0000
  C   C1049     1.0  0.43607  0.96636  0.71717  1.0000
  S   S140      1.0  0.51941  0.71977  0.97765  1.0000
  H   H825      1.0  0.34515  0.80877  0.60058  1.0000
  H   H826      1.0  0.57643  0.85146  0.52636  1.0000
  H   H827      1.0  0.48583  0.71888  0.59916  1.0000
  H   H828      1.0  0.39826  0.86404  0.96477  1.0000
  H   H829      1.0  0.63464  0.59608  0.65134  1.0000
  H   H830      1.0  0.58954  0.86919  0.94812  1.0000
  H   H831      1.0  0.62830  0.72188  0.78806  1.0000
  C   C1050     1.0  0.36337  0.95697  0.66560  1.0000
  H   H832      1.0  0.33972  0.94488  0.62151  1.0000
  C   C1051     1.0  0.61018  0.75106  0.73186  1.0000
  H   H833      1.0  0.43027  0.54136  0.52769  1.0000
  H   H834      1.0  0.43206  0.62391  0.96743  1.0000
  H   H835      1.0  0.48522  0.56994  0.92641  1.0000
  C   C1052     1.0  0.54354  0.94532  0.93802  1.0000
  C   C1053     1.0  0.51805  0.89568  0.96178  1.0000
  C   C1054     1.0  0.43860  0.65938  0.54784  1.0000
  C   C1055     1.0  0.43082  0.65694  0.98340  1.0000
  C   C1056     1.0  0.55973  0.55321  0.51216  1.0000
  H   H836      1.0  0.34046  0.52500  0.59422  1.0000
  C   C1057     1.0  0.44774  0.95221  0.71062  1.0000
  H   H837      1.0  0.60901  0.76802  0.72918  1.0000
  H   H838      1.0  0.64039  0.55448  0.74462  1.0000
  C   C1058     1.0  0.56434  0.51708  0.49979  1.0000
  H   H839      1.0  0.32730  0.80379  0.89466  1.0000
  H   H840      1.0  0.57604  0.50848  0.49878  1.0000
  H   H841      1.0  0.38042  0.98346  0.97732  1.0000
  C   C1059     1.0  0.53413  0.53958  0.50193  1.0000
  H   H842      1.0  0.38497  0.49758  0.98086  1.0000
  H   H843      1.0  0.46866  0.81524  0.98766  1.0000
  H   H844      1.0  0.62605  0.76059  0.78149  1.0000
  H   H845      1.0  0.53425  0.98259  0.50346  1.0000
  C   C1060     1.0  0.64300  0.68223  0.73188  1.0000
  C   C1061     1.0  0.31409  0.81298  0.84998  1.0000
  P   P36       1.0  0.45182  0.97962  0.50576  1.0000
  C   C1062     1.0  0.54616  0.60816  0.50490  1.0000
  H   H846      1.0  0.44690  0.76002  0.50239  1.0000
  C   C1063     1.0  0.64511  0.66175  0.72014  1.0000
  H   H847      1.0  0.57215  0.64829  0.50863  1.0000
  C   C1064     1.0  0.49831  0.98138  0.50427  1.0000
  C   C1065     1.0  0.39549  0.48793  0.98465  1.0000
  C   C1066     1.0  0.56489  0.63159  0.49289  1.0000
  C   C1067     1.0  0.52396  0.51459  0.49021  1.0000
  H   H848      1.0  0.55041  0.74905  0.48879  1.0000
  C   C1068     1.0  0.53897  0.50336  0.48946  1.0000
  C   C1069     1.0  0.53739  0.79754  0.48958  1.0000
  C   C1070     1.0  0.81592  0.16472  0.35737  1.0000
  C   C1071     1.0  0.83023  0.18325  0.33392  1.0000
  S   S141      1.0  0.68031  0.12264  0.08869  1.0000
  H   H849      1.0  0.76287  0.25067  0.27366  1.0000
  Fe  Fe69      1.0  0.68177  0.15476  0.05918  1.0000
  S   S142      1.0  0.71682  0.18119  0.02678  1.0000
  H   H850      1.0  0.84485  0.46191  0.46709  1.0000
  H   H851      1.0  0.84545  0.18274  0.32096  1.0000
  Fe  Fe70      1.0  0.67957  0.16070  0.44660  1.0000
  H   H852      1.0  0.80654  0.21679  0.24456  1.0000
  H   H853      1.0  0.90610  0.36762  0.03920  1.0000
  C   C1072     1.0  0.90498  0.38462  0.04208  1.0000
  H   H854      1.0  0.78838  0.20965  0.18767  1.0000
  S   S143      1.0  0.71336  0.19818  0.46916  1.0000
  S   S144      1.0  0.68080  0.13890  0.40126  1.0000
  C   C1073     1.0  0.79087  0.44750  0.19660  1.0000
  C   C1074     1.0  0.67581  0.24888  0.02175  1.0000
  C   C1075     1.0  0.74415  0.16390  0.09368  1.0000
  S   S145      1.0  0.83955  0.46523  0.06557  1.0000
  H   H855      1.0  0.69861  0.41059  0.09203  1.0000
  C   C1076     1.0  0.73994  0.16971  0.16204  1.0000
  C   C1077     1.0  0.65006  0.14339  0.28698  1.0000
  H   H856      1.0  0.93343  0.40175  0.40566  1.0000
  H   H857      1.0  0.82721  0.41439  0.04974  1.0000
  C   C1078     1.0  0.74242  0.23427  0.03499  1.0000
  Fe  Fe71      1.0  0.64859  0.14225  0.38012  1.0000
  H   H858      1.0  0.93106  0.44692  0.48567  1.0000
  H   H859      1.0  0.72856  0.23112  0.05372  1.0000
  C   C1079     1.0  0.79642  0.16546  0.37438  1.0000
  C   C1080     1.0  0.70609  0.42945  0.08213  1.0000
  H   H860      1.0  0.79371  0.23717  0.28776  1.0000
  H   H861      1.0  0.74496  0.43814  0.08393  1.0000
  H   H862      1.0  0.79267  0.22869  0.11200  1.0000
  H   H863      1.0  0.74482  0.24399  0.21688  1.0000
  C   C1081     1.0  0.78367  0.44156  0.46081  1.0000
  H   H864      1.0  0.66675  0.47153  0.42660  1.0000
  C   C1082     1.0  0.84865  0.45269  0.03199  1.0000
  H   H865      1.0  0.78082  0.48240  0.12310  1.0000
  C   C1083     1.0  0.67587  0.13319  0.25142  1.0000
  Fe  Fe72      1.0  0.66087  0.13222  0.12920  1.0000
  C   C1084     1.0  0.79904  0.44607  0.16464  1.0000
  C   C1085     1.0  0.73497  0.13442  0.39667  1.0000
  H   H866      1.0  0.93477  0.48598  0.06782  1.0000
  C   C1086     1.0  0.74078  0.21345  0.01806  1.0000
  C   C1087     1.0  0.81298  0.25608  0.45847  1.0000
  S   S146      1.0  0.66438  0.16558  0.10079  1.0000
  C   C1088     1.0  0.73942  0.14426  0.11539  1.0000
  H   H867      1.0  0.65138  0.17788  0.00473  1.0000
  C   C1089     1.0  0.68958  0.43813  0.07364  1.0000
  C   C1090     1.0  0.77262  0.24642  0.13230  1.0000
  C   C1091     1.0  0.70648  0.45306  0.45872  1.0000
  H   H868      1.0  0.80103  0.44330  0.00083  1.0000
  H   H869      1.0  0.86765  0.36500  0.06331  1.0000
  H   H870      1.0  0.68170  0.23200  0.11487  1.0000
  C   C1092     1.0  0.78571  0.23399  0.26283  1.0000
  C   C1093     1.0  0.71815  0.11242  0.41381  1.0000
  C   C1094     1.0  0.76835  0.24164  0.25487  1.0000
  C   C1095     1.0  0.65848  0.19776  0.00911  1.0000
  H   H871      1.0  0.69854  0.09697  0.45985  1.0000
  H   H872      1.0  0.68012  0.41606  0.15925  1.0000
  C   C1096     1.0  0.92334  0.42989  0.03384  1.0000
  H   H873      1.0  0.79789  0.48009  0.01987  1.0000
  C   C1097     1.0  0.80453  0.28727  0.09140  1.0000
  C   C1098     1.0  0.77911  0.46165  0.20225  1.0000
  C   C1099     1.0  0.75886  0.21827  0.99317  1.0000
  H   H874      1.0  0.76305  0.48023  0.39353  1.0000
  C   C1100     1.0  0.71586  0.45011  0.16916  1.0000
  H   H875      1.0  0.70844  0.19406  0.20344  1.0000
  C   C1101     1.0  0.97614  0.47093  0.04762  1.0000
  C   C1102     1.0  0.67191  0.21209  0.16141  1.0000
  H   H876      1.0  0.67428  0.10317  0.34737  1.0000
  C   C1103     1.0  0.80630  0.26545  0.09144  1.0000
  H   H877      1.0  0.64738  0.98651  0.39306  1.0000
  C   C1104     1.0  0.72327  0.13744  0.46318  1.0000
  S   S147      1.0  0.65173  0.12448  0.47318  1.0000
  C   C1105     1.0  0.96849  0.45967  0.46566  1.0000
  C   C1106     1.0  0.88330  0.38312  0.05560  1.0000
  H   H878      1.0  0.69548  0.07819  0.33992  1.0000
  H   H879      1.0  0.89872  0.44427  0.04824  1.0000
  C   C1107     1.0  0.69063  0.45563  0.43575  1.0000
  H   H880      1.0  0.80156  0.45743  0.11349  1.0000
  H   H881      1.0  0.67787  0.13480  0.30543  1.0000
  C   C1108     1.0  0.88147  0.40485  0.05809  1.0000
  H   H882      1.0  0.80856  0.43548  0.16028  1.0000
  H   H883      1.0  0.73856  0.13308  0.37057  1.0000
  C   C1109     1.0  0.73220  0.44493  0.07753  1.0000
  H   H884      1.0  0.69058  0.12845  0.24904  1.0000
  C   C1110     1.0  0.74678  0.18644  0.10611  1.0000
  C   C1111     1.0  0.71987  0.21661  0.15853  1.0000
  C   C1112     1.0  0.69913  0.46245  0.06050  1.0000
  C   C1113     1.0  0.74581  0.18993  0.14055  1.0000
  H   H885      1.0  0.73647  0.12647  0.10555  1.0000
  C   C1114     1.0  0.86405  0.46809  0.00640  1.0000
  C   C1115     1.0  0.72537  0.47773  0.05561  1.0000
  C   C1116     1.0  0.78313  0.46361  0.45437  1.0000
  C   C1117     1.0  0.67685  0.44929  0.15502  1.0000
  H   H886      1.0  0.71467  0.44166  0.45185  1.0000
  H   H887      1.0  0.68240  0.26866  0.02655  1.0000
  C   C1118     1.0  0.77186  0.26893  0.13334  1.0000
  H   H888      1.0  0.79397  0.43789  0.21710  1.0000
  H   H889      1.0  0.74479  0.16135  0.06701  1.0000
  C   C1119     1.0  0.70325  0.20325  0.18456  1.0000
  H   H890      1.0  0.74933  0.20097  0.08869  1.0000
  H   H891      1.0  0.82014  0.14992  0.36269  1.0000
  C   C1120     1.0  0.90126  0.42810  0.04706  1.0000
  H   H892      1.0  0.79764  0.19484  0.44930  1.0000
  C   C1121     1.0  0.68033  0.24133  0.99087  1.0000
  C   C1122     1.0  0.92958  0.42261  0.44624  1.0000
  H   H893      1.0  0.66945  0.42572  0.07708  1.0000
  C   C1123     1.0  0.67957  0.20146  0.18628  1.0000
  C   C1124     1.0  0.78760  0.28917  0.11272  1.0000
  H   H894      1.0  0.75874  0.27067  0.14954  1.0000
  H   H895      1.0  0.78634  0.30616  0.11269  1.0000
  C   C1125     1.0  0.73684  0.14700  0.14949  1.0000
  C   C1126     1.0  0.76731  0.46929  0.47266  1.0000
  H   H896      1.0  0.81602  0.30251  0.07440  1.0000
  C   C1127     1.0  0.76459  0.22548  0.19836  1.0000
  H   H897      1.0  0.72338  0.23529  0.11151  1.0000
  C   C1128     1.0  0.78251  0.21842  0.20633  1.0000
  C   C1129     1.0  0.67570  0.07004  0.33308  1.0000
  C   C1130     1.0  0.79290  0.22251  0.23852  1.0000
  H   H898      1.0  0.72563  0.43982  0.17386  1.0000
  C   C1131     1.0  0.72878  0.47663  0.17141  1.0000
  C   C1132     1.0  0.69000  0.43653  0.16097  1.0000
  H   H899      1.0  0.86441  0.40360  0.06784  1.0000
  H   H900      1.0  0.81933  0.26398  0.07469  1.0000
  S   S148      1.0  0.64833  0.16565  0.42373  1.0000
  H   H901      1.0  0.74755  0.17748  0.45868  1.0000
  C   C1133     1.0  0.85406  0.45440  0.48242  1.0000
  P   P37       1.0  0.75075  0.21956  0.15701  1.0000
  C   C1134     1.0  0.66443  0.13603  0.22245  1.0000
  C   C1135     1.0  0.79795  0.21230  0.44409  1.0000
  H   H902      1.0  0.78610  0.15136  0.39314  1.0000
  C   C1136     1.0  0.68792  0.22448  0.13470  1.0000
  C   C1137     1.0  0.64948  0.45919  0.07230  1.0000
  C   C1138     1.0  0.79076  0.24527  0.11223  1.0000
  C   C1139     1.0  0.71097  0.19859  0.35342  1.0000
  C   C1140     1.0  0.71047  0.19343  0.31940  1.0000
  C   C1141     1.0  0.72726  0.18650  0.30648  1.0000
  C   C1142     1.0  0.74459  0.18474  0.32761  1.0000
  C   C1143     1.0  0.74565  0.19055  0.36174  1.0000
  C   C1144     1.0  0.72845  0.19713  0.37452  1.0000
  P   P38       1.0  0.76647  0.18660  0.39001  1.0000
  C   C1145     1.0  0.74637  0.15808  0.41291  1.0000
  C   C1146     1.0  0.79085  0.18458  0.36760  1.0000
  C   C1147     1.0  0.82519  0.20269  0.32765  1.0000
  C   C1148     1.0  0.80570  0.20347  0.34461  1.0000
  H   H903      1.0  0.73707  0.17118  0.18837  1.0000
  S   S149      1.0  0.67520  0.13261  0.18266  1.0000
  C   C1149     1.0  0.74016  0.15942  0.44617  1.0000
  C   C1150     1.0  0.78383  0.21370  0.41728  1.0000
  C   C1151     1.0  0.78480  0.23670  0.41097  1.0000
  C   C1152     1.0  0.79919  0.25773  0.43169  1.0000
  C   C1153     1.0  0.75800  0.23764  0.22267  1.0000
  P   P39       1.0  0.94928  0.45970  0.01918  1.0000
  C   C1154     1.0  0.94319  0.41798  0.42221  1.0000
  H   H904      1.0  0.69722  0.20293  0.36364  1.0000
  H   H905      1.0  0.69637  0.19387  0.30331  1.0000
  H   H906      1.0  0.72617  0.18168  0.28025  1.0000
  H   H907      1.0  0.75662  0.17828  0.31730  1.0000
  H   H908      1.0  0.72814  0.20056  0.40099  1.0000
  H   H909      1.0  0.83663  0.21735  0.30998  1.0000
  H   H910      1.0  0.80231  0.21892  0.34013  1.0000
  H   H911      1.0  0.73157  0.13123  0.16606  1.0000
  C   C1155     1.0  0.76804  0.42497  0.48529  1.0000
  C   C1156     1.0  0.67928  0.46972  0.44415  1.0000
  H   H912      1.0  0.77449  0.23855  0.39027  1.0000
  H   H913      1.0  0.79935  0.27523  0.42742  1.0000
  C   C1157     1.0  0.78351  0.47277  0.14383  1.0000
  C   C1158     1.0  0.71166  0.22642  0.13297  1.0000
  C   C1159     1.0  0.83934  0.42651  0.03023  1.0000
  H   H914      1.0  0.70041  0.45989  0.99231  1.0000
  H   H915      1.0  0.94090  0.40828  0.01939  1.0000
  C   C1160     1.0  0.76197  0.25924  0.02758  1.0000
  C   C1161     1.0  0.71230  0.11393  0.44704  1.0000
  C   C1162     1.0  0.66859  0.13660  0.28348  1.0000
  C   C1163     1.0  0.79511  0.45848  0.13823  1.0000
  C   C1164     1.0  0.65362  0.20532  0.03974  1.0000
  H   H916      1.0  0.65681  0.43875  0.14864  1.0000
  C   C1165     1.0  0.96933  0.43441  0.41938  1.0000
  C   C1166     1.0  0.92479  0.40781  0.03100  1.0000
  P   P40       1.0  0.67809  0.47366  0.04783  1.0000
  H   H917      1.0  0.68691  0.44647  0.41153  1.0000
  C   C1167     1.0  0.66380  0.08418  0.33718  1.0000
  H   H918      1.0  0.76292  0.27500  0.04107  1.0000
  H   H919      1.0  0.82256  0.23209  0.48604  1.0000
  H   H920      1.0  0.77282  0.46235  0.22717  1.0000
  C   C1168     1.0  0.78018  0.26408  0.00284  1.0000
  C   C1169     1.0  0.66866  0.46463  0.00485  1.0000
  C   C1170     1.0  0.66216  0.23083  0.04600  1.0000
  H   H921      1.0  0.65328  0.21009  0.16238  1.0000
  H   H922      1.0  0.66698  0.19142  0.20664  1.0000
  H   H923      1.0  0.70875  0.09422  0.40116  1.0000
  Fe  Fe73      1.0  0.65040  0.10311  0.42635  1.0000
  C   C1171     1.0  0.81233  0.23338  0.46470  1.0000
  C   C1172     1.0  0.94211  0.44349  0.46769  1.0000
  C   C1173     1.0  0.77594  0.47495  0.17599  1.0000
  H   H924      1.0  0.79617  0.43731  0.44676  1.0000
  C   C1174     1.0  0.74183  0.46906  0.06419  1.0000
  H   H925      1.0  0.67929  0.48555  0.15345  1.0000
  H   H926      1.0  0.90926  0.41006  0.44830  1.0000
  H   H927      1.0  0.76205  0.48104  0.06022  1.0000
  H   H928      1.0  0.79504  0.47643  0.43524  1.0000
  H   H929      1.0  0.83809  0.39564  0.00203  1.0000
  S   S150      1.0  0.64775  0.06435  0.41946  1.0000
  H   H930      1.0  0.65782  0.23652  0.06944  1.0000
  C   C1175     1.0  0.68954  0.47566  0.15749  1.0000
  H   H931      1.0  0.67121  0.03438  0.31736  1.0000
  H   H932      1.0  0.97983  0.43097  0.40051  1.0000
  C   C1176     1.0  0.66199  0.04534  0.32046  1.0000
  C   C1177     1.0  0.84543  0.41582  0.00319  1.0000
  C   C1178     1.0  0.93950  0.48294  0.01483  1.0000
  C   C1179     1.0  0.68377  0.48122  0.47551  1.0000
  H   H933      1.0  0.74236  0.25309  0.47674  1.0000
  C   C1180     1.0  0.80513  0.48012  0.99531  1.0000
  S   S151      1.0  0.80510  0.29628  0.99551  1.0000
  H   H934      1.0  0.82365  0.27221  0.47503  1.0000
  H   H935      1.0  0.97744  0.43627  0.04578  1.0000
  H   H936      1.0  0.71806  0.13878  0.48855  1.0000
  Fe  Fe74      1.0  0.84300  0.33678  0.88074  1.0000
  S   S152      1.0  0.85370  0.31368  0.91336  1.0000
  S   S153      1.0  0.82526  0.32091  0.82938  1.0000
  Fe  Fe75      1.0  0.85927  0.37814  0.93500  1.0000
  C   C1181     1.0  0.82119  0.40804  0.62662  1.0000
  S   S154      1.0  0.86839  0.41893  0.94232  1.0000
  Fe  Fe76      1.0  0.88933  0.35114  0.92566  1.0000
  S   S155      1.0  0.92925  0.35777  0.91506  1.0000
  Fe  Fe77      1.0  0.83430  0.32200  0.95533  1.0000
  H   H937      1.0  0.93614  0.35385  0.84064  1.0000
  S   S156      1.0  0.87905  0.37319  0.89093  1.0000
  S   S157      1.0  0.82187  0.34341  0.92180  1.0000
  Fe  Fe78      1.0  0.85028  0.36954  0.56114  1.0000
  S   S158      1.0  0.86660  0.34896  0.53415  1.0000
  S   S159      1.0  0.83312  0.38970  0.53348  1.0000
  Fe  Fe79      1.0  0.85857  0.35278  0.63098  1.0000
  S   S160      1.0  0.87434  0.33028  0.60754  1.0000
  S   S161      1.0  0.86648  0.36753  0.68513  1.0000
  Fe  Fe80      1.0  0.89725  0.36413  0.57459  1.0000
  S   S162      1.0  0.94060  0.39239  0.57566  1.0000
  Fe  Fe81      1.0  0.84193  0.31683  0.56912  1.0000
  S   S163      1.0  0.81599  0.27452  0.55274  1.0000
  S   S164      1.0  0.88166  0.38653  0.59861  1.0000
  S   S165      1.0  0.82509  0.33755  0.59525  1.0000
  C   C1182     1.0  0.85176  0.42008  0.51601  1.0000
  C   C1183     1.0  0.87779  0.43479  0.52250  1.0000
  C   C1184     1.0  0.89183  0.45924  0.50916  1.0000
  H   H938      1.0  0.88707  0.42740  0.53797  1.0000
  C   C1185     1.0  0.68605  0.41646  0.53741  1.0000
  C   C1186     1.0  0.78648  0.25393  0.53078  1.0000
  C   C1187     1.0  0.77610  0.22748  0.53224  1.0000
  C   C1188     1.0  0.74590  0.26845  0.89209  1.0000
  H   H939      1.0  0.78550  0.22011  0.54748  1.0000
  C   C1189     1.0  0.77823  0.24326  0.98547  1.0000
  H   H940      1.0  0.71687  0.15575  0.94859  1.0000
  C   C1190     1.0  0.72475  0.24360  0.94076  1.0000
  H   H941      1.0  0.95185  0.45658  0.74651  1.0000
  H   H942      1.0  0.92814  0.45664  0.79654  1.0000
  H   H943      1.0  0.74797  0.47374  0.68751  1.0000
  C   C1191     1.0  0.83759  0.33396  0.78955  1.0000
  C   C1192     1.0  0.85878  0.35818  0.78590  1.0000
  C   C1193     1.0  0.86740  0.36800  0.75378  1.0000
  C   C1194     1.0  0.85522  0.35364  0.72490  1.0000
  C   C1195     1.0  0.83434  0.32927  0.72854  1.0000
  C   C1196     1.0  0.82549  0.31960  0.76066  1.0000
  H   H944      1.0  0.86829  0.36942  0.80783  1.0000
  H   H945      1.0  0.88358  0.38687  0.75134  1.0000
  H   H946      1.0  0.82474  0.31800  0.70664  1.0000
  H   H947      1.0  0.80911  0.30085  0.76316  1.0000
  C   C1197     1.0  0.97456  0.38129  0.79245  1.0000
  C   C1198     1.0  0.77693  0.40990  0.58423  1.0000
  H   H948      1.0  0.72573  0.23921  0.96666  1.0000
  C   C1199     1.0  0.74137  0.21928  0.49363  1.0000
  C   C1200     1.0  0.92830  0.36740  0.67314  1.0000
  C   C1201     1.0  0.67040  0.39688  0.55893  1.0000
  C   C1202     1.0  0.96049  0.38110  0.92832  1.0000
  C   C1203     1.0  0.74325  0.36489  0.55010  1.0000
  H   H949      1.0  0.91302  0.37353  0.71770  1.0000
  H   H950      1.0  0.77024  0.41881  0.66850  1.0000
  C   C1204     1.0  0.78380  0.44939  0.63302  1.0000
  H   H951      1.0  0.81388  0.39753  0.60354  1.0000
  P   P41       1.0  0.79990  0.43740  0.60776  1.0000
  H   H952      1.0  0.79189  0.24636  0.96639  1.0000
  H   H953      1.0  0.82029  0.44443  0.94636  1.0000
  H   H954      1.0  0.69003  0.25546  0.97190  1.0000
  C   C1205     1.0  0.69813  0.17734  0.94473  1.0000
  C   C1206     1.0  0.84493  0.41438  0.67788  1.0000
  C   C1207     1.0  0.84190  0.43484  0.68615  1.0000
  C   C1208     1.0  0.82837  0.44185  0.66477  1.0000
  C   C1209     1.0  0.81738  0.42813  0.63517  1.0000
  H   H955      1.0  0.76297  0.28311  0.88032  1.0000
  H   H956      1.0  0.72279  0.25989  0.84788  1.0000
  H   H957      1.0  0.93155  0.41869  0.90823  1.0000
  C   C1210     1.0  0.78509  0.40175  0.55687  1.0000
  C   C1211     1.0  0.72325  0.25533  0.87385  1.0000
  H   H958      1.0  0.85524  0.40872  0.69445  1.0000
  H   H959      1.0  0.85003  0.44517  0.70919  1.0000
  H   H960      1.0  0.82645  0.45791  0.67142  1.0000
  H   H961      1.0  0.74033  0.41743  0.52272  1.0000
  H   H962      1.0  0.80466  0.41246  0.54921  1.0000
  H   H963      1.0  0.85573  0.46518  0.60039  1.0000
  C   C1212     1.0  0.75220  0.43061  0.50386  1.0000
  C   C1213     1.0  0.68336  0.45920  0.98342  1.0000
  S   S166      1.0  0.87122  0.35776  0.97052  1.0000
  C   C1214     1.0  0.97903  0.36138  0.79891  1.0000
  H   H964      1.0  0.85921  0.29814  0.77313  1.0000
  P   P42       1.0  0.73101  0.46053  0.52042  1.0000
  H   H965      1.0  0.64902  0.44781  0.91163  1.0000
  C   C1215     1.0  0.69953  0.47865  0.49856  1.0000
  C   C1216     1.0  0.69879  0.15495  0.94742  1.0000
  H   H966      1.0  0.74627  0.19025  0.51618  1.0000
  C   C1217     1.0  0.87636  0.30995  0.78749  1.0000
  C   C1218     1.0  0.88006  0.46917  0.48917  1.0000
  C   C1219     1.0  0.97503  0.47263  0.67586  1.0000
  H   H967      1.0  0.68401  0.22655  0.87439  1.0000
  C   C1220     1.0  0.86997  0.45740  0.97929  1.0000
  C   C1221     1.0  0.86079  0.43127  0.97756  1.0000
  C   C1222     1.0  0.84752  0.47130  0.58127  1.0000
  H   H968      1.0  0.95962  0.42142  0.73651  1.0000
  H   H969      1.0  0.73866  0.44674  0.58724  1.0000
  C   C1223     1.0  0.94937  0.42122  0.75853  1.0000
  H   H970      1.0  0.75794  0.20250  0.97973  1.0000
  H   H971      1.0  0.91965  0.38596  0.82704  1.0000
  P   P43       1.0  0.67379  0.20556  0.94264  1.0000
  C   C1224     1.0  0.95833  0.45333  0.97911  1.0000
  C   C1225     1.0  0.75143  0.39559  0.59383  1.0000
  H   H972      1.0  0.74741  0.43427  0.70277  1.0000
  C   C1226     1.0  0.65227  0.15323  0.94756  1.0000
  C   C1227     1.0  0.78450  0.47204  0.62504  1.0000
  H   H973      1.0  0.66148  0.19704  0.52537  1.0000
  H   H974      1.0  0.77563  0.37235  0.52047  1.0000
  C   C1228     1.0  0.76855  0.37906  0.54041  1.0000
  H   H975      1.0  0.94792  0.36211  0.63240  1.0000
  C   C1229     1.0  0.75379  0.21038  0.51418  1.0000
  C   C1230     1.0  0.87719  0.30538  0.82140  1.0000
  C   C1231     1.0  0.75763  0.44473  0.68093  1.0000
  H   H976      1.0  0.78132  0.28303  0.50903  1.0000
  C   C1232     1.0  0.67626  0.13174  0.95022  1.0000
  P   P44       1.0  0.94500  0.37468  0.77306  1.0000
  C   C1233     1.0  0.70188  0.23025  0.92262  1.0000
  C   C1234     1.0  0.67158  0.21566  0.98424  1.0000
  C   C1235     1.0  0.75191  0.45304  0.49785  1.0000
  C   C1236     1.0  0.94751  0.36446  0.65919  1.0000
  H   H977      1.0  0.93293  0.43529  0.58674  1.0000
  H   H978      1.0  0.91382  0.36729  0.65724  1.0000
  C   C1237     1.0  0.95822  0.44946  0.66065  1.0000
  C   C1238     1.0  0.94512  0.44128  0.76422  1.0000
  C   C1239     1.0  0.89712  0.33043  0.77241  1.0000
  H   H979      1.0  0.94005  0.44579  0.65105  1.0000
  C   C1240     1.0  0.92791  0.37094  0.70750  1.0000
  C   C1241     1.0  0.94132  0.45362  0.57492  1.0000
  C   C1242     1.0  0.96677  0.48169  0.53056  1.0000
  C   C1243     1.0  0.67488  0.17669  0.94499  1.0000
  C   C1244     1.0  0.94635  0.37087  0.72846  1.0000
  H   H980      1.0  0.82153  0.48418  0.81137  1.0000
  H   H981      1.0  0.65556  0.21662  0.57625  1.0000
  C   C1245     1.0  0.94009  0.40092  0.78087  1.0000
  C   C1246     1.0  0.91904  0.34651  0.79120  1.0000
  C   C1247     1.0  0.81787  0.46010  0.95386  1.0000
  H   H982      1.0  0.74448  0.40113  0.61490  1.0000
  H   H983      1.0  0.71588  0.19508  0.94353  1.0000
  H   H984      1.0  0.96471  0.34203  0.79284  1.0000
  H   H985      1.0  0.68790  0.44938  0.93332  1.0000
  H   H986      1.0  0.89543  0.33384  0.74642  1.0000
  C   C1248     1.0  0.97175  0.44215  0.91726  1.0000
  H   H987      1.0  0.71064  0.41254  0.62536  1.0000
  C   C1249     1.0  0.82114  0.46080  0.57851  1.0000
  C   C1250     1.0  0.74660  0.26265  0.92555  1.0000
  H   H988      1.0  0.91955  0.42885  0.96206  1.0000
  C   C1251     1.0  0.77059  0.43604  0.66146  1.0000
  C   C1252     1.0  0.67925  0.39545  0.59059  1.0000
  H   H989      1.0  0.89949  0.31765  0.86660  1.0000
  C   C1253     1.0  0.93178  0.44132  0.79235  1.0000
  H   H990      1.0  0.95994  0.44371  0.53787  1.0000
  H   H991      1.0  0.76420  0.27293  0.93967  1.0000
  C   C1254     1.0  0.96504  0.43107  0.65706  1.0000
  C   C1255     1.0  0.80701  0.45943  0.98464  1.0000
  C   C1256     1.0  0.71962  0.43296  0.57915  1.0000
  C   C1257     1.0  0.91983  0.34149  0.82522  1.0000
  C   C1258     1.0  0.65300  0.13086  0.95002  1.0000
  H   H992      1.0  0.97688  0.43694  0.89400  1.0000
  C   C1259     1.0  0.96557  0.39181  0.96033  1.0000
  H   H993      1.0  0.86068  0.29012  0.83329  1.0000
  C   C1260     1.0  0.89899  0.32100  0.84017  1.0000
  H   H994      1.0  0.95244  0.41365  0.64378  1.0000
  C   C1261     1.0  0.92282  0.42138  0.81493  1.0000
  C   C1262     1.0  0.92702  0.40129  0.80931  1.0000
  C   C1263     1.0  0.77377  0.26286  0.51079  1.0000
  H   H995      1.0  0.88142  0.46938  0.95926  1.0000
  C   C1264     1.0  0.83473  0.40114  0.64806  1.0000
  H   H996      1.0  0.96286  0.36215  0.55279  1.0000
  C   C1265     1.0  0.67627  0.45310  0.94991  1.0000
  C   C1266     1.0  0.75798  0.46697  0.67239  1.0000
  C   C1267     1.0  0.71074  0.43475  0.54749  1.0000
  C   C1268     1.0  0.93949  0.43734  0.95608  1.0000
  C   C1269     1.0  0.70129  0.23634  0.88902  1.0000
  C   C1270     1.0  0.96557  0.36779  0.71427  1.0000
  C   C1271     1.0  0.70385  0.41351  0.60071  1.0000
  C   C1272     1.0  0.73462  0.37331  0.57658  1.0000
  H   H997      1.0  0.83735  0.38542  0.64158  1.0000
  C   C1273     1.0  0.81123  0.46836  0.55224  1.0000
  H   H998      1.0  0.79504  0.48326  0.60396  1.0000
  C   C1274     1.0  0.65441  0.45224  0.93764  1.0000
  C   C1275     1.0  0.96622  0.36480  0.67973  1.0000
  H   H999      1.0  0.79098  0.46012  0.54931  1.0000
  C   C1276     1.0  0.95661  0.45844  0.54703  1.0000
  H   H1000     1.0  0.91189  0.47058  0.51451  1.0000
  H   H1001     1.0  0.91222  0.42117  0.83661  1.0000
  C   C1277     1.0  0.94621  0.43176  0.92533  1.0000
  H   H1002     1.0  0.71506  0.36214  0.58432  1.0000
  H   H1003     1.0  0.73052  0.34719  0.53743  1.0000
  C   C1278     1.0  0.83998  0.42995  0.49583  1.0000
  H   H1004     1.0  0.92405  0.46807  0.60807  1.0000
  H   H1005     1.0  0.95005  0.38658  0.97721  1.0000
  C   C1279     1.0  0.97248  0.39896  0.57122  1.0000
  H   H1006     1.0  0.66700  0.38039  0.60733  1.0000
  H   H1007     1.0  0.67688  0.11451  0.95334  1.0000
  H   H1008     1.0  0.65129  0.38293  0.55110  1.0000
  H   H1009     1.0  0.67874  0.41732  0.51310  1.0000
  C   C1280     1.0  0.75160  0.24573  0.49231  1.0000
  H   H1010     1.0  0.94068  0.48373  0.96088  1.0000
  C   C1281     1.0  0.82666  0.48136  0.93355  1.0000
  C   C1282     1.0  0.77151  0.48067  0.64458  1.0000
  H   H1011     1.0  0.71564  0.48175  0.57489  1.0000
  C   C1283     1.0  0.97814  0.38089  0.55942  1.0000
  H   H1012     1.0  0.65144  0.17819  0.88022  1.0000
  C   C1284     1.0  0.93644  0.47212  0.58697  1.0000
  H   H1013     1.0  0.97743  0.37931  0.88217  1.0000
  H   H1014     1.0  0.83600  0.48182  0.91059  1.0000
  H   H1015     1.0  0.98010  0.36772  0.72963  1.0000
  H   H1016     1.0  0.76826  0.40770  0.48966  1.0000
  C   C1285     1.0  0.71126  0.46475  0.49032  1.0000
  H   H1017     1.0  0.81990  0.41862  0.49049  1.0000
  Fe  Fe82      1.0  0.85440  0.50745  0.07155  1.0000
  S   S167      1.0  0.86549  0.53449  0.02894  1.0000
  Fe  Fe83      1.0  0.86515  0.54811  0.12404  1.0000
  S   S168      1.0  0.87701  0.57796  0.08416  1.0000
  S   S169      1.0  0.86777  0.56250  0.17788  1.0000
  Fe  Fe84      1.0  0.84259  0.54920  0.05440  1.0000
  S   S170      1.0  0.81697  0.56254  0.02918  1.0000
  Fe  Fe85      1.0  0.89888  0.56102  0.06199  1.0000
  S   S171      1.0  0.93827  0.58102  0.03738  1.0000
  S   S172      1.0  0.82967  0.52060  0.09563  1.0000
  S   S173      1.0  0.88884  0.53274  0.10315  1.0000
  Fe  Fe86      1.0  0.90814  0.57567  0.41914  1.0000
  S   S174      1.0  0.90538  0.54076  0.39691  1.0000
  S   S175      1.0  0.94593  0.61291  0.41259  1.0000
  Fe  Fe87      1.0  0.85108  0.54701  0.44100  1.0000
  S   S176      1.0  0.84654  0.51048  0.42053  1.0000
  C   C1286     1.0  0.93379  0.49262  0.04318  1.0000
  Fe  Fe88      1.0  0.88431  0.52204  0.44377  1.0000
  Fe  Fe89      1.0  0.86788  0.53264  0.37525  1.0000
  S   S177      1.0  0.85125  0.51475  0.32389  1.0000
  H   H1018     1.0  0.80663  0.50551  0.37121  1.0000
  S   S178      1.0  0.87151  0.56869  0.39454  1.0000
  H   H1019     1.0  0.95949  0.60407  0.10315  1.0000
  C   C1287     1.0  0.78904  0.59928  0.38712  1.0000
  H   H1020     1.0  0.68745  0.89996  0.17729  1.0000
  H   H1021     1.0  0.80388  0.51196  0.23151  1.0000
  H   H1022     1.0  0.73207  0.94857  0.47661  1.0000
  C   C1288     1.0  0.86475  0.54874  0.21794  1.0000
  C   C1289     1.0  0.87301  0.56466  0.24629  1.0000
  C   C1290     1.0  0.86979  0.55471  0.27877  1.0000
  C   C1291     1.0  0.85794  0.52855  0.28340  1.0000
  C   C1292     1.0  0.84972  0.51260  0.25502  1.0000
  C   C1293     1.0  0.85332  0.52260  0.22249  1.0000
  H   H1023     1.0  0.88199  0.58492  0.24313  1.0000
  H   H1024     1.0  0.87618  0.56725  0.30023  1.0000
  H   H1025     1.0  0.73788  0.50087  0.40507  1.0000
  C   C1294     1.0  0.79572  0.51451  0.37690  1.0000
  H   H1026     1.0  0.93432  0.55738  0.22728  1.0000
  H   H1027     1.0  0.84042  0.49234  0.25824  1.0000
  C   C1295     1.0  0.78705  0.55166  0.00810  1.0000
  H   H1028     1.0  0.67804  0.51391  0.00785  1.0000
  C   C1296     1.0  0.92660  0.51082  0.03991  1.0000
  S   S179      1.0  0.88820  0.55735  0.46713  1.0000
  C   C1297     1.0  0.78797  0.51150  0.24382  1.0000
  H   H1029     1.0  0.94723  0.50042  0.47332  1.0000
  H   H1030     1.0  0.92068  0.57914  0.18771  1.0000
  C   C1298     1.0  0.94827  0.57540  0.21689  1.0000
  H   H1031     1.0  0.67769  0.93529  0.39938  1.0000
  C   C1299     1.0  0.79026  0.51809  0.27758  1.0000
  C   C1300     1.0  0.88161  0.63728  0.37793  1.0000
  H   H1032     1.0  0.75169  0.50580  0.11555  1.0000
  H   H1033     1.0  0.91916  0.53337  0.00589  1.0000
  S   S180      1.0  0.89854  0.50039  0.47420  1.0000
  H   H1034     1.0  0.89678  0.65134  0.36280  1.0000
  C   C1301     1.0  0.72057  0.56067  0.05889  1.0000
  H   H1035     1.0  0.77176  0.52292  0.31996  1.0000
  H   H1036     1.0  0.92197  0.51808  0.06176  1.0000
  C   C1302     1.0  0.85700  0.62308  0.36477  1.0000
  C   C1303     1.0  0.70374  0.54887  0.03223  1.0000
  C   C1304     1.0  0.74506  0.50388  0.24307  1.0000
  C   C1305     1.0  0.66181  0.91703  0.44641  1.0000
  C   C1306     1.0  0.77056  0.52621  0.99968  1.0000
  C   C1307     1.0  0.94053  0.58770  0.19466  1.0000
  C   C1308     1.0  0.96981  0.60133  0.05283  1.0000
  H   H1037     1.0  0.75621  0.63155  0.43141  1.0000
  C   C1309     1.0  0.86725  0.61526  0.43027  1.0000
  C   C1310     1.0  0.83756  0.60404  0.38385  1.0000
  C   C1311     1.0  0.78072  0.59320  0.42017  1.0000
  H   H1038     1.0  0.65956  0.49273  0.10192  1.0000
  C   C1312     1.0  0.76680  0.53566  0.48177  1.0000
  C   C1313     1.0  0.78134  0.58002  0.27082  1.0000
  C   C1314     1.0  0.80064  0.57974  0.25272  1.0000
  C   C1315     1.0  0.82151  0.58135  0.26942  1.0000
  C   C1316     1.0  0.82327  0.58353  0.30419  1.0000
  C   C1317     1.0  0.80448  0.58491  0.32254  1.0000
  C   C1318     1.0  0.78306  0.58223  0.30562  1.0000
  H   H1039     1.0  0.97964  0.57651  0.24285  1.0000
  H   H1040     1.0  0.73192  0.51063  0.28954  1.0000
  C   C1319     1.0  0.77113  0.50027  0.38919  1.0000
  H   H1041     1.0  0.65139  0.95768  0.43195  1.0000
  H   H1042     1.0  0.91571  0.60566  0.99695  1.0000
  H   H1043     1.0  0.87367  0.60262  0.99633  1.0000
  C   C1320     1.0  0.76869  0.60460  0.43590  1.0000
  H   H1044     1.0  0.96500  0.59093  0.46188  1.0000
  C   C1321     1.0  0.69059  0.52251  0.02906  1.0000
  C   C1322     1.0  0.79245  0.55240  0.37845  1.0000
  H   H1045     1.0  0.82792  0.58675  0.43236  1.0000
  C   C1323     1.0  0.69429  0.50772  0.05244  1.0000
  H   H1046     1.0  0.73105  0.58114  0.06087  1.0000
  C   C1324     1.0  0.97498  0.60984  0.08595  1.0000
  C   C1325     1.0  0.78653  0.61813  0.37083  1.0000
  C   C1326     1.0  0.77450  0.62955  0.38664  1.0000
  P   P45       1.0  0.76203  0.49445  0.18294  1.0000
  H   H1047     1.0  0.78366  0.57977  0.43399  1.0000
  C   C1327     1.0  0.76520  0.50391  0.22636  1.0000
  H   H1048     1.0  0.76491  0.57824  0.25788  1.0000
  H   H1049     1.0  0.79928  0.57787  0.22578  1.0000
  H   H1050     1.0  0.83615  0.58043  0.25545  1.0000
  H   H1051     1.0  0.83918  0.58379  0.31665  1.0000
  H   H1052     1.0  0.87123  0.61202  0.45555  1.0000
  C   C1328     1.0  0.96535  0.51441  0.46319  1.0000
  H   H1053     1.0  0.73709  0.55529  0.10335  1.0000
  H   H1054     1.0  0.85333  0.62702  0.33976  1.0000
  C   C1329     1.0  0.97697  0.61879  0.42325  1.0000
  H   H1055     1.0  0.84673  0.51004  0.20104  1.0000
  H   H1056     1.0  0.75780  0.51799  0.46817  1.0000
  H   H1057     1.0  0.75575  0.54611  0.39388  1.0000
  C   C1330     1.0  0.76741  0.53777  0.38979  1.0000
  C   C1331     1.0  0.74752  0.51079  0.27671  1.0000
  H   H1058     1.0  0.79421  0.62434  0.34618  1.0000
  H   H1059     1.0  0.77249  0.64400  0.37393  1.0000
  P   P46       1.0  0.80562  0.58526  0.36764  1.0000
  H   H1060     1.0  0.69183  0.86524  0.20169  1.0000
  H   H1061     1.0  0.87084  0.48815  0.00707  1.0000
  C   C1332     1.0  0.71075  0.51969  0.07967  1.0000
  C   C1333     1.0  0.64826  0.88361  0.19099  1.0000
  C   C1334     1.0  0.71252  0.93972  0.46813  1.0000
  C   C1335     1.0  0.80634  0.54045  0.37162  1.0000
  C   C1336     1.0  0.88680  0.63319  0.41056  1.0000
  H   H1062     1.0  0.76751  0.58149  0.31929  1.0000
  H   H1063     1.0  0.76214  0.59959  0.46134  1.0000
  C   C1337     1.0  0.75696  0.51188  0.39558  1.0000
  C   C1338     1.0  0.77827  0.52209  0.15687  1.0000
  C   C1339     1.0  0.80132  0.54314  0.16738  1.0000
  C   C1340     1.0  0.81427  0.56403  0.14654  1.0000
  C   C1341     1.0  0.80443  0.56404  0.11503  1.0000
  C   C1342     1.0  0.78167  0.54310  0.10423  1.0000
  C   C1343     1.0  0.76875  0.52214  0.12490  1.0000
  H   H1064     1.0  0.67474  0.49194  0.48220  1.0000
  H   H1065     1.0  0.79204  0.58904  0.00582  1.0000
  H   H1066     1.0  0.70122  0.56011  0.01346  1.0000
  H   H1067     1.0  0.82510  0.55097  0.36119  1.0000
  C   C1344     1.0  0.76543  0.62265  0.41907  1.0000
  H   H1068     1.0  0.90601  0.64374  0.42047  1.0000
  C   C1345     1.0  0.97391  0.58636  0.22573  1.0000
  C   C1346     1.0  0.92512  0.51956  0.00840  1.0000
  C   C1347     1.0  0.70692  0.94353  0.43560  1.0000
  C   C1348     1.0  0.72398  0.54608  0.08274  1.0000
  C   C1349     1.0  0.84275  0.60076  0.41696  1.0000
  C   C1350     1.0  0.67143  0.88430  0.18940  1.0000
  C   C1351     1.0  0.68169  0.93221  0.42472  1.0000
  C   C1352     1.0  0.65320  0.84448  0.21860  1.0000
  H   H1069     1.0  0.80778  0.52352  0.29103  1.0000
  S   S181      1.0  0.81213  0.53956  0.46162  1.0000
  H   H1070     1.0  0.80993  0.54333  0.19108  1.0000
  H   H1071     1.0  0.83245  0.57988  0.15439  1.0000
  H   H1072     1.0  0.81487  0.57996  0.09854  1.0000
  H   H1073     1.0  0.77452  0.54293  0.07935  1.0000
  H   H1074     1.0  0.95227  0.62050  0.16414  1.0000
  H   H1075     1.0  0.73313  0.49633  0.04490  1.0000
  C   C1353     1.0  0.77964  0.56929  0.99945  1.0000
  H   H1076     1.0  0.97398  0.55316  0.06326  1.0000
  H   H1077     1.0  0.94980  0.53547  0.44051  1.0000
  C   C1354     1.0  0.67390  0.86474  0.20316  1.0000
  C   C1355     1.0  0.79354  0.55076  0.48234  1.0000
  H   H1078     1.0  0.71358  0.50864  0.09825  1.0000
  H   H1079     1.0  0.72215  0.95535  0.41882  1.0000
  C   C1356     1.0  0.77002  0.51774  0.29395  1.0000
  H   H1080     1.0  0.76726  0.48650  0.46716  1.0000
  H   H1081     1.0  0.77545  0.51220  0.00644  1.0000
  C   C1357     1.0  0.66762  0.91313  0.47898  1.0000
  H   H1082     1.0  0.65506  0.82923  0.22908  1.0000
  C   C1358     1.0  0.96669  0.53418  0.44436  1.0000
  C   C1359     1.0  0.95835  0.61104  0.18144  1.0000
  H   H1083     1.0  0.72491  0.50973  0.16761  1.0000
  H   H1084     1.0  0.72730  0.49830  0.23054  1.0000
  H   H1085     1.0  0.65825  0.88425  0.39479  1.0000
  C   C1360     1.0  0.71539  0.48929  0.16555  1.0000
  H   H1086     1.0  0.78422  0.55107  0.59823  1.0000
  S   S182      1.0  0.68378  0.56739  0.90106  1.0000
  H   H1087     1.0  0.67033  0.63645  0.78068  1.0000
  H   H1088     1.0  0.68085  0.63206  0.83935  1.0000
  H   H1089     1.0  0.88720  0.54216  0.92986  1.0000
  Fe  Fe90      1.0  0.68062  0.53446  0.93068  1.0000
  S   S183      1.0  0.71140  0.52555  0.94949  1.0000
  C   C1361     1.0  0.80444  0.57397  0.49951  1.0000
  C   C1362     1.0  0.80935  0.53584  0.91097  1.0000
  Fe  Fe91      1.0  0.70160  0.55687  0.55481  1.0000
  H   H1090     1.0  0.71478  0.57076  0.83650  1.0000
  S   S184      1.0  0.74347  0.57691  0.53722  1.0000
  H   H1091     1.0  0.79936  0.63589  0.63813  1.0000
  H   H1092     1.0  0.96675  0.49711  0.90454  1.0000
  C   C1363     1.0  0.74289  0.58097  0.64402  1.0000
  S   S185      1.0  0.69073  0.57159  0.60030  1.0000
  C   C1364     1.0  0.84407  0.52559  0.87710  1.0000
  C   C1365     1.0  0.65355  0.59725  0.69757  1.0000
  C   C1366     1.0  0.78893  0.58158  0.51611  1.0000
  H   H1093     1.0  0.79774  0.59958  0.52914  1.0000
  C   C1367     1.0  0.65253  0.60131  0.66350  1.0000
  H   H1094     1.0  0.73209  0.66614  0.68008  1.0000
  C   C1368     1.0  0.85710  0.57161  0.96115  1.0000
  S   S186      1.0  0.68501  0.51777  0.57517  1.0000
  H   H1095     1.0  0.73558  0.57886  0.73375  1.0000
  C   C1369     1.0  0.76715  0.59827  0.63275  1.0000
  C   C1370     1.0  0.96742  0.53259  0.90386  1.0000
  H   H1096     1.0  0.92227  0.57531  0.96412  1.0000
  H   H1097     1.0  0.67363  0.61430  0.61812  1.0000
  H   H1098     1.0  0.79930  0.58380  0.88915  1.0000
  H   H1099     1.0  0.73098  0.53141  0.49757  1.0000
  H   H1100     1.0  0.95151  0.52586  0.88667  1.0000
  H   H1101     1.0  0.70233  0.48761  0.52266  1.0000
  H   H1102     1.0  0.73829  0.52151  0.60714  1.0000
  H   H1103     1.0  0.64842  0.66313  0.56809  1.0000
  H   H1104     1.0  0.72971  0.55759  0.78736  1.0000
  H   H1105     1.0  0.86624  0.51155  0.51554  1.0000
  C   C1371     1.0  0.93050  0.50991  0.98009  1.0000
  C   C1372     1.0  0.97604  0.51644  0.91383  1.0000
  C   C1373     1.0  0.74760  0.51876  0.98220  1.0000
  C   C1374     1.0  0.66484  0.70630  0.73437  1.0000
  H   H1106     1.0  0.94359  0.51009  0.58080  1.0000
  C   C1375     1.0  0.86083  0.55472  0.94166  1.0000
  H   H1107     1.0  0.83871  0.57008  0.96237  1.0000
  C   C1376     1.0  0.65733  0.53948  0.71145  1.0000
  H   H1108     1.0  0.71258  0.57471  0.67657  1.0000
  H   H1109     1.0  0.70512  0.72859  0.72654  1.0000
  C   C1377     1.0  0.69028  0.68953  0.71273  1.0000
  C   C1378     1.0  0.71661  0.61297  0.78019  1.0000
  H   H1110     1.0  0.67685  0.59990  0.73919  1.0000
  C   C1379     1.0  0.85709  0.51951  0.81214  1.0000
  H   H1111     1.0  0.75451  0.54920  0.89422  1.0000
  H   H1112     1.0  0.75893  0.71193  0.69060  1.0000
  C   C1380     1.0  0.67740  0.51898  0.73864  1.0000
  C   C1381     1.0  0.85366  0.49758  0.53325  1.0000
  H   H1113     1.0  0.71450  0.62549  0.64458  1.0000
  H   H1114     1.0  0.76900  0.65169  0.76212  1.0000
  C   C1382     1.0  0.81477  0.56006  0.90136  1.0000
  H   H1115     1.0  0.78525  0.50143  0.52400  1.0000
  H   H1116     1.0  0.77208  0.49810  0.63824  1.0000
  C   C1383     1.0  0.76225  0.56613  0.51620  1.0000
  H   H1117     1.0  0.89077  0.55590  0.81979  1.0000
  C   C1384     1.0  0.88437  0.55594  0.94310  1.0000
  H   H1118     1.0  0.66377  0.72233  0.74363  1.0000
  C   C1385     1.0  0.82757  0.50413  0.85797  1.0000
  H   H1119     1.0  0.83421  0.57530  0.89896  1.0000
  H   H1120     1.0  0.82485  0.58604  0.50021  1.0000
  C   C1386     1.0  0.96266  0.50060  0.54358  1.0000
  H   H1121     1.0  0.70846  0.69242  0.70499  1.0000
  P   P47       1.0  0.72907  0.62170  0.71292  1.0000
  C   C1387     1.0  0.71320  0.60060  0.81057  1.0000
  S   S187      1.0  0.64957  0.59759  0.94991  1.0000
  S   S188      1.0  0.68043  0.52069  0.67017  1.0000
  H   H1122     1.0  0.67017  0.64979  0.70076  1.0000
  C   C1388     1.0  0.71813  0.58080  0.81319  1.0000
  C   C1389     1.0  0.74856  0.51672  0.58944  1.0000
  C   C1390     1.0  0.74810  0.65536  0.72077  1.0000
  C   C1391     1.0  0.67460  0.61172  0.64471  1.0000
  H   H1123     1.0  0.79040  0.72784  0.73700  1.0000
  H   H1124     1.0  0.71263  0.62824  0.77860  1.0000
  H   H1125     1.0  0.80751  0.54033  0.55714  1.0000
  C   C1392     1.0  0.75137  0.54317  0.49861  1.0000
  C   C1393     1.0  0.66187  0.61986  0.82949  1.0000
  C   C1394     1.0  0.87323  0.54132  0.83058  1.0000
  Fe  Fe92      1.0  0.65406  0.53834  0.86618  1.0000
  C   C1395     1.0  0.75643  0.56174  0.98240  1.0000
  C   C1396     1.0  0.76080  0.69867  0.70643  1.0000
  C   C1397     1.0  0.77442  0.53331  0.58455  1.0000
  C   C1398     1.0  0.66867  0.66547  0.71042  1.0000
  C   C1399     1.0  0.67089  0.52416  0.77017  1.0000
  H   H1126     1.0  0.74469  0.50610  0.90855  1.0000
  C   C1400     1.0  0.76432  0.52104  0.90623  1.0000
  S   S189      1.0  0.65126  0.54682  0.81123  1.0000
  S   S190      1.0  0.66541  0.54827  0.52725  1.0000
  C   C1401     1.0  0.65799  0.53749  0.77249  1.0000
  C   C1402     1.0  0.72468  0.60538  0.75200  1.0000
  H   H1127     1.0  0.73234  0.56222  0.63289  1.0000
  C   C1403     1.0  0.74557  0.67262  0.70056  1.0000
  C   C1404     1.0  0.78136  0.69061  0.75254  1.0000
  H   H1128     1.0  0.65275  0.90141  0.49620  1.0000
  C   C1405     1.0  0.73172  0.58809  0.66881  1.0000
  C   C1406     1.0  0.72647  0.57334  0.78544  1.0000
  C   C1407     1.0  0.69900  0.61407  0.69414  1.0000
  C   C1408     1.0  0.79506  0.56489  0.89541  1.0000
  C   C1409     1.0  0.72958  0.58542  0.75488  1.0000
  C   C1410     1.0  0.78753  0.52725  0.56145  1.0000
  H   H1129     1.0  0.67635  0.51840  0.79267  1.0000
  H   H1130     1.0  0.86220  0.51707  0.78716  1.0000
  C   C1411     1.0  0.74025  0.53636  0.97328  1.0000
  C   C1412     1.0  0.76956  0.62956  0.67214  1.0000
  H   H1131     1.0  0.68778  0.50906  0.73712  1.0000
  Fe  Fe93      1.0  0.67262  0.53174  0.61905  1.0000
  C   C1413     1.0  0.68838  0.70990  0.72479  1.0000
  C   C1414     1.0  0.77468  0.50501  0.54245  1.0000
  C   C1415     1.0  0.93742  0.49149  0.98321  1.0000
  H   H1132     1.0  0.92864  0.51624  0.95567  1.0000
  C   C1416     1.0  0.74490  0.61242  0.68301  1.0000
  C   C1417     1.0  0.69771  0.61797  0.65985  1.0000
  C   C1418     1.0  0.76630  0.66457  0.74661  1.0000
  Fe  Fe94      1.0  0.65043  0.56280  0.93087  1.0000
  C   C1419     1.0  0.90423  0.57459  0.96247  1.0000
  C   C1420     1.0  0.87692  0.59010  0.98067  1.0000
  H   H1133     1.0  0.79530  0.69759  0.77261  1.0000
  H   H1134     1.0  0.78018  0.64851  0.68247  1.0000
  C   C1421     1.0  0.77860  0.70765  0.73248  1.0000
  C   C1422     1.0  0.78056  0.62248  0.64700  1.0000
  C   C1423     1.0  0.67671  0.60374  0.71294  1.0000
  H   H1135     1.0  0.70608  0.60582  0.83198  1.0000
  P   P48       1.0  0.83485  0.52965  0.91826  1.0000
  H   H1136     1.0  0.77533  0.59299  0.61259  1.0000
  H   H1137     1.0  0.77920  0.49729  0.91971  1.0000
  C   C1424     1.0  0.67090  0.52683  0.70915  1.0000
  H   H1138     1.0  0.87914  0.56182  0.87633  1.0000
  C   C1425     1.0  0.83420  0.50098  0.82577  1.0000
  C   C1426     1.0  0.78395  0.51624  0.91289  1.0000
  H   H1139     1.0  0.69719  0.92151  0.51501  1.0000
  H   H1140     1.0  0.73559  0.49917  0.97507  1.0000
  C   C1427     1.0  0.76985  0.54541  0.89801  1.0000
  C   C1428     1.0  0.65592  0.62226  0.79650  1.0000
  C   C1429     1.0  0.86367  0.48963  0.55867  1.0000
  H   H1141     1.0  0.75132  0.57567  0.97580  1.0000
  C   C1430     1.0  0.94736  0.49572  0.57155  1.0000
  C   C1431     1.0  0.86668  0.54448  0.86285  1.0000
  C   C1432     1.0  0.90053  0.59173  0.98114  1.0000
  H   H1142     1.0  0.97081  0.51893  0.53188  1.0000
  H   H1143     1.0  0.81269  0.51748  0.98372  1.0000
  Fe  Fe95      1.0  0.65306  0.55933  0.57464  1.0000
  S   S191      1.0  0.65265  0.50559  0.89333  1.0000
  C   C1433     1.0  0.82383  0.50178  0.94351  1.0000
  C   C1434     1.0  0.81352  0.50122  0.97482  1.0000
  C   C1435     1.0  0.73572  0.49429  0.57079  1.0000
  H   H1144     1.0  0.88398  0.49727  0.56014  1.0000
  C   C1436     1.0  0.74849  0.48857  0.54638  1.0000
  H   H1145     1.0  0.81988  0.49265  0.50948  1.0000
  H   H1146     1.0  0.65743  0.62789  0.56879  1.0000
  C   C1437     1.0  0.65083  0.54464  0.74297  1.0000
  H   H1147     1.0  0.80957  0.48980  0.86802  1.0000
  S   S192      1.0  0.64956  0.53228  0.96357  1.0000
  H   H1148     1.0  0.65351  0.64053  0.98157  1.0000
  H   H1149     1.0  0.65206  0.54550  0.68900  1.0000
  C   C1438     1.0  0.82745  0.48682  0.52984  1.0000
  H   H1150     1.0  0.97214  0.56972  0.90931  1.0000
  C   C1439     1.0  0.97904  0.55726  0.91657  1.0000
  Fe  Fe96      1.0  0.64855  0.50972  0.55027  1.0000
  H   H1151     1.0  0.97002  0.48718  0.67776  1.0000
  H   H1152     1.0  0.64787  0.59972  0.87561  1.0000
  C   C1440     1.0  0.69288  0.92448  0.48977  1.0000
