data_image0
_chemical_formula_structural       H5CHC2HC4H3C2H4CHC2H2C2HC2H2C2HC3H2CH2C5HC2H2SC2HC4H2C3HPH2CHC2H2C6HCH2C3H2CHC2SC2H2FeS2FeCHFeSFeS4FeSFeCFeS2FeS2FeSFeS3FeS2Fe2HS2CSC2H3FeS2FeS2FeSHFeSFeS3HC2H2C2HCH3C2HC6H6CSHCHCHC8H4C6H2CHC6H7CHC6H7SHCHCSC4PC19H4CSH8CHC2HC2HC3H3CH2CH2C2HCHSC2H4C5HFeC9PC3H9CHCSFeC5H4CH4C2HC13H12CH2CH2PH2CHCHC2HCSH2CFeH2C2H4C2HC6PC18H10C3HCH2C2HC6HSCHCH2CHCH2CHCH3C4PC2HCH2C4HFeCH2CHC2H2CH3C2H2C2H3C2HC4H2CHCHCHCH3C4HCH2C2H3CHCPHC3HCHCHC2FeC3HC3HC5HCFeSCSH2C2HCSH2FeS2FeHCFeCFeS3CFeSCHFeS2FeS2FeSFeS3FeS2CFeCS2FeSCHSC2FeS2FeS2FeSHFeSFeS3HSHSC2HC2H2C2H2C6H6CH2CHCHC8H4C6H4C6H4C4HC6H4SCHSHPC9H2C3HFeC2H5C3HC2H2SH2PFeSH4PCHCHCHCH2CH2C2H2C2HC2HC2H2C3PC15H2C4HCH11CHSH2C5H4C6PC13H14C6PC3H2C13H6C2H12C2HC5HCH4C4H3C3HC4HC2HC3H5PHCHC2HCHCH2CH4CHC3HC2H4C2H2CH2Fe2HC6HCHCHC5HFeC2HC5HCH2C4HCH4C4H2CHCH2C3H2C2HCHCHC3PC4HC4H2C2H4C2SHCH2FeH2C3H3CHCSC2HCPH2CHCH3CH4CHC3H2C3FeCHC2HCSH3C2H2C2HC3H3CPH2CSC2SHCSC5HC2SCPHSCHFeS2FeS2Fe2S3FeSCS2HSH2C7H4C6H5C2SC6HPCHC11H7C3H2C7PC6H7C3H3FeSC2H2PC9H7C4PC8H6CHCPC4HC2H2C2SCFeHC3H2CHC4H4C2H2C3HC2H3C2HCHCHC2FeHCH2CHCHC3HCHC2HC3H2CHCPCHCHCH2CHCHC2HC3HCH2C2H2C2HFeHS2HC3H2CSHCH3CH2SHC2HCHC2HCHCHCHC4HSC6H2C2H2CSPH3CH2C2SH3C7H2SC2HC2HCHC2H3FeS2FeS2FeSFeS3FeS2H3FeSCS4HC2H2CFeH3C6H7CHCH3C6H4C6H4C5H3C9H3C5HC5H6CHC2HC2HSC2HCH2C3H3C7PC14HC3H20C6PC11H6C3H3CPCHCHC3PC13FeCH10CHCHCHCHC3HC4HCH3CHFeCH8C4PC5HC11H16C2HSCHCHC5HC2H3C3HC2SC2HC2HCH2CH2C6PC14H2C2H11CSCH2CHSH2C2H2SCHC2HPCHCH3C2HCH3C2H3CHC2HFeS2FeS2FeSHSHFeS2FeS2FeSFeS3FeS2FeSCFeSHSFeSFeS2FeCFeS3CFeH2CSCH3C9H4C6H2C6H4C2HCHCHSHC6H4C2HC4H3C6HCH4CH2C2HCH4C2HPC8H3C7HC2H8CH2CHC2H2C6H5C3HCHCHCHC3PH2CPC11H6CH4SHC2PCH3C8HC2H2CSH2CH7C4H5PCHCH3C7HCHC4HCHCHC3H5C3H2C6H4C3H7CHC2HC3H3CH2C2HCHC2HC2HCH4PC3H2C3H4C5SH2C2H2C2HCH2CH3C2SCFeS2FeS2FeSHSCFeS2FeS2FeSFeS3FeS2FeSHFeSFeSFeSFeS2FeHFeS3HCHC4HSCH3C6H4C6H2C6H4C2HCHCHCHC6H4C6HCPHC6HCH2C3HC2HPHC6HC3HC6HCHCH6CH4SH5C2H2C2HC3H2CH3CH3C3PCHCH3CSC2H4CH3C2H4C3H2C6PC18H20C6HC2H2CHC3PC14HCHC2H15CHCPC8SHC2HC2H5C3HC3H6CH7CH4C4HSCHC3H2CHC3HCH3C2HC3S3FeSHFeSHFeSFeS4HFeCHS2HC3PCFeSCFeHSHFeS3C6H5C2HCHCHSC2HCHSFeC3HC6H4C2HFeC2HCH2C6H3C6HCFeHC6HCH2C5PC18H10CH7C3H5CHC2HCHC3SC2HC2FeC2H2C2H3CHC2HCHC3PH2C2FeCHCHC6H3C2H6CHC4PC18H20PC6HC7H2C2H3C2H4CH3C9H2CH4SHCPH2CHPC20H18CPCHCHCSC4FeC2H2FeHCSHC2HC2HCHCPHCH2SHSHCH2C2H8SHCHC6SCH3C3SCH3C3HCH2C4H2C2HC3HC4HC2HC3SC2H3CHCH2SC2H2CH3CFeC3H2SHCPC2H2CHCH3CH2SHC3HC5S3FeSCFeSHFeSFeS4HC3SCHFeC3HFeS2C2HCFeS3C6H4CSHC2HCH2CH2CHC3H2C7H4C6HCH2C3HC3H2C6HSCHC2PC3HCH2CHCHPCH2CFeCHC5H4C7SH2CHCFeCH2CHC4HC3HCH3C2H2C2HPCH2PC11H9C6PCHC3H2C2HCFeC6H6SH4SHCH8FeHC2H2SH3CH2CHC3PC19HCH15PHCHC2HFeC6H2C3HCSC3SCH2CHCH2C3HCHCH2FeC2SHSHCH4C2HC6HC2HCHCH2SHCSC2H2C3HCHCH2C2SHC4HCH2C3FeCH4C4HPCH2C2HC2HC3HFeC3HC2HCH2C2HC2H2SFeH2CH2CH2C4H2C2HSCH2FeH2CH2C3H4FeCHC4H5SCH4CH2SHC2H2SC5FeS2FeS2FeSFeSHFeS2FeSHFeSCS2HCHCS2FeS2FeS2FeSFeS3FeSFeSCHSC7H2C8H4C2H3CHCSCHCHC10H4C6H4C6HCH2C6H5CH5CHC3H3C2HCH2CH2CHCH2CHC2HC6PC18H17CH3C2HCSC5HC4H7C2HC2HC4SHCHC5PC16H3CH11C2PHC2HCHC3H2CHC2H3C3HC5HCHC3H3C3HCHCH3CHCH2PCH5C2SH3C3PC4H2CH2CHCHCH3CHCHCH4C2FeHC2HFeH3CH2PH3CH2C3H3C2H2C2HCH4C2FeH2S2CHCFeH2PCSC7H2CH5CH4C3HPFeS2FeS2FeSFeSHFeS2FeSHFeSCS2CH2CSCFeS2FeS2FeSFeS3FeSFeSCH2C7H4C6H4C4HCH3CHSHCHCHC6H4C6H4C7HCHC7H3C6PC10H11C4PCHC3H2C3HCHC5HCHCHC2H2CHSCHCHCHCH2C2HCH2CH2CSH2CH5CH3C2H9C2H3C3HC7PC11H5CH7CH2C3H5CHCHFeC4PCH2CHCHC3PSHCHC5H2SHCHCH2FeCH3CH2C5H2C3H2CHCHC3H4C6PC18H20C6SC3H5C3HCHCHC3HCH2CHC2SHCPSH2C2H2SFeHCPC2HFeHFeS2FeS2FeHFeHS2HCHFeSFeS3HCH2C2H2CHC4HSC3FeHCHCHC2SC5SCHC6HCH2C6H4C3H3CHCSC3H2C5HCHCHCHCHCH3CH2CHCSCH4CH4CH2CHC2H3CHCH3CHC2H3CPC3H2C7HCH4C3HC2PCPH3CHCHC2HCH6PHC7H3C4HC5H2C2HC3HC6HC2HCHCSC2H3C2HC2HCH2CHC6PC2SCHC8HCHCH2CH3C4H4CSCHFeHFeS2FeCSFeSFeS3C2HFeSFeS3HCHCH2C2HPCH3C2HC2H2CHCH2C4HCH4C8H2C6H4CHC5HCH3CH3SHCH2CHCHPC4HCHC8HC4H4SCSCH5CH6C2HC5H2C3HPH3CHC2HC2HCH2CHC6HCHC8PC3H2C13H2CH3C3H9C3H4CH2C3H3C4H2CHCHCHCHCHSC2SC2SFeCSFeHSHC3S2H8C4H2C5H3CHC4H5C5H2C8H2CHC2HCH2CH5CPH3SH5FeHCH2CHC3HCFeH4CFeHC4HCSCHCHC2H2C3HCH2C2HC3HCHPH3CHC6PC5HCH3C2HCSCHCH3CH2C3H2C3SHC2HC2HCHC7HC2HSCSCH2C2H2CH2CSHSC5FeSHC2SH3SFeSFeCSFeHSC2H2SHCHSH3C2HC2HCH3C2H2CHCFeHC5H2C7SH2C6H5SFeC3H3CH2CHCHCPHC2H2PC7PC18H6CH13C4HCH2CH2FeHCHC2HCHCHC2H6CH2C2HCHCPH3C3SC2SCH2CHC7HC3H3C5H6CSCSH3CH2SHC2H2CHPHSCFeS2FeS2FeSFeS3H2PHFeSHCSFeS2FeS2FeSFeS3C6H4C6H4C2H2CHC8H4C3H2CHC2HC6H4C6H4C3HCH2CH2CH4C6PC6PHC3HC2H7C2H3C8H7C4HCH3CHC6HCHC3H3PC5H2C2H3CH2C6PC2PCFeCHC11H5CHCH7C5H3CHC2H2C4H2C2HCHCH2C2HCHCSHC3H2CHCHCH2CHSC2HC2HSHC2HCH2PC2H2C3H2CH2CHC2HCHC5H2C3HC2H2C3SHC2HCHC2H2C4PC3H2CH3CH3C3HC3H3CH2CHCHC7H2CHC2H3CH4CHCH2C3SCHCHC2H2C2SHCH3CH2CHFeH3C2HC4HSCS2FeS2FeS2FeSFeS3CH3FeSH2CFeS2FeS2FeSFeS3C6H4C6H4CHCH2CHC7H4C3HC2HCH2C6H4C6H4CHC3HCPCHCFeC8PC8HC8H11C2H5C2H5C11PHC7HCH4CHC4HC2H3C6PC7H6CH5C3HCHCHPC3HC14HCH2C2H10C3H2C2HCHCH4CHSC5HPC2HCH4CH5CHC2H2C3H4C3HC3HC2H5PC2HC2HCHCH2CH2CH2C3HC2HCHC2HCHC2HCH2CHC5HCH2PHPC3H5C3HCHCHC4H6CHC2H4CH3S2H2C4H3CSHSFe2SFe2HS2C3HC4H3C4HFeCHC4HCH2CSHCFeHSCH3CH2SC4SCHCHCSHC3HC3H8C3S2CPCHCHCH3SC3HSCHCH4CSH4C2HCHCHSCSFe2SFe2S3C9H2CHCFeC7HC3H2S2CFeH4CHCH4CSH3C2H2C2HC2HC4SCHC4HCH2SHSC3H2SH2PH2CH3C4HC2HCH2C2SH5CHCHCHCH2CH3CSHFeSFeS2FeS2FeSFeCS2FeSCFeSHFeSFeS3FeHS3HSC4HCH3C6H5C6H4C6H4C6H4C3HC5H4C2HC2H3CH2CHC3PC14H9C2H4C2H2C6PC3HC4SC9H10C2HSCH5C4HC7H2CH2CH2CHC2HC3HFeCHCHPC4FeH2CH2CHCHSCH3CHCPCHC2H4C11HCHC3H8CH2C8PC18H19SHC2HCH2C5PHCHPHCSC7H2CHC8HCHPH2CHCHCH4CH2C2HSC3HCHCH2C2HC3H4C3HFeHFeCHSH2PH9CH5C3FeH2CHC2HSH2FeCHC2HC7H2CHCH2Fe2SFeS2FeS2FeSFeCS2FeSCFeSCFeSFeS3FeHS3HCPC2FeHSCH4C4H5C6H4C6H4C6H5CHCSC6H3CHCPC6HC5HC2H4CH5CH3C3PC15HC3H5CH4CHC2FeH2SHCHC2HC2H6C4H4C7H5CH2CHC2HC2HCH3C3H2C8PC9H3C3H11C4H2C6PHC8SH2C6H6CH3C2H5C3SH2FeC6HC4HC4HC2HC2HC4HCH2CH2PC4HC2H3CHC3HSH2SHCHSHC3SC3H2CH2CPC3H3C2HC2H2C3SHCH2C2H2C5H2C3H3FeH2C3FeH2C2H3C4PHCHC3HC2HFe2SHCHFeCS2FeS2FeS2FeSFeS3FeS3FeS2FeS2FeSFeS3C6H4C6H4C7H2SC6H8CSC3H2C2H2C2H2C5HC2H6C2H3CH2CH2C2H2C3HC2HCHC3HCH2CFeC4H3CH2C3H2C5PC9SC9HCH5CH4CH6CH4CH3C2H2C2FeH2C6PC4HC9H6C2H7C2H2C2PC5HC12H2CH2SHCH3C2H5SHCHC2HC5HCHC3H2SCH2SC3H4CHC2HC5HCSHCSP2C2H2CHC2HC2HC2H2FeCFeHC5HPH2CHCH2C2HC2H4CPCH2CH2CH3C3HC2HCHC3H2CH4CHC3HC3H2C2HFeHSFe2HFeHS2FeS2FeS2FeSFeS3FeS3FeSHFeS2FeSFeS3C6H4C6H6C4H3C7H5CSHCHC3H2C3H2CSCH2C2HC2SC2HC5HC5H2CHC2H3C2PCH5C6H5C2H2C6PC9HC8H6CH11CH2C2HPC18FeH7CH3C4HC2H2CHC2SCFeC6PC7HCH3C3HSH11C2HCH3C2H2C2H2C2HC5HC2H2CHC2H2PH2CH2CHC3H3S2C11HFeSH3CPC3HC2H2CH2CHC3HCH2C2HCH4CHC2HCHC3HCH4CHCHC4HCHCHSHCHCHC4H3C2H3C3H2C3HCHSFeCHCH
_chemical_formula_sum              "H3456 C4320 S576 P144 Fe288"
_cell_length_a       73.1257
_cell_length_b       77.8472
_cell_length_c       50.8773
_cell_angle_alpha    88.1207
_cell_angle_beta     87.9816
_cell_angle_gamma    104.748

_space_group_name_H-M_alt    "P 1"
_space_group_IT_number       1

loop_
  _space_group_symop_operation_xyz
  'x, y, z'

loop_
  _atom_site_type_symbol
  _atom_site_label
  _atom_site_symmetry_multiplicity
  _atom_site_fract_x
  _atom_site_fract_y
  _atom_site_fract_z
  _atom_site_occupancy
  H   H1        1.0  0.30381  0.07143  0.02883  1.0000
  H   H2        1.0  0.32411  0.06074  0.38285  1.0000
  H   H3        1.0  0.31887  0.00733  0.08225  1.0000
  H   H4        1.0  0.01939  0.23517  0.18439  1.0000
  H   H5        1.0  0.31307  0.02702  0.31719  1.0000
  C   C1        1.0  0.00307  0.20547  0.99910  1.0000
  H   H6        1.0  0.29909  0.09953  0.29297  1.0000
  C   C2        1.0  0.30173  0.16226  0.22311  1.0000
  C   C3        1.0  0.30386  0.01400  0.35526  1.0000
  H   H7        1.0  0.31483  0.23514  0.98629  1.0000
  C   C4        1.0  0.01659  0.23684  0.22645  1.0000
  C   C5        1.0  0.30215  0.17504  0.27391  1.0000
  C   C6        1.0  0.02153  0.19019  0.02571  1.0000
  C   C7        1.0  0.31565  0.15989  0.24019  1.0000
  H   H8        1.0  0.30812  0.03501  0.41294  1.0000
  H   H9        1.0  0.30858  0.13054  0.27579  1.0000
  H   H10       1.0  0.30231  0.17990  0.29365  1.0000
  C   C8        1.0  0.32542  0.12527  0.24247  1.0000
  C   C9        1.0  0.99584  0.24168  0.04079  1.0000
  H   H11       1.0  0.29782  0.03854  0.03053  1.0000
  H   H12       1.0  0.27812  0.18451  0.26301  1.0000
  H   H13       1.0  0.02907  0.18922  0.04343  1.0000
  H   H14       1.0  0.32505  0.13782  0.38875  1.0000
  C   C10       1.0  0.30214  0.01609  0.38237  1.0000
  H   H15       1.0  0.29796  0.00114  0.34735  1.0000
  C   C11       1.0  0.30954  0.03312  0.39207  1.0000
  C   C12       1.0  0.30796  0.10297  0.27508  1.0000
  H   H16       1.0  0.30121  0.15727  0.20347  1.0000
  H   H17       1.0  0.99497  0.21060  0.10636  1.0000
  C   C13       1.0  0.31344  0.12061  0.26521  1.0000
  C   C14       1.0  0.28853  0.17761  0.25667  1.0000
  H   H18       1.0  0.31057  0.07627  0.27057  1.0000
  C   C15       1.0  0.28829  0.17117  0.23131  1.0000
  C   C16       1.0  0.31378  0.06520  0.01929  1.0000
  H   H19       1.0  0.03422  0.24688  0.41264  1.0000
  H   H20       1.0  0.00835  0.22320  0.22967  1.0000
  C   C17       1.0  0.31044  0.04669  0.02027  1.0000
  C   C18       1.0  0.31247  0.02874  0.33816  1.0000
  H   H21       1.0  0.27764  0.17306  0.21802  1.0000
  C   C19       1.0  0.02064  0.17763  0.00647  1.0000
  C   C20       1.0  0.01087  0.17885  0.98365  1.0000
  C   C21       1.0  0.31442  0.08984  0.26243  1.0000
  H   H22       1.0  0.02749  0.16693  0.00927  1.0000
  H   H23       1.0  0.01352  0.21355  0.03734  1.0000
  C   C22       1.0  0.01271  0.20402  0.02213  1.0000
  H   H24       1.0  0.32047  0.12644  0.14011  1.0000
  H   H25       1.0  0.01670  0.24244  0.26771  1.0000
  C   C23       1.0  0.32336  0.03869  0.00796  1.0000
  C   C24       1.0  0.31863  0.04778  0.37501  1.0000
  C   C25       1.0  0.00213  0.24132  0.01444  1.0000
  C   C26       1.0  0.31559  0.16614  0.26578  1.0000
  C   C27       1.0  0.32008  0.04571  0.34782  1.0000
  H   H26       1.0  0.32314  0.00235  0.44627  1.0000
  C   C28       1.0  0.00206  0.19267  0.97999  1.0000
  C   C29       1.0  0.02113  0.24768  0.24784  1.0000
  H   H27       1.0  0.31538  0.12460  0.18837  1.0000
  H   H28       1.0  0.32048  0.02434  0.00901  1.0000
  S   S1        1.0  0.28973  0.99826  0.40456  1.0000
  C   C30       1.0  0.02285  0.24358  0.20100  1.0000
  C   C31       1.0  0.32533  0.13613  0.17915  1.0000
  H   H29       1.0  0.28301  0.05095  0.85023  1.0000
  C   C32       1.0  0.25385  0.01788  0.78574  1.0000
  C   C33       1.0  0.24889  0.00659  0.80821  1.0000
  C   C34       1.0  0.31316  0.05196  0.77898  1.0000
  C   C35       1.0  0.32271  0.03799  0.86416  1.0000
  H   H30       1.0  0.02708  0.23743  0.90884  1.0000
  H   H31       1.0  0.00055  0.24465  0.88574  1.0000
  C   C36       1.0  0.31405  0.02008  0.87293  1.0000
  C   C37       1.0  0.31153  0.04922  0.85560  1.0000
  C   C38       1.0  0.31687  0.04006  0.76061  1.0000
  H   H32       1.0  0.31617  0.07938  0.78784  1.0000
  P   P1        1.0  0.30843  0.01634  0.76779  1.0000
  H   H33       1.0  0.32267  0.01144  0.87919  1.0000
  H   H34       1.0  0.01011  0.16906  0.96878  1.0000
  C   C39       1.0  0.01144  0.23131  0.94619  1.0000
  H   H35       1.0  0.09756  0.24051  0.49261  1.0000
  C   C40       1.0  0.27186  0.02068  0.77348  1.0000
  C   C41       1.0  0.30757  0.00435  0.73785  1.0000
  H   H36       1.0  0.27556  0.02961  0.75622  1.0000
  H   H37       1.0  0.00807  0.21465  0.63806  1.0000
  C   C42       1.0  0.99884  0.24073  0.90644  1.0000
  C   C43       1.0  0.01501  0.22813  0.64294  1.0000
  C   C44       1.0  0.26191  0.99806  0.81838  1.0000
  C   C45       1.0  0.29419  0.01353  0.87375  1.0000
  C   C46       1.0  0.28332  0.02504  0.86579  1.0000
  C   C47       1.0  0.27992  0.00084  0.80622  1.0000
  H   H38       1.0  0.04305  0.22574  0.63260  1.0000
  C   C48       1.0  0.29185  0.04250  0.85656  1.0000
  H   H39       1.0  0.26805  0.02037  0.86659  1.0000
  H   H40       1.0  0.30567  0.04712  0.79762  1.0000
  C   C49       1.0  0.03468  0.23442  0.63977  1.0000
  C   C50       1.0  0.28505  0.01217  0.78359  1.0000
  C   C51       1.0  0.00426  0.23924  0.65250  1.0000
  H   H41       1.0  0.24382  0.02466  0.77803  1.0000
  H   H42       1.0  0.23508  0.00466  0.81801  1.0000
  C   C52       1.0  0.32452  0.00341  0.72484  1.0000
  H   H43       1.0  0.02315  0.22813  0.95601  1.0000
  C   C53       1.0  0.99425  0.23039  0.96014  1.0000
  C   C54       1.0  0.32349  0.00849  0.79007  1.0000
  S   S2        1.0  0.32063  0.07160  0.84302  1.0000
  C   C55       1.0  0.31912  0.07030  0.77352  1.0000
  C   C56       1.0  0.01373  0.23654  0.91947  1.0000
  H   H44       1.0  0.99271  0.20481  0.57615  1.0000
  H   H45       1.0  0.99440  0.19335  0.96229  1.0000
  Fe  Fe1       1.0  0.04126  0.44137  0.24841  1.0000
  S   S3        1.0  0.01132  0.42513  0.24876  1.0000
  S   S4        1.0  0.06436  0.42686  0.25008  1.0000
  Fe  Fe2       1.0  0.02829  0.47542  0.25299  1.0000
  C   C57       1.0  0.20201  0.39339  0.21724  1.0000
  H   H46       1.0  0.00570  0.39882  0.29495  1.0000
  Fe  Fe3       1.0  0.00535  0.44204  0.28148  1.0000
  S   S5        1.0  0.08584  0.30158  0.40310  1.0000
  Fe  Fe4       1.0  0.00683  0.44613  0.21996  1.0000
  S   S6        1.0  0.03570  0.45680  0.28291  1.0000
  S   S7        1.0  0.03730  0.46167  0.21835  1.0000
  S   S8        1.0  0.02548  0.44891  0.03770  1.0000
  S   S9        1.0  0.02500  0.44296  0.46382  1.0000
  Fe  Fe5       1.0  0.01200  0.42798  0.00962  1.0000
  S   S10       1.0  0.01253  0.39851  0.01406  1.0000
  Fe  Fe6       1.0  0.03779  0.46697  0.00240  1.0000
  C   C58       1.0  0.20663  0.35080  0.46824  1.0000
  Fe  Fe7       1.0  0.15966  0.37795  0.14853  1.0000
  S   S11       1.0  0.14553  0.34873  0.15041  1.0000
  S   S12       1.0  0.19146  0.38940  0.14408  1.0000
  Fe  Fe8       1.0  0.12163  0.38786  0.15069  1.0000
  S   S13       1.0  0.10522  0.35926  0.15323  1.0000
  S   S14       1.0  0.10542  0.40898  0.14639  1.0000
  Fe  Fe9       1.0  0.12669  0.35578  0.18207  1.0000
  S   S15       1.0  0.11951  0.33876  0.21993  1.0000
  Fe  Fe10      1.0  0.12577  0.35552  0.12115  1.0000
  S   S16       1.0  0.11612  0.33919  0.08527  1.0000
  S   S17       1.0  0.14185  0.38470  0.18169  1.0000
  S   S18       1.0  0.14109  0.38426  0.11731  1.0000
  Fe  Fe11      1.0  0.27693  0.34883  0.16404  1.0000
  S   S19       1.0  0.29325  0.37746  0.16376  1.0000
  S   S20       1.0  0.24509  0.33851  0.16701  1.0000
  Fe  Fe12      1.0  0.31142  0.36788  0.19291  1.0000
  Fe  Fe13      1.0  0.31169  0.36995  0.13195  1.0000
  H   H47       1.0  0.05679  0.25698  0.44715  1.0000
  S   S21       1.0  0.29401  0.33964  0.19489  1.0000
  S   S22       1.0  0.29396  0.34191  0.13035  1.0000
  C   C59       1.0  0.19247  0.37578  0.30241  1.0000
  S   S23       1.0  0.31342  0.39297  0.44395  1.0000
  C   C60       1.0  0.06486  0.27841  0.33582  1.0000
  C   C61       1.0  0.17382  0.35059  0.47647  1.0000
  H   H48       1.0  0.11485  0.41243  0.00429  1.0000
  H   H49       1.0  0.03483  0.27352  0.26070  1.0000
  H   H50       1.0  0.04623  0.43621  0.13262  1.0000
  Fe  Fe14      1.0  0.29300  0.38509  0.41132  1.0000
  S   S24       1.0  0.26382  0.39078  0.41170  1.0000
  S   S25       1.0  0.29399  0.35668  0.41208  1.0000
  Fe  Fe15      1.0  0.13342  0.35707  0.36882  1.0000
  S   S26       1.0  0.13667  0.32922  0.36806  1.0000
  S   S27       1.0  0.13262  0.37371  0.33154  1.0000
  Fe  Fe16      1.0  0.13135  0.35654  0.43002  1.0000
  S   S28       1.0  0.13406  0.32855  0.43263  1.0000
  H   H51       1.0  0.00776  0.26087  0.40606  1.0000
  Fe  Fe17      1.0  0.15695  0.33779  0.40060  1.0000
  S   S29       1.0  0.18568  0.33145  0.40243  1.0000
  Fe  Fe18      1.0  0.11348  0.32334  0.39979  1.0000
  S   S30       1.0  0.01295  0.47811  0.99820  1.0000
  S   S31       1.0  0.15499  0.36603  0.39934  1.0000
  S   S32       1.0  0.10939  0.35094  0.39942  1.0000
  H   H52       1.0  0.01208  0.49372  0.18735  1.0000
  C   C62       1.0  0.06254  0.36504  0.98169  1.0000
  C   C63       1.0  0.06938  0.29772  0.23877  1.0000
  H   H53       1.0  0.21479  0.39085  0.20883  1.0000
  H   H54       1.0  0.19661  0.38919  0.29379  1.0000
  C   C64       1.0  0.16767  0.42690  0.44031  1.0000
  C   C65       1.0  0.18745  0.37324  0.32925  1.0000
  H   H55       1.0  0.28317  0.42807  0.46084  1.0000
  C   C66       1.0  0.03241  0.25731  0.42529  1.0000
  H   H56       1.0  0.01675  0.36326  0.44748  1.0000
  H   H57       1.0  0.14972  0.42303  0.00129  1.0000
  H   H58       1.0  0.07915  0.41557  0.35418  1.0000
  C   C67       1.0  0.05122  0.29092  0.38116  1.0000
  C   C68       1.0  0.32584  0.37777  0.30835  1.0000
  H   H59       1.0  0.04586  0.29533  0.39904  1.0000
  C   C69       1.0  0.24230  0.37418  0.40786  1.0000
  C   C70       1.0  0.22507  0.37908  0.40819  1.0000
  C   C71       1.0  0.20770  0.36626  0.40602  1.0000
  C   C72       1.0  0.20730  0.34830  0.40356  1.0000
  C   C73       1.0  0.22454  0.34342  0.40293  1.0000
  C   C74       1.0  0.24190  0.35626  0.40494  1.0000
  H   H60       1.0  0.22515  0.39287  0.41012  1.0000
  H   H61       1.0  0.19463  0.37026  0.40667  1.0000
  H   H62       1.0  0.22447  0.32962  0.40087  1.0000
  H   H63       1.0  0.25493  0.35220  0.40411  1.0000
  H   H64       1.0  0.06535  0.43973  0.33908  1.0000
  H   H65       1.0  0.10473  0.29964  0.29468  1.0000
  C   C75       1.0  0.21226  0.36844  0.47572  1.0000
  S   S33       1.0  0.06732  0.48573  0.99834  1.0000
  H   H66       1.0  0.09371  0.47092  0.17533  1.0000
  C   C76       1.0  0.99525  0.45710  0.35349  1.0000
  H   H67       1.0  0.03719  0.27993  0.01141  1.0000
  C   C77       1.0  0.00075  0.32200  0.98216  1.0000
  H   H68       1.0  0.29045  0.31672  0.39198  1.0000
  C   C78       1.0  0.99481  0.38015  0.02899  1.0000
  C   C79       1.0  0.03981  0.49153  0.38280  1.0000
  C   C80       1.0  0.20631  0.37525  0.15094  1.0000
  C   C81       1.0  0.22604  0.38202  0.14844  1.0000
  C   C82       1.0  0.23815  0.37088  0.15300  1.0000
  C   C83       1.0  0.23056  0.35288  0.16003  1.0000
  C   C84       1.0  0.21087  0.34612  0.16234  1.0000
  C   C85       1.0  0.19880  0.35727  0.15804  1.0000
  H   H69       1.0  0.23197  0.39591  0.14290  1.0000
  H   H70       1.0  0.25330  0.37625  0.15118  1.0000
  H   H71       1.0  0.20490  0.33222  0.16768  1.0000
  H   H72       1.0  0.18371  0.35189  0.16020  1.0000
  C   C86       1.0  0.12183  0.34777  0.05225  1.0000
  C   C87       1.0  0.13328  0.36492  0.04645  1.0000
  C   C88       1.0  0.13679  0.37154  0.02013  1.0000
  C   C89       1.0  0.09033  0.48015  0.18905  1.0000
  C   C90       1.0  0.11786  0.34386  0.00492  1.0000
  C   C91       1.0  0.11438  0.33720  0.03129  1.0000
  H   H73       1.0  0.13930  0.37319  0.06222  1.0000
  H   H74       1.0  0.14545  0.38487  0.01596  1.0000
  C   C92       1.0  0.01571  0.27930  0.43686  1.0000
  H   H75       1.0  0.10559  0.32389  0.03547  1.0000
  C   C93       1.0  0.12441  0.34909  0.25032  1.0000
  C   C94       1.0  0.12331  0.36657  0.25373  1.0000
  C   C95       1.0  0.12605  0.37400  0.27864  1.0000
  C   C96       1.0  0.13004  0.36410  0.30030  1.0000
  C   C97       1.0  0.13155  0.34676  0.29670  1.0000
  C   C98       1.0  0.12868  0.33929  0.27186  1.0000
  H   H76       1.0  0.11993  0.37424  0.23735  1.0000
  H   H77       1.0  0.12481  0.38741  0.28120  1.0000
  H   H78       1.0  0.13492  0.33907  0.31299  1.0000
  H   H79       1.0  0.12991  0.32590  0.26925  1.0000
  H   H80       1.0  0.03625  0.38347  0.41325  1.0000
  H   H81       1.0  0.03054  0.43456  0.33712  1.0000
  H   H82       1.0  0.00659  0.34386  0.22802  1.0000
  C   C99       1.0  0.02068  0.33397  0.11460  1.0000
  H   H83       1.0  0.01089  0.36109  0.02069  1.0000
  C   C100      1.0  0.07501  0.42158  0.22081  1.0000
  C   C101      1.0  0.07106  0.42778  0.19605  1.0000
  C   C102      1.0  0.08031  0.42371  0.17324  1.0000
  C   C103      1.0  0.09330  0.41321  0.17506  1.0000
  C   C104      1.0  0.09675  0.40656  0.19974  1.0000
  C   C105      1.0  0.08774  0.41085  0.22253  1.0000
  H   H84       1.0  0.06112  0.43591  0.19454  1.0000
  H   H85       1.0  0.07752  0.42878  0.15416  1.0000
  H   H86       1.0  0.10669  0.39843  0.20133  1.0000
  H   H87       1.0  0.09078  0.40594  0.24161  1.0000
  H   H88       1.0  0.00958  0.40503  0.34972  1.0000
  H   H89       1.0  0.27385  0.42080  0.11097  1.0000
  H   H90       1.0  0.03487  0.31940  0.41615  1.0000
  S   S34       1.0  0.13126  0.37346  0.46579  1.0000
  H   H91       1.0  0.01537  0.33104  0.44851  1.0000
  C   C106      1.0  0.99605  0.43662  0.12807  1.0000
  H   H92       1.0  0.30763  0.27326  0.20131  1.0000
  C   C107      1.0  0.01779  0.39336  0.10131  1.0000
  S   S35       1.0  0.30421  0.35229  0.98430  1.0000
  C   C108      1.0  0.01757  0.26529  0.42143  1.0000
  C   C109      1.0  0.08906  0.37842  0.00756  1.0000
  C   C110      1.0  0.07795  0.38744  0.02183  1.0000
  C   C111      1.0  0.05865  0.38436  0.01673  1.0000
  P   P2        1.0  0.08766  0.40061  0.04907  1.0000
  C   C112      1.0  0.07970  0.38652  0.07822  1.0000
  C   C113      1.0  0.11319  0.40740  0.04654  1.0000
  C   C114      1.0  0.12363  0.40899  0.06935  1.0000
  C   C115      1.0  0.14331  0.41578  0.06758  1.0000
  C   C116      1.0  0.15271  0.42075  0.04307  1.0000
  C   C117      1.0  0.14239  0.41945  0.02031  1.0000
  C   C118      1.0  0.12267  0.41310  0.02207  1.0000
  C   C119      1.0  0.08292  0.36951  0.07954  1.0000
  C   C120      1.0  0.07630  0.35806  0.10148  1.0000
  C   C121      1.0  0.06678  0.36364  0.12252  1.0000
  C   C122      1.0  0.06374  0.38063  0.12147  1.0000
  C   C123      1.0  0.06986  0.39193  0.09926  1.0000
  C   C124      1.0  0.08171  0.42166  0.04999  1.0000
  C   C125      1.0  0.08794  0.43297  0.07066  1.0000
  C   C126      1.0  0.07319  0.42795  0.02871  1.0000
  C   C127      1.0  0.02580  0.26915  0.01973  1.0000
  C   C128      1.0  0.18727  0.34393  0.29877  1.0000
  C   C129      1.0  0.04524  0.26316  0.44486  1.0000
  C   C130      1.0  0.32050  0.38034  0.01563  1.0000
  H   H93       1.0  0.04945  0.39030  0.02854  1.0000
  H   H94       1.0  0.11660  0.40526  0.08858  1.0000
  H   H95       1.0  0.15130  0.41711  0.08527  1.0000
  H   H96       1.0  0.16800  0.42555  0.04177  1.0000
  C   C131      1.0  0.01758  0.30408  0.22402  1.0000
  S   S36       1.0  0.32082  0.38378  0.22915  1.0000
  H   H97       1.0  0.09068  0.36508  0.06370  1.0000
  H   H98       1.0  0.07911  0.34507  0.10246  1.0000
  H   H99       1.0  0.06217  0.35494  0.13986  1.0000
  H   H100      1.0  0.05695  0.38524  0.13803  1.0000
  H   H101      1.0  0.06706  0.40487  0.09895  1.0000
  H   H102      1.0  0.09519  0.42863  0.08687  1.0000
  H   H103      1.0  0.06898  0.41996  0.01193  1.0000
  H   H104      1.0  0.11152  0.33576  0.98911  1.0000
  C   C132      1.0  0.31688  0.37811  0.06379  1.0000
  H   H105      1.0  0.03456  0.29505  0.16330  1.0000
  C   C133      1.0  0.04319  0.27699  0.46084  1.0000
  C   C134      1.0  0.19061  0.41111  0.47115  1.0000
  H   H106      1.0  0.07720  0.31224  0.30093  1.0000
  C   C135      1.0  0.00952  0.37840  0.18384  1.0000
  C   C136      1.0  0.05107  0.37340  0.99640  1.0000
  H   H107      1.0  0.22503  0.41670  0.44114  1.0000
  C   C137      1.0  0.30885  0.31807  0.42444  1.0000
  C   C138      1.0  0.18593  0.40520  0.44584  1.0000
  C   C139      1.0  0.17453  0.41307  0.43052  1.0000
  H   H108      1.0  0.03626  0.37124  0.99232  1.0000
  H   H109      1.0  0.02337  0.27996  0.36645  1.0000
  H   H110      1.0  0.04301  0.47208  0.09391  1.0000
  C   C140      1.0  0.06675  0.30576  0.26246  1.0000
  H   H111      1.0  0.04154  0.35466  0.22015  1.0000
  H   H112      1.0  0.99596  0.43663  0.08561  1.0000
  C   C141      1.0  0.32481  0.38768  0.04040  1.0000
  H   H113      1.0  0.09634  0.46566  0.46924  1.0000
  H   H114      1.0  0.18740  0.38453  0.34112  1.0000
  C   C142      1.0  0.00946  0.32714  0.35296  1.0000
  C   C143      1.0  0.08144  0.30809  0.17606  1.0000
  H   H115      1.0  0.10931  0.28495  0.25330  1.0000
  C   C144      1.0  0.99518  0.44425  0.10281  1.0000
  H   H116      1.0  0.99740  0.42316  0.12989  1.0000
  S   S37       1.0  0.32531  0.31229  0.15713  1.0000
  C   C145      1.0  0.07947  0.30640  0.28250  1.0000
  C   C146      1.0  0.03727  0.31017  0.21946  1.0000
  H   H117      1.0  0.19104  0.39445  0.43788  1.0000
  H   H118      1.0  0.17095  0.40833  0.41108  1.0000
  H   H119      1.0  0.30878  0.29119  0.09427  1.0000
  H   H120      1.0  0.02001  0.38585  0.25763  1.0000
  C   C147      1.0  0.03873  0.42409  0.12379  1.0000
  C   C148      1.0  0.31369  0.30527  0.38293  1.0000
  C   C149      1.0  0.07675  0.31036  0.12929  1.0000
  C   C150      1.0  0.04210  0.48570  0.09115  1.0000
  C   C151      1.0  0.03476  0.34059  0.22129  1.0000
  H   H121      1.0  0.07022  0.27318  0.31857  1.0000
  Fe  Fe19      1.0  0.99989  0.45916  0.03214  1.0000
  C   C152      1.0  0.26831  0.42339  0.46688  1.0000
  C   C153      1.0  0.01140  0.31940  0.13107  1.0000
  C   C154      1.0  0.00561  0.33463  0.30727  1.0000
  C   C155      1.0  0.25627  0.31560  0.05684  1.0000
  C   C156      1.0  0.25551  0.31035  0.08348  1.0000
  C   C157      1.0  0.24825  0.31981  0.10229  1.0000
  C   C158      1.0  0.24195  0.33464  0.09456  1.0000
  C   C159      1.0  0.24311  0.34028  0.06797  1.0000
  C   C160      1.0  0.24999  0.33046  0.04904  1.0000
  P   P3        1.0  0.23485  0.35948  0.05863  1.0000
  C   C161      1.0  0.24028  0.39405  0.07543  1.0000
  C   C162      1.0  0.17861  0.33413  0.05596  1.0000
  C   C163      1.0  0.19825  0.33923  0.05121  1.0000
  H   H122      1.0  0.26184  0.30826  0.04220  1.0000
  H   H123      1.0  0.26050  0.29895  0.08961  1.0000
  H   H124      1.0  0.24757  0.31577  0.12299  1.0000
  H   H125      1.0  0.23630  0.34183  0.10935  1.0000
  H   H126      1.0  0.25068  0.33425  0.02830  1.0000
  H   H127      1.0  0.22772  0.39440  0.06497  1.0000
  H   H128      1.0  0.16989  0.32369  0.04491  1.0000
  H   H129      1.0  0.20465  0.33248  0.03661  1.0000
  H   H130      1.0  0.05467  0.31115  0.26583  1.0000
  C   C164      1.0  0.99780  0.36296  0.02893  1.0000
  H   H131      1.0  0.09271  0.28928  0.35059  1.0000
  C   C165      1.0  0.99405  0.37314  0.31442  1.0000
  S   S38       1.0  0.99343  0.43494  0.18220  1.0000
  Fe  Fe20      1.0  0.31810  0.36553  0.38198  1.0000
  C   C166      1.0  0.04977  0.29963  0.15984  1.0000
  C   C167      1.0  0.29757  0.29276  0.22255  1.0000
  C   C168      1.0  0.30260  0.30785  0.23748  1.0000
  C   C169      1.0  0.26064  0.35723  0.47114  1.0000
  C   C170      1.0  0.25453  0.42347  0.44858  1.0000
  H   H132      1.0  0.02243  0.25537  0.98390  1.0000
  H   H133      1.0  0.02300  0.38050  0.36477  1.0000
  H   H134      1.0  0.00441  0.28569  0.43351  1.0000
  H   H135      1.0  0.06428  0.31116  0.44439  1.0000
  C   C171      1.0  0.31412  0.31382  0.03501  1.0000
  H   H136      1.0  0.07453  0.46949  0.04883  1.0000
  H   H137      1.0  0.04004  0.38478  0.17790  1.0000
  H   H138      1.0  0.28287  0.28721  0.21832  1.0000
  H   H139      1.0  0.29178  0.31383  0.24521  1.0000
  C   C172      1.0  0.99473  0.44608  0.15083  1.0000
  C   C173      1.0  0.19184  0.31608  0.21961  1.0000
  H   H140      1.0  0.05508  0.33953  0.38239  1.0000
  C   C174      1.0  0.19537  0.40714  0.20597  1.0000
  C   C175      1.0  0.17855  0.41042  0.21572  1.0000
  C   C176      1.0  0.16820  0.39981  0.23660  1.0000
  C   C177      1.0  0.17471  0.38595  0.24777  1.0000
  C   C178      1.0  0.19191  0.38288  0.23858  1.0000
  C   C179      1.0  0.16465  0.32718  0.21009  1.0000
  C   C180      1.0  0.17231  0.34253  0.22363  1.0000
  C   C181      1.0  0.22549  0.36947  0.25020  1.0000
  C   C182      1.0  0.23463  0.36756  0.22619  1.0000
  C   C183      1.0  0.25429  0.37043  0.22414  1.0000
  C   C184      1.0  0.26507  0.37534  0.24608  1.0000
  C   C185      1.0  0.25615  0.37739  0.27009  1.0000
  C   C186      1.0  0.23644  0.37447  0.27220  1.0000
  H   H141      1.0  0.20298  0.41486  0.18904  1.0000
  H   H142      1.0  0.17322  0.42082  0.20654  1.0000
  H   H143      1.0  0.15486  0.40199  0.24368  1.0000
  H   H144      1.0  0.16616  0.37749  0.26335  1.0000
  H   H145      1.0  0.15114  0.32560  0.20112  1.0000
  H   H146      1.0  0.16444  0.35254  0.22494  1.0000
  H   H147      1.0  0.26110  0.36863  0.20556  1.0000
  H   H148      1.0  0.28031  0.37747  0.24451  1.0000
  H   H149      1.0  0.26454  0.38109  0.28714  1.0000
  H   H150      1.0  0.22991  0.37597  0.29110  1.0000
  H   H151      1.0  0.10091  0.39217  0.34832  1.0000
  H   H152      1.0  0.29560  0.30801  0.99100  1.0000
  C   C187      1.0  0.00658  0.31623  0.22716  1.0000
  H   H153      1.0  0.22715  0.37524  0.47421  1.0000
  H   H154      1.0  0.07526  0.34378  0.44281  1.0000
  C   C188      1.0  0.31152  0.28490  0.21299  1.0000
  H   H155      1.0  0.32538  0.32689  0.25404  1.0000
  H   H156      1.0  0.01061  0.29002  0.22498  1.0000
  P   P4        1.0  0.05183  0.29503  0.21404  1.0000
  H   H157      1.0  0.21708  0.34429  0.46087  1.0000
  H   H158      1.0  0.00892  0.38196  0.09223  1.0000
  C   C189      1.0  0.09739  0.29072  0.25585  1.0000
  H   H159      1.0  0.02882  0.33200  0.09725  1.0000
  C   C190      1.0  0.01924  0.35108  0.12020  1.0000
  H   H160      1.0  0.00766  0.37208  0.32095  1.0000
  C   C191      1.0  0.04678  0.49461  0.06658  1.0000
  C   C192      1.0  0.01908  0.39368  0.12880  1.0000
  H   H161      1.0  0.04783  0.30284  0.11785  1.0000
  C   C193      1.0  0.99830  0.37822  0.22944  1.0000
  S   S39       1.0  0.31962  0.34956  0.34546  1.0000
  H   H162      1.0  0.31011  0.32477  0.02537  1.0000
  H   H163      1.0  0.03214  0.48733  0.13110  1.0000
  C   C194      1.0  0.00436  0.25579  0.05633  1.0000
  Fe  Fe21      1.0  0.31287  0.33582  0.16088  1.0000
  H   H164      1.0  0.15882  0.43297  0.42837  1.0000
  H   H165      1.0  0.99922  0.25634  0.07644  1.0000
  C   C195      1.0  0.12882  0.36123  0.99922  1.0000
  C   C196      1.0  0.02129  0.32836  0.29992  1.0000
  H   H166      1.0  0.12390  0.28981  0.45052  1.0000
  H   H167      1.0  0.08948  0.46250  0.22295  1.0000
  H   H168      1.0  0.00510  0.32623  0.37355  1.0000
  H   H169      1.0  0.08259  0.31378  0.10935  1.0000
  C   C197      1.0  0.04519  0.27542  0.34032  1.0000
  C   C198      1.0  0.03780  0.42340  0.09649  1.0000
  H   H170      1.0  0.30699  0.33435  0.29633  1.0000
  C   C199      1.0  0.06234  0.36341  0.29355  1.0000
  C   C200      1.0  0.07502  0.35267  0.29347  1.0000
  C   C201      1.0  0.08286  0.34890  0.31692  1.0000
  C   C202      1.0  0.07837  0.35611  0.34032  1.0000
  C   C203      1.0  0.06598  0.36722  0.34059  1.0000
  C   C204      1.0  0.05773  0.37059  0.31702  1.0000
  P   P5        1.0  0.06199  0.37807  0.37048  1.0000
  C   C205      1.0  0.04656  0.36291  0.39440  1.0000
  C   C206      1.0  0.08441  0.38671  0.38537  1.0000
  C   C207      1.0  0.08539  0.38726  0.41290  1.0000
  C   C208      1.0  0.10286  0.39299  0.42440  1.0000
  C   C209      1.0  0.11947  0.39836  0.40858  1.0000
  C   C210      1.0  0.11861  0.39829  0.38121  1.0000
  C   C211      1.0  0.10117  0.39250  0.36960  1.0000
  C   C212      1.0  0.03584  0.36945  0.41328  1.0000
  C   C213      1.0  0.02482  0.35803  0.43288  1.0000
  C   C214      1.0  0.02422  0.33994  0.43365  1.0000
  C   C215      1.0  0.03510  0.33337  0.41530  1.0000
  C   C216      1.0  0.04640  0.34483  0.39594  1.0000
  C   C217      1.0  0.05206  0.39634  0.36154  1.0000
  C   C218      1.0  0.03239  0.39346  0.35989  1.0000
  C   C219      1.0  0.02472  0.40726  0.35127  1.0000
  C   C220      1.0  0.03657  0.42396  0.34405  1.0000
  C   C221      1.0  0.05617  0.42688  0.34531  1.0000
  C   C222      1.0  0.06392  0.41312  0.35397  1.0000
  H   H171      1.0  0.05651  0.36660  0.27529  1.0000
  H   H172      1.0  0.07918  0.34762  0.27518  1.0000
  H   H173      1.0  0.09308  0.34098  0.31686  1.0000
  H   H174      1.0  0.08519  0.35355  0.35796  1.0000
  H   H175      1.0  0.04826  0.37922  0.31633  1.0000
  H   H176      1.0  0.07280  0.38297  0.42564  1.0000
  H   H177      1.0  0.10364  0.39282  0.44563  1.0000
  H   H178      1.0  0.13303  0.40214  0.41760  1.0000
  H   H179      1.0  0.13150  0.40217  0.36886  1.0000
  H   H180      1.0  0.18722  0.33243  0.28738  1.0000
  C   C223      1.0  0.19951  0.33136  0.23326  1.0000
  C   C224      1.0  0.07084  0.29361  0.37699  1.0000
  C   C225      1.0  0.08342  0.48707  0.23372  1.0000
  H   H181      1.0  0.28129  0.37915  0.98450  1.0000
  C   C226      1.0  0.17014  0.34251  0.07499  1.0000
  H   H182      1.0  0.18316  0.32845  0.46178  1.0000
  H   H183      1.0  0.10393  0.31792  0.14653  1.0000
  C   C227      1.0  0.30412  0.36150  0.06205  1.0000
  C   C228      1.0  0.31965  0.37414  0.26155  1.0000
  H   H184      1.0  0.29827  0.31526  0.07103  1.0000
  C   C229      1.0  0.26637  0.40910  0.10116  1.0000
  C   C230      1.0  0.20951  0.35308  0.06504  1.0000
  C   C231      1.0  0.08450  0.28976  0.23595  1.0000
  C   C232      1.0  0.99427  0.46422  0.37854  1.0000
  C   C233      1.0  0.29988  0.35421  0.03750  1.0000
  C   C234      1.0  0.24680  0.37857  0.07634  1.0000
  H   H185      1.0  0.24766  0.32922  0.47001  1.0000
  S   S40       1.0  0.31620  0.39376  0.37950  1.0000
  C   C235      1.0  0.08146  0.36745  0.98741  1.0000
  H   H186      1.0  0.03858  0.26589  0.17711  1.0000
  C   C236      1.0  0.03789  0.27226  0.21830  1.0000
  H   H187      1.0  0.04235  0.47075  0.35703  1.0000
  H   H188      1.0  0.03980  0.48354  0.40067  1.0000
  C   C237      1.0  0.09486  0.29903  0.27913  1.0000
  H   H189      1.0  0.30932  0.30212  0.36314  1.0000
  C   C238      1.0  0.30303  0.31353  0.39917  1.0000
  H   H190      1.0  0.29745  0.35417  0.07956  1.0000
  H   H191      1.0  0.17874  0.32824  0.33502  1.0000
  C   C239      1.0  0.30746  0.30845  0.06084  1.0000
  H   H192      1.0  0.06096  0.33343  0.21438  1.0000
  C   C240      1.0  0.31242  0.34852  0.29256  1.0000
  H   H193      1.0  0.17905  0.35420  0.36169  1.0000
  H   H194      1.0  0.08118  0.48321  0.25449  1.0000
  H   H195      1.0  0.26940  0.36729  0.08931  1.0000
  C   C241      1.0  0.00843  0.35372  0.14235  1.0000
  C   C242      1.0  0.03845  0.28206  0.36284  1.0000
  C   C243      1.0  0.18245  0.34147  0.32571  1.0000
  C   C244      1.0  0.19235  0.36113  0.28695  1.0000
  P   P6        1.0  0.19991  0.36460  0.25263  1.0000
  C   C245      1.0  0.18989  0.34480  0.23515  1.0000
  C   C246      1.0  0.17442  0.31400  0.20798  1.0000
  H   H196      1.0  0.16856  0.30227  0.19715  1.0000
  C   C247      1.0  0.11268  0.26461  0.47144  1.0000
  H   H197      1.0  0.01208  0.30607  0.12643  1.0000
  H   H198      1.0  0.09109  0.31062  0.19194  1.0000
  C   C248      1.0  0.08518  0.45009  0.07038  1.0000
  C   C249      1.0  0.07052  0.44507  0.02848  1.0000
  C   C250      1.0  0.24143  0.36577  0.02447  1.0000
  C   C251      1.0  0.06188  0.30095  0.18096  1.0000
  H   H199      1.0  0.22645  0.36362  0.20912  1.0000
  Fe  Fe22      1.0  0.31510  0.36463  0.44342  1.0000
  C   C252      1.0  0.05720  0.30414  0.13409  1.0000
  H   H200      1.0  0.21302  0.33272  0.24213  1.0000
  H   H201      1.0  0.03260  0.31550  0.36022  1.0000
  C   C253      1.0  0.23535  0.41685  0.45588  1.0000
  H   H202      1.0  0.09000  0.45869  0.08642  1.0000
  C   C254      1.0  0.03191  0.38585  0.21849  1.0000
  C   C255      1.0  0.20092  0.36104  0.08467  1.0000
  H   H203      1.0  0.15495  0.33854  0.07874  1.0000
  H   H204      1.0  0.28635  0.39406  0.11090  1.0000
  C   C256      1.0  0.02823  0.38296  0.19201  1.0000
  H   H205      1.0  0.21290  0.36207  0.01084  1.0000
  H   H206      1.0  0.02623  0.29543  0.46905  1.0000
  H   H207      1.0  0.02556  0.28062  0.05765  1.0000
  C   C257      1.0  0.07325  0.33647  0.46165  1.0000
  C   C258      1.0  0.07649  0.45615  0.04926  1.0000
  H   H208      1.0  0.06395  0.44978  0.01198  1.0000
  H   H209      1.0  0.00069  0.31211  0.99769  1.0000
  C   C259      1.0  0.18131  0.35588  0.08941  1.0000
  C   C260      1.0  0.22785  0.36542  0.00547  1.0000
  H   H210      1.0  0.20921  0.37107  0.09665  1.0000
  H   H211      1.0  0.28990  0.34142  0.03657  1.0000
  H   H212      1.0  0.09565  0.30063  0.45939  1.0000
  C   C261      1.0  0.02825  0.28494  0.45678  1.0000
  C   C262      1.0  0.02514  0.32096  0.34550  1.0000
  H   H213      1.0  0.10353  0.37956  0.01230  1.0000
  C   C263      1.0  0.01925  0.26954  0.04576  1.0000
  C   C264      1.0  0.30841  0.36329  0.01423  1.0000
  C   C265      1.0  0.03361  0.26118  0.19691  1.0000
  C   C266      1.0  0.31240  0.35589  0.26683  1.0000
  H   H214      1.0  0.04639  0.39006  0.22452  1.0000
  H   H215      1.0  0.04296  0.31632  0.31344  1.0000
  C   C267      1.0  0.18259  0.35612  0.34087  1.0000
  H   H216      1.0  0.17480  0.36224  0.10442  1.0000
  C   C268      1.0  0.02733  0.40806  0.08527  1.0000
  H   H217      1.0  0.26571  0.35850  0.45079  1.0000
  C   C269      1.0  0.03101  0.32147  0.31904  1.0000
  H   H218      1.0  0.04474  0.43490  0.08404  1.0000
  C   C270      1.0  0.02921  0.40943  0.13992  1.0000
  H   H219      1.0  0.30677  0.34750  0.25101  1.0000
  H   H220      1.0  0.02616  0.40775  0.06415  1.0000
  H   H221      1.0  0.19957  0.30599  0.21770  1.0000
  C   C271      1.0  0.07766  0.28764  0.35388  1.0000
  C   C272      1.0  0.04127  0.49464  0.33524  1.0000
  C   C273      1.0  0.03585  0.49426  0.11204  1.0000
  C   C274      1.0  0.04577  0.32850  0.21808  1.0000
  H   H222      1.0  0.24447  0.42088  0.08795  1.0000
  C   C275      1.0  0.26072  0.37115  0.01676  1.0000
  H   H223      1.0  0.04258  0.48918  0.31615  1.0000
  H   H224      1.0  0.25878  0.42802  0.42837  1.0000
  C   C276      1.0  0.27333  0.39398  0.10134  1.0000
  C   C277      1.0  0.01515  0.33449  0.22573  1.0000
  H   H225      1.0  0.02914  0.41092  0.16097  1.0000
  H   H226      1.0  0.30057  0.32445  0.43708  1.0000
  H   H227      1.0  0.02649  0.36205  0.10706  1.0000
  C   C278      1.0  0.24986  0.40915  0.08816  1.0000
  H   H228      1.0  0.08633  0.28280  0.21836  1.0000
  C   C279      1.0  0.08802  0.47538  0.21592  1.0000
  P   P7        1.0  0.00492  0.37533  0.14936  1.0000
  H   H229      1.0  0.99370  0.31064  0.16613  1.0000
  C   C280      1.0  0.06705  0.31792  0.46264  1.0000
  C   C281      1.0  0.04130  0.48434  0.35824  1.0000
  C   C282      1.0  0.03157  0.26533  0.24380  1.0000
  H   H230      1.0  0.27142  0.37195  0.03118  1.0000
  C   C283      1.0  0.01699  0.38341  0.23721  1.0000
  H   H231      1.0  0.06857  0.44183  0.45821  1.0000
  C   C284      1.0  0.08882  0.31253  0.15027  1.0000
  H   H232      1.0  0.02577  0.32859  0.27938  1.0000
  C   C285      1.0  0.31907  0.35942  0.31351  1.0000
  C   C286      1.0  0.26359  0.37874  0.08907  1.0000
  Fe  Fe23      1.0  0.99869  0.45229  0.46945  1.0000
  C   C287      1.0  0.31342  0.29493  0.07392  1.0000
  C   C288      1.0  0.01733  0.25510  0.00413  1.0000
  C   C289      1.0  0.99455  0.37569  0.20287  1.0000
  H   H233      1.0  0.12515  0.25989  0.46717  1.0000
  C   C290      1.0  0.32163  0.31539  0.24214  1.0000
  C   C291      1.0  0.09591  0.28762  0.46729  1.0000
  C   C292      1.0  0.08796  0.49659  0.17994  1.0000
  H   H234      1.0  0.10680  0.45501  0.99406  1.0000
  C   C293      1.0  0.99950  0.33401  0.33392  1.0000
  C   C294      1.0  0.00092  0.32196  0.15339  1.0000
  C   C295      1.0  0.18746  0.34188  0.46860  1.0000
  C   C296      1.0  0.99304  0.38820  0.29945  1.0000
  C   C297      1.0  0.11203  0.28152  0.46217  1.0000
  H   H235      1.0  0.16690  0.44361  0.47298  1.0000
  C   C298      1.0  0.17223  0.43287  0.46546  1.0000
  Fe  Fe24      1.0  0.99753  0.25903  0.32044  1.0000
  S   S41       1.0  0.99734  0.46134  0.25282  1.0000
  C   C299      1.0  0.32557  0.31480  0.43327  1.0000
  S   S42       1.0  0.02952  0.26269  0.31807  1.0000
  H   H236      1.0  0.05151  0.48799  0.05031  1.0000
  H   H237      1.0  0.99809  0.33967  0.29210  1.0000
  C   C300      1.0  0.26638  0.37531  0.99034  1.0000
  C   C301      1.0  0.99937  0.33901  0.15897  1.0000
  H   H238      1.0  0.15892  0.34389  0.47618  1.0000
  C   C302      1.0  0.23359  0.36953  0.97897  1.0000
  S   S43       1.0  0.32327  0.38697  0.09483  1.0000
  H   H239      1.0  0.99644  0.47841  0.38010  1.0000
  H   H240      1.0  0.99819  0.46583  0.33601  1.0000
  Fe  Fe25      1.0  0.04909  0.43936  0.75158  1.0000
  S   S44       1.0  0.01965  0.42185  0.75231  1.0000
  S   S45       1.0  0.07309  0.42623  0.75578  1.0000
  Fe  Fe26      1.0  0.03477  0.47243  0.74814  1.0000
  H   H241      1.0  0.04419  0.36237  0.66392  1.0000
  C   C303      1.0  0.05213  0.39537  0.69481  1.0000
  Fe  Fe27      1.0  0.01189  0.44077  0.78059  1.0000
  C   C304      1.0  0.19938  0.39969  0.71248  1.0000
  Fe  Fe28      1.0  0.01495  0.44011  0.71940  1.0000
  S   S46       1.0  0.04183  0.45678  0.78244  1.0000
  S   S47       1.0  0.04501  0.45662  0.71730  1.0000
  S   S48       1.0  0.02907  0.44347  0.52707  1.0000
  C   C305      1.0  0.01791  0.34437  0.94993  1.0000
  Fe  Fe29      1.0  0.01313  0.42399  0.49859  1.0000
  S   S49       1.0  0.01354  0.39454  0.49846  1.0000
  C   C306      1.0  0.31821  0.25920  0.75979  1.0000
  H   H242      1.0  0.06386  0.42103  0.95444  1.0000
  Fe  Fe30      1.0  0.16378  0.37893  0.64877  1.0000
  S   S50       1.0  0.14570  0.35090  0.64994  1.0000
  S   S51       1.0  0.19564  0.38733  0.64457  1.0000
  Fe  Fe31      1.0  0.12988  0.39461  0.65066  1.0000
  S   S52       1.0  0.10927  0.36791  0.65150  1.0000
  S   S53       1.0  0.11890  0.41908  0.65040  1.0000
  Fe  Fe32      1.0  0.12813  0.36021  0.68107  1.0000
  S   S54       1.0  0.11575  0.34345  0.71796  1.0000
  Fe  Fe33      1.0  0.12865  0.36130  0.62021  1.0000
  S   S55       1.0  0.11804  0.34472  0.58514  1.0000
  S   S56       1.0  0.14763  0.38745  0.68210  1.0000
  S   S57       1.0  0.14783  0.38879  0.61711  1.0000
  Fe  Fe34      1.0  0.27329  0.33865  0.66407  1.0000
  S   S58       1.0  0.28946  0.36727  0.66366  1.0000
  S   S59       1.0  0.24131  0.32941  0.66462  1.0000
  C   C307      1.0  0.06491  0.29295  0.64012  1.0000
  Fe  Fe35      1.0  0.30908  0.35943  0.63385  1.0000
  C   C308      1.0  0.17053  0.31917  0.71293  1.0000
  S   S60       1.0  0.28906  0.33025  0.69731  1.0000
  S   S61       1.0  0.29173  0.33130  0.63240  1.0000
  Fe  Fe36      1.0  0.30964  0.36706  0.94461  1.0000
  S   S62       1.0  0.31096  0.39606  0.94035  1.0000
  C   C309      1.0  0.25784  0.37064  0.51283  1.0000
  H   H243      1.0  0.14627  0.42066  0.51785  1.0000
  S   S63       1.0  0.31421  0.39218  0.87671  1.0000
  C   C310      1.0  0.05196  0.43120  0.92054  1.0000
  C   C311      1.0  0.04196  0.28442  0.83769  1.0000
  Fe  Fe37      1.0  0.29059  0.38763  0.90779  1.0000
  S   S64       1.0  0.26326  0.39608  0.90206  1.0000
  S   S65       1.0  0.28832  0.35860  0.91385  1.0000
  Fe  Fe38      1.0  0.12904  0.35833  0.86839  1.0000
  S   S66       1.0  0.13460  0.33147  0.86512  1.0000
  S   S67       1.0  0.12776  0.37553  0.83175  1.0000
  Fe  Fe39      1.0  0.12886  0.35594  0.92963  1.0000
  S   S68       1.0  0.13390  0.32877  0.92947  1.0000
  H   H244      1.0  0.28557  0.30992  0.86280  1.0000
  Fe  Fe40      1.0  0.15552  0.34035  0.89672  1.0000
  S   S69       1.0  0.18534  0.33633  0.89489  1.0000
  Fe  Fe41      1.0  0.11227  0.32331  0.89795  1.0000
  S   S70       1.0  0.01138  0.47342  0.49741  1.0000
  S   S71       1.0  0.15121  0.36769  0.89796  1.0000
  S   S72       1.0  0.10586  0.34995  0.90020  1.0000
  H   H245      1.0  0.10915  0.39211  0.54281  1.0000
  S   S73       1.0  0.00105  0.42630  0.68365  1.0000
  H   H246      1.0  0.20319  0.31237  0.77500  1.0000
  S   S74       1.0  0.31209  0.34690  0.48082  1.0000
  C   C312      1.0  0.08972  0.45540  0.48401  1.0000
  C   C313      1.0  0.12133  0.44392  0.96403  1.0000
  H   H247      1.0  0.02779  0.26376  0.86578  1.0000
  C   C314      1.0  0.24346  0.33927  0.50819  1.0000
  C   C315      1.0  0.03500  0.33770  0.55235  1.0000
  H   H248      1.0  0.09852  0.48412  0.91634  1.0000
  H   H249      1.0  0.06429  0.40487  0.68559  1.0000
  C   C316      1.0  0.05805  0.29870  0.83264  1.0000
  C   C317      1.0  0.07180  0.30358  0.85170  1.0000
  H   H250      1.0  0.06000  0.30595  0.81383  1.0000
  H   H251      1.0  0.08417  0.31452  0.84753  1.0000
  C   C318      1.0  0.24147  0.37933  0.90156  1.0000
  C   C319      1.0  0.22411  0.38394  0.90421  1.0000
  C   C320      1.0  0.20673  0.37094  0.90283  1.0000
  C   C321      1.0  0.20655  0.35317  0.89871  1.0000
  C   C322      1.0  0.22386  0.34857  0.89655  1.0000
  C   C323      1.0  0.24114  0.36153  0.89776  1.0000
  H   H252      1.0  0.22410  0.39762  0.90723  1.0000
  H   H253      1.0  0.19353  0.37470  0.90487  1.0000
  H   H254      1.0  0.22399  0.33495  0.89326  1.0000
  H   H255      1.0  0.25415  0.35776  0.89452  1.0000
  H   H256      1.0  0.21444  0.34826  0.83767  1.0000
  H   H257      1.0  0.25730  0.37728  0.95097  1.0000
  C   C324      1.0  0.06979  0.29394  0.87581  1.0000
  H   H258      1.0  0.00869  0.35666  0.50038  1.0000
  H   H259      1.0  0.24927  0.30723  0.70848  1.0000
  C   C325      1.0  0.16968  0.34889  0.72483  1.0000
  H   H260      1.0  0.21069  0.33951  0.74245  1.0000
  C   C326      1.0  0.05372  0.27964  0.88079  1.0000
  H   H261      1.0  0.19583  0.31131  0.72235  1.0000
  C   C327      1.0  0.03041  0.25888  0.56685  1.0000
  C   C328      1.0  0.24030  0.31828  0.78103  1.0000
  C   C329      1.0  0.20807  0.37106  0.65018  1.0000
  C   C330      1.0  0.19872  0.35370  0.65877  1.0000
  C   C331      1.0  0.20903  0.34091  0.66253  1.0000
  C   C332      1.0  0.22873  0.34547  0.65811  1.0000
  C   C333      1.0  0.23801  0.36274  0.64910  1.0000
  C   C334      1.0  0.22774  0.37555  0.64544  1.0000
  H   H262      1.0  0.18361  0.35011  0.66271  1.0000
  H   H263      1.0  0.20175  0.32750  0.66914  1.0000
  H   H264      1.0  0.25310  0.36628  0.64495  1.0000
  H   H265      1.0  0.23505  0.38894  0.63880  1.0000
  C   C335      1.0  0.12401  0.35243  0.55202  1.0000
  C   C336      1.0  0.13314  0.37020  0.54547  1.0000
  C   C337      1.0  0.13575  0.37627  0.51889  1.0000
  C   C338      1.0  0.10675  0.45082  0.97392  1.0000
  C   C339      1.0  0.12167  0.34663  0.50507  1.0000
  C   C340      1.0  0.11871  0.34059  0.53170  1.0000
  H   H266      1.0  0.13753  0.37942  0.56086  1.0000
  H   H267      1.0  0.14234  0.39010  0.51396  1.0000
  H   H268      1.0  0.22314  0.36900  0.96418  1.0000
  H   H269      1.0  0.11184  0.32677  0.53654  1.0000
  C   C341      1.0  0.12034  0.35263  0.74925  1.0000
  C   C342      1.0  0.12430  0.37098  0.75243  1.0000
  C   C343      1.0  0.12656  0.37779  0.77778  1.0000
  C   C344      1.0  0.12529  0.36639  0.80015  1.0000
  C   C345      1.0  0.12164  0.34806  0.79689  1.0000
  C   C346      1.0  0.11904  0.34122  0.77158  1.0000
  H   H270      1.0  0.12511  0.37992  0.73548  1.0000
  H   H271      1.0  0.12921  0.39196  0.78010  1.0000
  H   H272      1.0  0.12039  0.33910  0.81389  1.0000
  H   H273      1.0  0.11590  0.32701  0.76937  1.0000
  C   C347      1.0  0.20750  0.42264  0.56298  1.0000
  C   C348      1.0  0.12962  0.36465  0.49861  1.0000
  C   C349      1.0  0.06536  0.34572  0.60181  1.0000
  C   C350      1.0  0.24696  0.35425  0.52374  1.0000
  H   H274      1.0  0.99848  0.36034  0.67488  1.0000
  C   C351      1.0  0.08634  0.42483  0.72671  1.0000
  C   C352      1.0  0.08667  0.43629  0.70481  1.0000
  C   C353      1.0  0.09687  0.43459  0.68154  1.0000
  C   C354      1.0  0.10666  0.42132  0.67997  1.0000
  C   C355      1.0  0.10643  0.40991  0.70189  1.0000
  C   C356      1.0  0.09651  0.41182  0.72531  1.0000
  H   H275      1.0  0.07913  0.44650  0.70580  1.0000
  H   H276      1.0  0.09700  0.44343  0.66464  1.0000
  H   H277      1.0  0.11392  0.39963  0.70085  1.0000
  H   H278      1.0  0.09646  0.40299  0.74222  1.0000
  S   S75       1.0  0.08714  0.29884  0.89995  1.0000
  C   C357      1.0  0.17670  0.30494  0.79702  1.0000
  H   H279      1.0  0.05812  0.26775  0.58229  1.0000
  S   S76       1.0  0.13036  0.37150  0.96709  1.0000
  H   H280      1.0  0.16213  0.35919  0.72534  1.0000
  P   P8        1.0  0.23280  0.32244  0.81379  1.0000
  C   C358      1.0  0.24325  0.30966  0.83652  1.0000
  C   C359      1.0  0.24103  0.34590  0.81983  1.0000
  C   C360      1.0  0.25979  0.35526  0.81290  1.0000
  C   C361      1.0  0.26655  0.37298  0.81948  1.0000
  C   C362      1.0  0.25447  0.38176  0.83195  1.0000
  C   C363      1.0  0.23555  0.37287  0.83753  1.0000
  C   C364      1.0  0.22889  0.35498  0.83183  1.0000
  C   C365      1.0  0.23270  0.29298  0.84699  1.0000
  C   C366      1.0  0.06356  0.29914  0.61419  1.0000
  H   H281      1.0  0.12939  0.47326  0.54835  1.0000
  H   H282      1.0  0.02145  0.47302  0.88410  1.0000
  C   C367      1.0  0.26238  0.31561  0.84251  1.0000
  C   C368      1.0  0.20721  0.31502  0.81684  1.0000
  C   C369      1.0  0.19644  0.31095  0.79446  1.0000
  H   H283      1.0  0.08392  0.28608  0.66812  1.0000
  Fe  Fe42      1.0  0.00250  0.45257  0.53037  1.0000
  C   C370      1.0  0.17815  0.30667  0.84429  1.0000
  C   C371      1.0  0.19787  0.31287  0.84178  1.0000
  H   H284      1.0  0.26934  0.34885  0.80276  1.0000
  H   H285      1.0  0.28120  0.37990  0.81508  1.0000
  H   H286      1.0  0.25980  0.39533  0.83779  1.0000
  H   H287      1.0  0.22626  0.37959  0.84761  1.0000
  H   H288      1.0  0.21810  0.28770  0.84218  1.0000
  C   C372      1.0  0.20130  0.40369  0.52551  1.0000
  C   C373      1.0  0.05165  0.35537  0.59917  1.0000
  C   C374      1.0  0.08022  0.27678  0.48169  1.0000
  H   H289      1.0  0.27112  0.32815  0.83459  1.0000
  C   C375      1.0  0.04738  0.49398  0.56756  1.0000
  C   C376      1.0  0.17938  0.36820  0.48388  1.0000
  H   H290      1.0  0.17106  0.30523  0.86364  1.0000
  H   H291      1.0  0.20579  0.31608  0.85935  1.0000
  S   S77       1.0  0.00422  0.45748  0.74771  1.0000
  H   H292      1.0  0.00460  0.26501  0.66647  1.0000
  H   H293      1.0  0.05021  0.30046  0.60711  1.0000
  P   P9        1.0  0.19896  0.37226  0.74959  1.0000
  Fe  Fe43      1.0  0.30645  0.35841  0.69508  1.0000
  S   S78       1.0  0.31249  0.34475  0.85016  1.0000
  H   H294      1.0  0.02137  0.49637  0.80440  1.0000
  H   H295      1.0  0.24869  0.33785  0.71932  1.0000
  H   H296      1.0  0.08921  0.49498  0.61323  1.0000
  H   H297      1.0  0.31891  0.39383  0.54561  1.0000
  P   P10       1.0  0.04404  0.28609  0.66188  1.0000
  C   C377      1.0  0.09852  0.29597  0.63133  1.0000
  H   H298      1.0  0.03549  0.48266  0.57256  1.0000
  C   C378      1.0  0.08266  0.42894  0.84087  1.0000
  H   H299      1.0  0.23986  0.40426  0.51963  1.0000
  C   C379      1.0  0.31343  0.34996  0.56064  1.0000
  H   H300      1.0  0.06848  0.37825  0.71001  1.0000
  C   C380      1.0  0.02240  0.31776  0.77053  1.0000
  H   H301      1.0  0.17940  0.38193  0.58191  1.0000
  H   H302      1.0  0.27396  0.36372  0.58679  1.0000
  C   C381      1.0  0.23706  0.38357  0.76289  1.0000
  H   H303      1.0  0.03105  0.35163  0.94006  1.0000
  H   H304      1.0  0.05077  0.49002  0.81883  1.0000
  C   C382      1.0  0.31155  0.35291  0.81730  1.0000
  C   C383      1.0  0.03182  0.33672  0.52532  1.0000
  H   H305      1.0  0.27367  0.30927  0.95624  1.0000
  H   H306      1.0  0.01853  0.29350  0.56944  1.0000
  C   C384      1.0  0.06925  0.30388  0.73013  1.0000
  C   C385      1.0  0.00092  0.34771  0.94246  1.0000
  H   H307      1.0  0.22203  0.36761  0.70368  1.0000
  C   C386      1.0  0.24422  0.29705  0.74869  1.0000
  C   C387      1.0  0.24651  0.32758  0.73487  1.0000
  H   H308      1.0  0.99267  0.32871  0.64190  1.0000
  C   C388      1.0  0.16119  0.33273  0.71375  1.0000
  C   C389      1.0  0.00226  0.43625  0.65151  1.0000
  H   H309      1.0  0.08310  0.35980  0.48384  1.0000
  H   H310      1.0  0.99337  0.47795  0.68322  1.0000
  C   C390      1.0  0.09234  0.47263  0.59130  1.0000
  C   C391      1.0  0.10340  0.46630  0.57263  1.0000
  C   C392      1.0  0.12035  0.47785  0.56231  1.0000
  P   P11       1.0  0.09630  0.44370  0.56176  1.0000
  C   C393      1.0  0.11762  0.43596  0.56053  1.0000
  C   C394      1.0  0.07833  0.43012  0.58454  1.0000
  C   C395      1.0  0.08219  0.41674  0.60103  1.0000
  C   C396      1.0  0.06836  0.40705  0.61931  1.0000
  C   C397      1.0  0.05051  0.41046  0.62111  1.0000
  C   C398      1.0  0.04642  0.42350  0.60450  1.0000
  C   C399      1.0  0.06015  0.43312  0.58606  1.0000
  C   C400      1.0  0.12440  0.43045  0.53690  1.0000
  C   C401      1.0  0.14114  0.42487  0.53614  1.0000
  C   C402      1.0  0.15114  0.42458  0.55899  1.0000
  C   C403      1.0  0.14468  0.43036  0.58244  1.0000
  C   C404      1.0  0.12817  0.43631  0.58311  1.0000
  C   C405      1.0  0.08709  0.44346  0.52917  1.0000
  C   C406      1.0  0.09610  0.45630  0.50964  1.0000
  C   C407      1.0  0.25283  0.37430  0.97143  1.0000
  H   H311      1.0  0.26642  0.39237  0.77245  1.0000
  H   H312      1.0  0.21425  0.43526  0.57112  1.0000
  C   C408      1.0  0.07155  0.42977  0.52253  1.0000
  C   C409      1.0  0.18397  0.35423  0.79718  1.0000
  C   C410      1.0  0.27072  0.30521  0.85873  1.0000
  C   C411      1.0  0.31569  0.37115  0.81107  1.0000
  H   H313      1.0  0.07943  0.46418  0.60019  1.0000
  C   C412      1.0  0.32191  0.26650  0.73409  1.0000
  H   H314      1.0  0.09584  0.41378  0.60024  1.0000
  H   H315      1.0  0.07171  0.39711  0.63239  1.0000
  H   H316      1.0  0.03982  0.40307  0.63538  1.0000
  H   H317      1.0  0.03262  0.42626  0.60603  1.0000
  H   H318      1.0  0.05671  0.44318  0.57332  1.0000
  H   H319      1.0  0.11683  0.43035  0.51900  1.0000
  H   H320      1.0  0.14737  0.33074  0.70564  1.0000
  H   H321      1.0  0.16385  0.41985  0.55854  1.0000
  H   H322      1.0  0.15232  0.43011  0.60029  1.0000
  H   H323      1.0  0.12344  0.44088  0.60142  1.0000
  H   H324      1.0  0.10799  0.46708  0.51395  1.0000
  C   C413      1.0  0.00946  0.45456  0.64656  1.0000
  H   H325      1.0  0.16714  0.38719  0.76415  1.0000
  S   S79       1.0  0.06530  0.48461  0.48768  1.0000
  H   H326      1.0  0.06448  0.41944  0.53685  1.0000
  H   H327      1.0  0.16398  0.30678  0.70404  1.0000
  C   C414      1.0  0.01953  0.41537  0.91279  1.0000
  C   C415      1.0  0.01951  0.40379  0.93432  1.0000
  C   C416      1.0  0.03563  0.40585  0.94898  1.0000
  C   C417      1.0  0.05178  0.41953  0.94227  1.0000
  C   C418      1.0  0.03579  0.42882  0.90559  1.0000
  H   H328      1.0  0.00682  0.41413  0.90195  1.0000
  H   H329      1.0  0.30864  0.42886  0.90972  1.0000
  H   H330      1.0  0.13254  0.43309  0.93051  1.0000
  H   H331      1.0  0.03558  0.43762  0.88873  1.0000
  C   C419      1.0  0.18197  0.33905  0.54414  1.0000
  C   C420      1.0  0.17387  0.34179  0.56843  1.0000
  C   C421      1.0  0.18544  0.34737  0.58940  1.0000
  C   C422      1.0  0.20507  0.35034  0.58604  1.0000
  C   C423      1.0  0.21339  0.34779  0.56167  1.0000
  C   C424      1.0  0.20165  0.34204  0.54073  1.0000
  P   P12       1.0  0.23890  0.35186  0.55800  1.0000
  C   C425      1.0  0.24942  0.37212  0.57407  1.0000
  C   C426      1.0  0.24661  0.33358  0.57264  1.0000
  C   C427      1.0  0.26318  0.32961  0.56271  1.0000
  C   C428      1.0  0.26914  0.31536  0.57365  1.0000
  C   C429      1.0  0.25876  0.30509  0.59480  1.0000
  C   C430      1.0  0.24248  0.30914  0.60511  1.0000
  C   C431      1.0  0.23642  0.32335  0.59415  1.0000
  C   C432      1.0  0.26669  0.37424  0.58638  1.0000
  C   C433      1.0  0.27483  0.39011  0.59840  1.0000
  C   C434      1.0  0.26590  0.40399  0.59807  1.0000
  C   C435      1.0  0.24880  0.40204  0.58564  1.0000
  C   C436      1.0  0.24060  0.38619  0.57362  1.0000
  C   C437      1.0  0.20992  0.42007  0.53614  1.0000
  H   H332      1.0  0.17297  0.33464  0.52794  1.0000
  H   H333      1.0  0.15864  0.33961  0.57100  1.0000
  H   H334      1.0  0.17924  0.34954  0.60828  1.0000
  H   H335      1.0  0.21382  0.35466  0.60248  1.0000
  H   H336      1.0  0.20753  0.33988  0.52175  1.0000
  H   H337      1.0  0.27169  0.33764  0.54669  1.0000
  H   H338      1.0  0.28206  0.31253  0.56609  1.0000
  H   H339      1.0  0.26366  0.29433  0.60372  1.0000
  H   H340      1.0  0.23483  0.30162  0.62217  1.0000
  H   H341      1.0  0.22403  0.32642  0.60294  1.0000
  H   H342      1.0  0.27221  0.41618  0.60763  1.0000
  H   H343      1.0  0.24175  0.41269  0.58568  1.0000
  H   H344      1.0  0.22733  0.38490  0.56411  1.0000
  H   H345      1.0  0.26148  0.38225  0.52454  1.0000
  C   C438      1.0  0.07685  0.38993  0.91912  1.0000
  C   C439      1.0  0.09569  0.39414  0.90964  1.0000
  C   C440      1.0  0.10004  0.39043  0.88382  1.0000
  C   C441      1.0  0.08566  0.38176  0.86783  1.0000
  C   C442      1.0  0.06674  0.37709  0.87742  1.0000
  C   C443      1.0  0.06237  0.38162  0.90298  1.0000
  P   P13       1.0  0.04822  0.36406  0.85833  1.0000
  C   C444      1.0  0.04028  0.34158  0.87231  1.0000
  C   C445      1.0  0.02916  0.37500  0.85890  1.0000
  C   C446      1.0  0.01052  0.36567  0.86657  1.0000
  H   H346      1.0  0.99353  0.30367  0.61372  1.0000
  H   H347      1.0  0.06883  0.25093  0.50131  1.0000
  C   C447      1.0  0.01832  0.40169  0.85128  1.0000
  C   C448      1.0  0.03301  0.39325  0.85220  1.0000
  C   C449      1.0  0.04799  0.33638  0.89526  1.0000
  C   C450      1.0  0.04122  0.31911  0.90620  1.0000
  C   C451      1.0  0.02685  0.30690  0.89428  1.0000
  C   C452      1.0  0.01969  0.31172  0.87085  1.0000
  C   C453      1.0  0.02651  0.32893  0.85972  1.0000
  C   C454      1.0  0.05712  0.36272  0.82494  1.0000
  C   C455      1.0  0.06602  0.34922  0.81903  1.0000
  C   C456      1.0  0.07369  0.34833  0.79371  1.0000
  C   C457      1.0  0.07297  0.36114  0.77417  1.0000
  C   C458      1.0  0.06417  0.37463  0.77982  1.0000
  C   C459      1.0  0.05613  0.37536  0.80498  1.0000
  H   H348      1.0  0.07357  0.39275  0.93919  1.0000
  H   H349      1.0  0.10697  0.39993  0.92244  1.0000
  H   H350      1.0  0.11468  0.39348  0.87652  1.0000
  H   H351      1.0  0.08955  0.37830  0.84833  1.0000
  H   H352      1.0  0.04785  0.37824  0.91069  1.0000
  H   H353      1.0  0.00709  0.35182  0.87286  1.0000
  C   C460      1.0  0.03416  0.39828  0.69313  1.0000
  C   C461      1.0  0.24100  0.28275  0.86363  1.0000
  H   H354      1.0  0.02130  0.41564  0.84514  1.0000
  H   H355      1.0  0.04733  0.40090  0.84716  1.0000
  H   H356      1.0  0.05946  0.34538  0.90455  1.0000
  H   H357      1.0  0.04752  0.31497  0.92350  1.0000
  H   H358      1.0  0.02185  0.29345  0.90261  1.0000
  H   H359      1.0  0.02066  0.32000  0.49379  1.0000
  H   H360      1.0  0.02102  0.33238  0.84133  1.0000
  H   H361      1.0  0.06747  0.33957  0.83413  1.0000
  H   H362      1.0  0.08072  0.33799  0.78947  1.0000
  H   H363      1.0  0.07962  0.36079  0.75487  1.0000
  H   H364      1.0  0.06391  0.38484  0.76487  1.0000
  H   H365      1.0  0.04955  0.38603  0.80855  1.0000
  C   C462      1.0  0.09209  0.45239  0.95787  1.0000
  C   C463      1.0  0.03866  0.36791  0.72011  1.0000
  H   H366      1.0  0.23563  0.32638  0.51643  1.0000
  C   C464      1.0  0.02040  0.37061  0.71843  1.0000
  C   C465      1.0  0.17473  0.39471  0.74705  1.0000
  C   C466      1.0  0.16846  0.40893  0.73661  1.0000
  C   C467      1.0  0.99275  0.38323  0.58356  1.0000
  C   C468      1.0  0.07998  0.46176  0.85914  1.0000
  H   H367      1.0  0.07875  0.47448  0.86574  1.0000
  C   C469      1.0  0.05033  0.47284  0.92249  1.0000
  H   H368      1.0  0.00689  0.39345  0.94003  1.0000
  H   H369      1.0  0.30374  0.33801  0.75493  1.0000
  H   H370      1.0  0.07176  0.31281  0.68955  1.0000
  H   H371      1.0  0.18335  0.37718  0.53473  1.0000
  C   C470      1.0  0.04605  0.27613  0.74131  1.0000
  C   C471      1.0  0.06004  0.29073  0.74890  1.0000
  C   C472      1.0  0.18770  0.35156  0.73509  1.0000
  C   C473      1.0  0.28850  0.31065  0.95110  1.0000
  H   H372      1.0  0.18691  0.42982  0.50026  1.0000
  H   H373      1.0  0.21860  0.43084  0.52365  1.0000
  H   H374      1.0  0.01982  0.26399  0.50316  1.0000
  C   C474      1.0  0.18839  0.32169  0.72335  1.0000
  C   C475      1.0  0.05838  0.27494  0.54095  1.0000
  C   C476      1.0  0.24687  0.31031  0.72875  1.0000
  H   H375      1.0  0.09023  0.36057  0.97650  1.0000
  C   C477      1.0  0.08341  0.45987  0.83228  1.0000
  C   C478      1.0  0.00327  0.30681  0.62946  1.0000
  C   C479      1.0  0.30705  0.34098  0.79687  1.0000
  C   C480      1.0  0.19698  0.38605  0.79914  1.0000
  H   H376      1.0  0.16846  0.30206  0.77966  1.0000
  C   C481      1.0  0.00994  0.45414  0.85492  1.0000
  C   C482      1.0  0.01063  0.46117  0.88026  1.0000
  H   H377      1.0  0.02048  0.46028  0.83971  1.0000
  C   C483      1.0  0.07963  0.30385  0.59710  1.0000
  C   C484      1.0  0.04768  0.27425  0.51841  1.0000
  C   C485      1.0  0.06520  0.30820  0.48679  1.0000
  H   H378      1.0  0.11214  0.29496  0.63801  1.0000
  H   H379      1.0  0.28808  0.39161  0.60807  1.0000
  H   H380      1.0  0.24245  0.34494  0.76504  1.0000
  H   H381      1.0  0.23829  0.29042  0.78986  1.0000
  H   H382      1.0  0.10697  0.43597  0.90189  1.0000
  P   P14       1.0  0.07258  0.44913  0.91163  1.0000
  H   H383      1.0  0.15619  0.41221  0.74561  1.0000
  C   C486      1.0  0.07174  0.38943  0.50408  1.0000
  H   H384      1.0  0.01181  0.29250  0.52199  1.0000
  C   C487      1.0  0.24317  0.33158  0.76089  1.0000
  C   C488      1.0  0.09707  0.30224  0.60567  1.0000
  H   H385      1.0  0.08477  0.47099  0.81834  1.0000
  C   C489      1.0  0.06360  0.34797  0.64915  1.0000
  H   H386      1.0  0.08840  0.49586  0.74641  1.0000
  C   C490      1.0  0.19688  0.33777  0.73449  1.0000
  H   H387      1.0  0.08226  0.33504  0.62857  1.0000
  H   H388      1.0  0.03879  0.39562  0.56175  1.0000
  C   C491      1.0  0.24083  0.30097  0.77474  1.0000
  H   H389      1.0  0.03178  0.32220  0.58920  1.0000
  H   H390      1.0  0.00457  0.38846  0.70255  1.0000
  H   H391      1.0  0.30379  0.32683  0.80140  1.0000
  H   H392      1.0  0.10175  0.40086  0.49787  1.0000
  C   C492      1.0  0.05442  0.38030  0.70849  1.0000
  H   H393      1.0  0.03350  0.49072  0.93335  1.0000
  C   C493      1.0  0.04115  0.27467  0.71498  1.0000
  C   C494      1.0  0.09188  0.44704  0.93172  1.0000
  C   C495      1.0  0.07787  0.44720  0.87707  1.0000
  H   H394      1.0  0.00473  0.25131  0.54557  1.0000
  C   C496      1.0  0.02365  0.32047  0.51446  1.0000
  C   C497      1.0  0.02840  0.26520  0.52023  1.0000
  H   H395      1.0  0.24462  0.28369  0.74386  1.0000
  H   H396      1.0  0.07160  0.34116  0.58460  1.0000
  H   H397      1.0  0.31938  0.31918  0.89794  1.0000
  H   H398      1.0  0.17249  0.42928  0.70567  1.0000
  C   C498      1.0  0.19299  0.41382  0.70196  1.0000
  C   C499      1.0  0.08489  0.44351  0.82321  1.0000
  H   H399      1.0  0.08765  0.44207  0.80243  1.0000
  H   H400      1.0  0.03800  0.46175  0.92191  1.0000
  C   C500      1.0  0.00547  0.35747  0.58063  1.0000
  H   H401      1.0  0.23212  0.38649  0.78205  1.0000
  H   H402      1.0  0.12141  0.49303  0.74144  1.0000
  Fe  Fe44      1.0  0.31259  0.36333  0.88396  1.0000
  Fe  Fe45      1.0  0.00233  0.45553  0.97141  1.0000
  H   H403      1.0  0.08088  0.45779  0.96589  1.0000
  C   C501      1.0  0.18355  0.36858  0.83859  1.0000
  C   C502      1.0  0.07890  0.43070  0.86765  1.0000
  C   C503      1.0  0.06863  0.47071  0.91785  1.0000
  C   C504      1.0  0.01314  0.25662  0.65893  1.0000
  C   C505      1.0  0.31430  0.31633  0.91831  1.0000
  C   C506      1.0  0.22432  0.37653  0.74356  1.0000
  H   H404      1.0  0.04098  0.35629  0.73017  1.0000
  C   C507      1.0  0.00317  0.30257  0.73641  1.0000
  H   H405      1.0  0.01586  0.28540  0.62172  1.0000
  C   C508      1.0  0.19307  0.37063  0.78452  1.0000
  H   H406      1.0  0.07685  0.41921  0.88102  1.0000
  C   C509      1.0  0.17925  0.35327  0.82413  1.0000
  C   C510      1.0  0.19225  0.38500  0.82610  1.0000
  C   C511      1.0  0.29511  0.31406  0.92490  1.0000
  C   C512      1.0  0.19047  0.39018  0.73534  1.0000
  C   C513      1.0  0.17766  0.41856  0.71415  1.0000
  H   H407      1.0  0.31021  0.32964  0.53199  1.0000
  Fe  Fe46      1.0  0.99373  0.26792  0.81629  1.0000
  C   C514      1.0  0.19650  0.40888  0.57943  1.0000
  C   C515      1.0  0.05055  0.28767  0.69589  1.0000
  H   H408      1.0  0.08374  0.41624  0.83367  1.0000
  C   C516      1.0  0.12586  0.49546  0.56995  1.0000
  C   C517      1.0  0.30113  0.31006  0.97091  1.0000
  C   C518      1.0  0.01836  0.38597  0.70474  1.0000
  C   C519      1.0  0.31193  0.34365  0.53491  1.0000
  C   C520      1.0  0.07531  0.33602  0.50898  1.0000
  H   H409      1.0  0.18017  0.36767  0.85951  1.0000
  C   C521      1.0  0.25660  0.38683  0.75765  1.0000
  H   H410      1.0  0.05881  0.25646  0.64330  1.0000
  H   H411      1.0  0.02360  0.34545  0.77366  1.0000
  C   C522      1.0  0.10661  0.44013  0.92191  1.0000
  C   C523      1.0  0.01499  0.30229  0.75722  1.0000
  C   C524      1.0  0.01016  0.39418  0.57425  1.0000
  C   C525      1.0  0.26002  0.28887  0.86950  1.0000
  H   H412      1.0  0.01268  0.47652  0.61819  1.0000
  C   C526      1.0  0.26356  0.38292  0.73329  1.0000
  H   H413      1.0  0.27869  0.38527  0.72933  1.0000
  H   H414      1.0  0.00327  0.34321  0.58288  1.0000
  H   H415      1.0  0.19966  0.42077  0.68392  1.0000
  H   H416      1.0  0.03145  0.31734  0.78687  1.0000
  C   C527      1.0  0.12124  0.43853  0.93808  1.0000
  C   C528      1.0  0.30696  0.34729  0.77051  1.0000
  C   C529      1.0  0.01786  0.33356  0.76304  1.0000
  C   C530      1.0  0.23152  0.37293  0.71897  1.0000
  H   H417      1.0  0.06387  0.47829  0.54839  1.0000
  H   H418      1.0  0.20363  0.39890  0.78967  1.0000
  C   C531      1.0  0.01593  0.29642  0.63421  1.0000
  H   H419      1.0  0.01176  0.40831  0.57094  1.0000
  C   C532      1.0  0.03018  0.32192  0.56819  1.0000
  H   H420      1.0  0.31938  0.38051  0.82633  1.0000
  H   H421      1.0  0.17231  0.34066  0.83399  1.0000
  C   C533      1.0  0.02536  0.38685  0.56854  1.0000
  C   C534      1.0  0.07129  0.34207  0.62672  1.0000
  C   C535      1.0  0.09050  0.39358  0.51151  1.0000
  H   H422      1.0  0.19471  0.41080  0.60028  1.0000
  H   H423      1.0  0.06360  0.29186  0.76941  1.0000
  C   C536      1.0  0.08424  0.48551  0.91933  1.0000
  C   C537      1.0  0.03281  0.26322  0.65517  1.0000
  H   H424      1.0  0.21105  0.39610  0.70239  1.0000
  C   C538      1.0  0.01890  0.30493  0.53033  1.0000
  H   H425      1.0  0.13273  0.44279  0.97645  1.0000
  C   C539      1.0  0.06450  0.30241  0.70375  1.0000
  H   H426      1.0  0.03875  0.26613  0.75611  1.0000
  C   C540      1.0  0.00585  0.33394  0.74213  1.0000
  C   C541      1.0  0.06922  0.31743  0.51003  1.0000
  C   C542      1.0  0.00269  0.32086  0.64549  1.0000
  P   P15       1.0  0.04308  0.35904  0.56711  1.0000
  C   C543      1.0  0.02310  0.36843  0.57160  1.0000
  C   C544      1.0  0.04412  0.36139  0.62182  1.0000
  C   C545      1.0  0.31697  0.37980  0.54273  1.0000
  C   C546      1.0  0.25101  0.37600  0.71397  1.0000
  H   H427      1.0  0.00116  0.35773  0.92708  1.0000
  C   C547      1.0  0.08251  0.29120  0.64845  1.0000
  C   C548      1.0  0.02801  0.29987  0.65535  1.0000
  C   C549      1.0  0.18783  0.39259  0.56902  1.0000
  C   C550      1.0  0.99643  0.35903  0.51048  1.0000
  H   H428      1.0  0.10958  0.30619  0.59255  1.0000
  H   H429      1.0  0.06839  0.34529  0.66843  1.0000
  C   C551      1.0  0.02255  0.30558  0.55710  1.0000
  C   C552      1.0  0.04340  0.49725  0.83147  1.0000
  H   H430      1.0  0.01809  0.28995  0.76331  1.0000
  H   H431      1.0  0.27364  0.41648  0.50665  1.0000
  H   H432      1.0  0.03620  0.31698  0.68807  1.0000
  H   H433      1.0  0.02999  0.26342  0.70972  1.0000
  C   C553      1.0  0.99492  0.42557  0.63064  1.0000
  C   C554      1.0  0.99698  0.45332  0.90030  1.0000
  S   S80       1.0  0.31376  0.37460  0.73152  1.0000
  H   H434      1.0  0.08014  0.31522  0.73604  1.0000
  C   C555      1.0  0.09472  0.38846  0.53666  1.0000
  H   H435      1.0  0.18031  0.34221  0.78639  1.0000
  H   H436      1.0  0.31347  0.27489  0.72610  1.0000
  Fe  Fe47      1.0  0.30926  0.32593  0.66557  1.0000
  H   H437      1.0  0.07872  0.30911  0.57734  1.0000
  H   H438      1.0  0.25643  0.37298  0.69509  1.0000
  C   C556      1.0  0.01475  0.32450  0.66640  1.0000
  C   C557      1.0  0.99591  0.37427  0.86628  1.0000
  C   C558      1.0  0.02728  0.31401  0.67146  1.0000
  H   H439      1.0  0.99838  0.28257  0.94257  1.0000
  H   H440      1.0  0.15224  0.29834  0.82399  1.0000
  H   H441      1.0  0.07342  0.28132  0.53981  1.0000
  C   C559      1.0  0.00807  0.46224  0.62144  1.0000
  H   H442      1.0  0.08433  0.37439  0.57298  1.0000
  C   C560      1.0  0.08043  0.37837  0.55387  1.0000
  S   S81       1.0  0.02602  0.27753  0.81222  1.0000
  C   C561      1.0  0.03982  0.27499  0.86194  1.0000
  C   C562      1.0  0.05729  0.37998  0.52165  1.0000
  H   H443      1.0  0.03533  0.34839  0.51241  1.0000
  C   C563      1.0  0.05012  0.35772  0.64664  1.0000
  P   P16       1.0  0.20509  0.40051  0.49087  1.0000
  H   H444      1.0  0.04276  0.37762  0.51595  1.0000
  H   H445      1.0  0.05208  0.27206  0.89931  1.0000
  C   C564      1.0  0.06158  0.37359  0.54622  1.0000
  H   H446      1.0  0.11704  0.33749  0.48963  1.0000
  C   C565      1.0  0.25033  0.34077  0.48200  1.0000
  H   H447      1.0  0.01544  0.46285  0.66234  1.0000
  H   H448      1.0  0.23270  0.27002  0.87183  1.0000
  H   H449      1.0  0.28540  0.31537  0.90984  1.0000
  C   C566      1.0  0.19016  0.38996  0.54217  1.0000
  H   H450      1.0  0.26650  0.28092  0.88226  1.0000
  H   H451      1.0  0.19532  0.39687  0.83742  1.0000
  H   H452      1.0  0.03361  0.36893  0.62055  1.0000
  H   H453      1.0  0.07887  0.34310  0.52685  1.0000
  C   C567      1.0  0.16755  0.30281  0.82193  1.0000
  H   H454      1.0  0.05688  0.35643  0.96614  1.0000
  C   C568      1.0  0.06339  0.49148  0.55407  1.0000
  C   C569      1.0  0.99518  0.43956  0.84910  1.0000
  C   C570      1.0  0.31304  0.35538  0.51294  1.0000
  H   H455      1.0  0.06790  0.31044  0.52892  1.0000
  H   H456      1.0  0.01430  0.33535  0.67893  1.0000
  C   C571      1.0  0.00023  0.45161  0.60076  1.0000
  C   C572      1.0  0.09714  0.25372  0.48577  1.0000
  C   C573      1.0  0.26291  0.41677  0.49261  1.0000
  Fe  Fe48      1.0  0.03715  0.46360  0.49287  1.0000
  C   C574      1.0  0.06488  0.42923  0.49706  1.0000
  H   H457      1.0  0.31877  0.39153  0.78035  1.0000
  C   C575      1.0  0.31163  0.36561  0.76434  1.0000
  C   C576      1.0  0.09794  0.49021  0.59902  1.0000
  H   H458      1.0  0.32508  0.28051  0.51403  1.0000
  C   C577      1.0  0.04976  0.26727  0.56504  1.0000
  S   S82       1.0  0.31921  0.37681  0.59654  1.0000
  H   H459      1.0  0.00607  0.49458  0.54056  1.0000
  H   H460      1.0  0.06833  0.39370  0.48478  1.0000
  H   H461      1.0  0.31648  0.38271  0.50037  1.0000
  C   C578      1.0  0.26454  0.37210  0.48655  1.0000
  C   C579      1.0  0.31608  0.36810  0.56467  1.0000
  H   H462      1.0  0.03248  0.41021  0.68298  1.0000
  H   H463      1.0  0.00924  0.30191  0.86096  1.0000
  C   C580      1.0  0.04769  0.48937  0.92896  1.0000
  C   C581      1.0  0.99840  0.31826  0.72905  1.0000
  H   H464      1.0  0.03096  0.32878  0.97566  1.0000
  C   C582      1.0  0.24373  0.40992  0.49990  1.0000
  C   C583      1.0  0.31556  0.37741  0.78485  1.0000
  C   C584      1.0  0.01785  0.33152  0.96981  1.0000
  H   H465      1.0  0.16867  0.37499  0.48906  1.0000
  H   H466      1.0  0.31548  0.43949  0.86323  1.0000
  H   H467      1.0  0.31294  0.34082  0.57728  1.0000
  C   C585      1.0  0.31549  0.37350  0.51702  1.0000
  P   P17       1.0  0.99975  0.35434  0.73278  1.0000
  H   H468      1.0  0.99724  0.29046  0.72645  1.0000
  H   H469      1.0  0.03532  0.39726  0.96620  1.0000
  C   C586      1.0  0.99978  0.39219  0.85821  1.0000
  S   S83       1.0  0.02782  0.44486  0.97485  1.0000
  C   C587      1.0  0.19859  0.37727  0.48357  1.0000
  C   C588      1.0  0.18364  0.42502  0.48086  1.0000
  S   S84       1.0  0.99289  0.43047  0.81737  1.0000
  H   H470      1.0  0.05244  0.41903  0.49233  1.0000
  C   C589      1.0  0.32221  0.43789  0.90386  1.0000
  S   S85       1.0  0.99589  0.46191  0.57083  1.0000
  C   C590      1.0  0.08093  0.25972  0.49079  1.0000
  C   C591      1.0  0.99408  0.43318  0.60532  1.0000
  C   C592      1.0  0.99466  0.37659  0.51162  1.0000
  C   C593      1.0  0.04357  0.25189  0.64586  1.0000
  C   C594      1.0  0.01976  0.25780  0.54440  1.0000
  H   H471      1.0  0.02366  0.25312  0.58556  1.0000
  C   C595      1.0  0.22979  0.41002  0.48162  1.0000
  C   C596      1.0  0.07753  0.34550  0.48478  1.0000
  S   S86       1.0  0.99555  0.46427  0.93015  1.0000
  C   C597      1.0  0.32060  0.31315  0.96470  1.0000
  P   P18       1.0  0.05891  0.28411  0.48726  1.0000
  H   H472      1.0  0.30677  0.26183  0.77179  1.0000
  S   S87       1.0  0.32240  0.30275  0.66778  1.0000
  C   C598      1.0  0.07399  0.44200  0.47779  1.0000
  H   H473      1.0  0.27289  0.38470  0.47797  1.0000
  Fe  Fe49      1.0  0.04888  0.61076  0.24250  1.0000
  S   S88       1.0  0.01739  0.60478  0.24860  1.0000
  S   S89       1.0  0.06833  0.61231  0.27679  1.0000
  Fe  Fe50      1.0  0.04704  0.61305  0.18150  1.0000
  S   S90       1.0  0.01536  0.60739  0.18365  1.0000
  S   S91       1.0  0.06596  0.61710  0.14396  1.0000
  Fe  Fe51      1.0  0.01939  0.62609  0.21707  1.0000
  Fe  Fe52      1.0  0.01665  0.58675  0.21506  1.0000
  S   S92       1.0  0.05109  0.63334  0.21284  1.0000
  S   S93       1.0  0.04815  0.59111  0.21075  1.0000
  S   S94       1.0  0.06445  0.63847  0.45695  1.0000
  Fe  Fe53      1.0  0.05782  0.61496  0.43074  1.0000
  S   S95       1.0  0.03860  0.61357  0.39620  1.0000
  C   C599      1.0  0.02343  0.56474  0.32767  1.0000
  S   S96       1.0  0.04026  0.61606  0.02521  1.0000
  S   S97       1.0  0.08779  0.61273  0.42688  1.0000
  H   H474      1.0  0.04747  0.54192  0.26364  1.0000
  S   S98       1.0  0.03272  0.72507  0.08358  1.0000
  H   H475      1.0  0.00854  0.63403  0.27195  1.0000
  H   H476      1.0  0.03278  0.57248  0.39303  1.0000
  C   C600      1.0  0.02254  0.56106  0.40221  1.0000
  C   C601      1.0  0.05812  0.61589  0.11127  1.0000
  C   C602      1.0  0.03903  0.61321  0.10559  1.0000
  C   C603      1.0  0.03366  0.61292  0.07918  1.0000
  C   C604      1.0  0.04729  0.61524  0.05824  1.0000
  C   C605      1.0  0.06627  0.61751  0.06402  1.0000
  C   C606      1.0  0.07164  0.61794  0.09035  1.0000
  H   H477      1.0  0.02847  0.61166  0.12151  1.0000
  H   H478      1.0  0.01891  0.61111  0.07495  1.0000
  H   H479      1.0  0.07684  0.61921  0.04820  1.0000
  H   H480      1.0  0.08640  0.61992  0.09456  1.0000
  C   C607      1.0  0.05992  0.61309  0.30981  1.0000
  C   C608      1.0  0.04149  0.61430  0.31595  1.0000
  C   C609      1.0  0.03513  0.61434  0.34242  1.0000
  C   C610      1.0  0.04722  0.61353  0.36308  1.0000
  C   C611      1.0  0.06574  0.61263  0.35690  1.0000
  C   C612      1.0  0.07204  0.61247  0.33043  1.0000
  H   H481      1.0  0.03212  0.61522  0.30034  1.0000
  H   H482      1.0  0.02078  0.61500  0.34683  1.0000
  H   H483      1.0  0.07523  0.61198  0.37247  1.0000
  H   H484      1.0  0.08640  0.61182  0.32591  1.0000
  H   H485      1.0  0.04601  0.51362  0.99078  1.0000
  C   C613      1.0  0.16374  0.70182  0.43559  1.0000
  C   C614      1.0  0.03700  0.51905  0.36130  1.0000
  S   S99       1.0  0.09083  0.56910  0.46644  1.0000
  C   C615      1.0  0.04701  0.68927  0.98691  1.0000
  C   C616      1.0  0.02625  0.51913  0.25215  1.0000
  C   C617      1.0  0.00839  0.51323  0.24172  1.0000
  C   C618      1.0  0.00748  0.54389  0.23268  1.0000
  C   C619      1.0  0.02473  0.54969  0.24474  1.0000
  C   C620      1.0  0.03402  0.53734  0.25461  1.0000
  H   H486      1.0  0.03087  0.56368  0.24678  1.0000
  P   P19       1.0  0.03383  0.54125  0.36315  1.0000
  C   C621      1.0  0.02015  0.54409  0.39212  1.0000
  H   H487      1.0  0.07525  0.68200  0.13007  1.0000
  C   C622      1.0  0.13346  0.67963  0.44211  1.0000
  C   C623      1.0  0.05955  0.66282  0.27789  1.0000
  C   C624      1.0  0.04892  0.67097  0.29438  1.0000
  C   C625      1.0  0.04568  0.68728  0.28654  1.0000
  C   C626      1.0  0.05312  0.69546  0.26222  1.0000
  C   C627      1.0  0.06384  0.68738  0.24553  1.0000
  C   C628      1.0  0.06702  0.67098  0.25358  1.0000
  C   C629      1.0  0.05435  0.69766  0.19161  1.0000
  C   C630      1.0  0.04443  0.70309  0.14762  1.0000
  C   C631      1.0  0.02098  0.69054  0.18230  1.0000
  C   C632      1.0  0.03530  0.69096  0.19993  1.0000
  H   H488      1.0  0.06181  0.65002  0.28381  1.0000
  H   H489      1.0  0.04285  0.66444  0.31299  1.0000
  H   H490      1.0  0.03697  0.69330  0.29910  1.0000
  H   H491      1.0  0.07512  0.66429  0.24121  1.0000
  H   H492      1.0  0.03138  0.68567  0.21982  1.0000
  H   H493      1.0  0.06693  0.66812  0.17933  1.0000
  H   H494      1.0  0.10311  0.50996  0.99943  1.0000
  C   C633      1.0  0.02104  0.54687  0.33582  1.0000
  C   C634      1.0  0.01642  0.68403  0.03727  1.0000
  C   C635      1.0  0.06610  0.67569  0.11510  1.0000
  H   H495      1.0  0.03126  0.69004  0.03980  1.0000
  H   H496      1.0  0.02186  0.54907  0.16490  1.0000
  C   C636      1.0  0.01201  0.71255  0.41939  1.0000
  C   C637      1.0  0.08022  0.57768  0.10381  1.0000
  C   C638      1.0  0.09161  0.58290  0.08082  1.0000
  C   C639      1.0  0.08577  0.57526  0.05704  1.0000
  C   C640      1.0  0.06836  0.56268  0.05614  1.0000
  C   C641      1.0  0.05651  0.55789  0.07895  1.0000
  C   C642      1.0  0.06288  0.56499  0.10298  1.0000
  P   P20       1.0  0.03377  0.54206  0.07753  1.0000
  C   C643      1.0  0.01636  0.54659  0.10054  1.0000
  C   C644      1.0  0.02418  0.54429  0.04580  1.0000
  C   C645      1.0  0.01794  0.56392  0.10887  1.0000
  C   C646      1.0  0.03760  0.52023  0.08323  1.0000
  C   C647      1.0  0.04478  0.51188  0.06271  1.0000
  C   C648      1.0  0.03372  0.51150  0.10815  1.0000
  H   H497      1.0  0.08463  0.58371  0.12225  1.0000
  H   H498      1.0  0.10490  0.59293  0.08142  1.0000
  H   H499      1.0  0.09458  0.57922  0.03915  1.0000
  H   H500      1.0  0.06408  0.55695  0.03750  1.0000
  H   H501      1.0  0.05430  0.56104  0.12099  1.0000
  H   H502      1.0  0.02948  0.57488  0.10148  1.0000
  H   H503      1.0  0.04837  0.51855  0.04354  1.0000
  C   C649      1.0  0.10201  0.57009  0.24892  1.0000
  C   C650      1.0  0.08377  0.56841  0.24024  1.0000
  C   C651      1.0  0.07661  0.55614  0.22128  1.0000
  H   H504      1.0  0.10742  0.57958  0.26369  1.0000
  H   H505      1.0  0.07506  0.57652  0.24842  1.0000
  H   H506      1.0  0.06228  0.55488  0.21557  1.0000
  Fe  Fe54      1.0  0.09410  0.63516  0.45492  1.0000
  S   S100      1.0  0.12168  0.65740  0.45335  1.0000
  C   C652      1.0  0.99958  0.55595  0.29543  1.0000
  C   C653      1.0  0.12443  0.69208  0.43140  1.0000
  H   H507      1.0  0.12827  0.71888  0.41432  1.0000
  H   H508      1.0  0.10926  0.68831  0.42956  1.0000
  P   P21       1.0  0.07314  0.69809  0.21402  1.0000
  C   C654      1.0  0.08641  0.72063  0.21951  1.0000
  C   C655      1.0  0.09630  0.72440  0.24271  1.0000
  C   C656      1.0  0.05878  0.70329  0.16513  1.0000
  C   C657      1.0  0.08895  0.68623  0.19954  1.0000
  C   C658      1.0  0.08181  0.67197  0.18345  1.0000
  C   C659      1.0  0.09369  0.66209  0.17321  1.0000
  C   C660      1.0  0.11273  0.66616  0.17934  1.0000
  C   C661      1.0  0.11994  0.68021  0.19561  1.0000
  C   C662      1.0  0.10812  0.69026  0.20563  1.0000
  H   H509      1.0  0.05025  0.70791  0.25614  1.0000
  H   H510      1.0  0.09590  0.71400  0.25755  1.0000
  H   H511      1.0  0.07335  0.70773  0.15796  1.0000
  H   H512      1.0  0.08799  0.65097  0.16103  1.0000
  H   H513      1.0  0.12180  0.65825  0.17176  1.0000
  H   H514      1.0  0.13465  0.68322  0.20064  1.0000
  H   H515      1.0  0.11394  0.70094  0.21841  1.0000
  C   C663      1.0  0.11252  0.64983  0.05069  1.0000
  C   C664      1.0  0.10351  0.66045  0.06535  1.0000
  C   C665      1.0  0.10684  0.67870  0.05880  1.0000
  C   C666      1.0  0.11988  0.68625  0.03804  1.0000
  P   P22       1.0  0.09506  0.69221  0.07795  1.0000
  C   C667      1.0  0.10855  0.70030  0.10603  1.0000
  C   C668      1.0  0.10388  0.71374  0.12050  1.0000
  C   C669      1.0  0.12390  0.69371  0.11331  1.0000
  C   C670      1.0  0.07190  0.67839  0.08835  1.0000
  C   C671      1.0  0.06007  0.66905  0.06965  1.0000
  C   C672      1.0  0.04243  0.65780  0.07732  1.0000
  C   C673      1.0  0.03657  0.65551  0.10391  1.0000
  C   C674      1.0  0.04845  0.66434  0.12281  1.0000
  H   H516      1.0  0.09382  0.65436  0.08162  1.0000
  H   H517      1.0  0.09217  0.71908  0.11506  1.0000
  H   H518      1.0  0.12782  0.68336  0.10247  1.0000
  H   H519      1.0  0.06470  0.67025  0.04919  1.0000
  H   H520      1.0  0.03354  0.65042  0.06270  1.0000
  H   H521      1.0  0.02308  0.64646  0.10994  1.0000
  C   C675      1.0  0.06720  0.56279  0.33949  1.0000
  H   H522      1.0  0.06070  0.55980  0.32079  1.0000
  C   C676      1.0  0.08544  0.57406  0.33971  1.0000
  P   P23       1.0  0.07871  0.52919  0.18652  1.0000
  C   C677      1.0  0.05362  0.52596  0.18264  1.0000
  C   C678      1.0  0.05744  0.55565  0.36323  1.0000
  C   C679      1.0  0.10616  0.54992  0.15054  1.0000
  C   C680      1.0  0.04667  0.54019  0.17349  1.0000
  H   H523      1.0  0.13800  0.71948  0.16548  1.0000
  C   C681      1.0  0.11310  0.55944  0.23876  1.0000
  C   C682      1.0  0.02730  0.53781  0.17027  1.0000
  H   H524      1.0  0.09269  0.57989  0.32136  1.0000
  H   H525      1.0  0.04405  0.66213  0.14348  1.0000
  C   C683      1.0  0.10597  0.54717  0.21977  1.0000
  C   C684      1.0  0.06772  0.53868  0.98724  1.0000
  S   S101      1.0  0.09110  0.61696  0.99483  1.0000
  C   C685      1.0  0.08771  0.54551  0.21067  1.0000
  Fe  Fe55      1.0  0.06042  0.61526  0.99026  1.0000
  H   H526      1.0  0.12716  0.56059  0.24576  1.0000
  C   C686      1.0  0.07286  0.73979  0.29730  1.0000
  C   C687      1.0  0.08124  0.52748  0.13203  1.0000
  C   C688      1.0  0.08968  0.53596  0.15415  1.0000
  H   H527      1.0  0.11464  0.53885  0.21231  1.0000
  H   H528      1.0  0.05614  0.55327  0.16959  1.0000
  C   C689      1.0  0.10955  0.72604  0.05451  1.0000
  H   H529      1.0  0.10816  0.58701  0.36378  1.0000
  C   C690      1.0  0.09414  0.57808  0.36358  1.0000
  C   C691      1.0  0.09351  0.71158  0.05830  1.0000
  C   C692      1.0  0.06650  0.55929  0.38708  1.0000
  C   C693      1.0  0.08473  0.57057  0.38723  1.0000
  H   H530      1.0  0.06374  0.70217  0.05047  1.0000
  H   H531      1.0  0.04797  0.70750  0.12723  1.0000
  H   H532      1.0  0.06847  0.51678  0.13439  1.0000
  H   H533      1.0  0.03105  0.73734  0.27474  1.0000
  C   C694      1.0  0.13522  0.70944  0.42277  1.0000
  C   C695      1.0  0.07649  0.71272  0.04727  1.0000
  H   H534      1.0  0.08119  0.71667  0.31170  1.0000
  H   H535      1.0  0.10962  0.63571  0.05545  1.0000
  C   C696      1.0  0.07563  0.72799  0.03257  1.0000
  C   C697      1.0  0.11431  0.72042  0.14207  1.0000
  C   C698      1.0  0.99726  0.66893  0.30112  1.0000
  H   H536      1.0  0.08442  0.72316  0.42386  1.0000
  C   C699      1.0  0.08924  0.53269  0.10675  1.0000
  C   C700      1.0  0.00890  0.68344  0.01216  1.0000
  H   H537      1.0  0.02424  0.71936  0.02505  1.0000
  H   H538      1.0  0.05951  0.55349  0.40560  1.0000
  H   H539      1.0  0.02085  0.72554  0.41337  1.0000
  C   C701      1.0  0.10575  0.54646  0.10333  1.0000
  C   C702      1.0  0.11418  0.55509  0.12520  1.0000
  H   H540      1.0  0.07717  0.51223  0.23878  1.0000
  C   C703      1.0  0.02601  0.56130  0.03419  1.0000
  H   H541      1.0  0.03347  0.57526  0.33693  1.0000
  C   C704      1.0  0.08407  0.73104  0.31157  1.0000
  H   H542      1.0  0.05208  0.54405  0.47085  1.0000
  C   C705      1.0  0.09964  0.53629  0.99247  1.0000
  C   C706      1.0  0.03000  0.73119  0.23399  1.0000
  Fe  Fe56      1.0  0.07959  0.59383  0.46241  1.0000
  H   H543      1.0  0.01344  0.57676  0.43149  1.0000
  C   C707      1.0  0.99514  0.53226  0.42554  1.0000
  H   H544      1.0  0.03328  0.57314  0.04396  1.0000
  H   H545      1.0  0.09151  0.57352  0.40577  1.0000
  C   C708      1.0  0.12976  0.71404  0.14898  1.0000
  H   H546      1.0  0.02882  0.51787  0.12450  1.0000
  C   C709      1.0  0.99894  0.52563  0.23216  1.0000
  H   H547      1.0  0.11510  0.74448  0.26435  1.0000
  C   C710      1.0  0.00636  0.53128  0.00874  1.0000
  C   C711      1.0  0.09308  0.51781  0.99601  1.0000
  C   C712      1.0  0.08753  0.73445  0.20055  1.0000
  H   H548      1.0  0.00455  0.51983  0.33087  1.0000
  C   C713      1.0  0.00465  0.67747  0.05955  1.0000
  H   H549      1.0  0.99855  0.51962  0.99909  1.0000
  C   C714      1.0  0.08725  0.54690  0.98729  1.0000
  C   C715      1.0  0.02177  0.50664  0.18304  1.0000
  H   H550      1.0  0.05783  0.54673  0.98434  1.0000
  C   C716      1.0  0.99534  0.67890  0.27851  1.0000
  C   C717      1.0  0.09525  0.53582  0.47553  1.0000
  C   C718      1.0  0.01487  0.52101  0.17483  1.0000
  H   H551      1.0  0.00611  0.58057  0.13387  1.0000
  H   H552      1.0  0.09625  0.67918  0.99139  1.0000
  C   C719      1.0  0.99617  0.69112  0.45371  1.0000
  H   H553      1.0  0.11183  0.55059  0.08368  1.0000
  C   C720      1.0  0.12892  0.67559  0.02355  1.0000
  P   P24       1.0  0.07024  0.73581  0.47226  1.0000
  C   C721      1.0  0.06616  0.66887  0.99762  1.0000
  H   H554      1.0  0.08959  0.49985  0.15906  1.0000
  C   C722      1.0  0.06254  0.53663  0.47372  1.0000
  H   H555      1.0  0.01509  0.58295  0.30070  1.0000
  C   C723      1.0  0.07544  0.73172  0.41841  1.0000
  H   H556      1.0  0.07867  0.72757  0.37703  1.0000
  H   H557      1.0  0.01969  0.57646  0.00121  1.0000
  C   C724      1.0  0.07227  0.73422  0.39177  1.0000
  H   H558      1.0  0.10783  0.73410  0.33653  1.0000
  C   C725      1.0  0.12506  0.65737  0.02964  1.0000
  H   H559      1.0  0.12296  0.70026  0.03261  1.0000
  C   C726      1.0  0.13454  0.70068  0.13463  1.0000
  C   C727      1.0  0.04844  0.67248  0.99621  1.0000
  H   H560      1.0  0.12281  0.72568  0.06310  1.0000
  C   C728      1.0  0.99741  0.63157  0.38925  1.0000
  C   C729      1.0  0.00788  0.70783  0.44606  1.0000
  C   C730      1.0  0.99782  0.67249  0.25356  1.0000
  H   H561      1.0  0.00736  0.70443  0.37960  1.0000
  C   C731      1.0  0.99676  0.53818  0.30390  1.0000
  H   H562      1.0  0.03587  0.66203  0.00196  1.0000
  H   H563      1.0  0.11457  0.54241  0.99369  1.0000
  C   C732      1.0  0.06100  0.51991  0.99116  1.0000
  C   C733      1.0  0.02552  0.72622  0.00600  1.0000
  H   H564      1.0  0.06718  0.65583  0.00462  1.0000
  H   H565      1.0  0.03702  0.51431  0.40356  1.0000
  C   C734      1.0  0.08256  0.68202  0.99019  1.0000
  C   C735      1.0  0.08110  0.50351  0.22471  1.0000
  H   H566      1.0  0.03945  0.51974  0.31858  1.0000
  Fe  Fe57      1.0  0.00178  0.72567  0.08009  1.0000
  H   H567      1.0  0.01840  0.71939  0.23749  1.0000
  S   S102      1.0  0.17034  0.73519  0.41302  1.0000
  S   S103      1.0  0.00088  0.72784  0.32392  1.0000
  H   H568      1.0  0.11054  0.73070  0.15324  1.0000
  C   C736      1.0  0.10718  0.74163  0.24668  1.0000
  C   C737      1.0  0.06689  0.73998  0.43777  1.0000
  C   C738      1.0  0.00432  0.70067  0.40033  1.0000
  H   H569      1.0  0.05633  0.70173  0.44655  1.0000
  H   H570      1.0  0.01364  0.71718  0.46082  1.0000
  C   C739      1.0  0.04813  0.74112  0.10237  1.0000
  S   S104      1.0  0.99346  0.67651  0.33247  1.0000
  H   H571      1.0  0.00335  0.51672  0.39540  1.0000
  C   C740      1.0  0.01389  0.52930  0.03322  1.0000
  H   H572      1.0  0.11279  0.55694  0.16711  1.0000
  H   H573      1.0  0.01145  0.51607  0.04234  1.0000
  H   H574      1.0  0.07347  0.73481  0.08749  1.0000
  C   C741      1.0  0.01828  0.56324  0.00988  1.0000
  H   H575      1.0  0.12686  0.56591  0.12250  1.0000
  H   H576      1.0  0.06138  0.73187  0.28678  1.0000
  S   S105      1.0  0.04924  0.59488  0.46489  1.0000
  H   H577      1.0  0.13864  0.68133  0.00713  1.0000
  C   C742      1.0  0.00722  0.53365  0.32430  1.0000
  C   C743      1.0  0.02590  0.74428  0.00499  1.0000
  H   H578      1.0  0.13166  0.64909  0.01776  1.0000
  C   C744      1.0  0.00606  0.52978  0.40356  1.0000
  H   H579      1.0  0.00640  0.68504  0.18889  1.0000
  C   C745      1.0  0.99786  0.54913  0.43581  1.0000
  C   C746      1.0  0.13156  0.73099  0.47666  1.0000
  H   H580      1.0  0.99834  0.51970  0.10176  1.0000
  C   C747      1.0  0.03932  0.51198  0.33671  1.0000
  H   H581      1.0  0.08255  0.52614  0.08978  1.0000
  C   C748      1.0  0.00240  0.65620  0.25098  1.0000
  H   H582      1.0  0.14651  0.69571  0.14003  1.0000
  C   C749      1.0  0.08129  0.69874  0.98089  1.0000
  H   H583      1.0  0.06236  0.72893  0.02466  1.0000
  C   C750      1.0  0.04103  0.50913  0.18720  1.0000
  C   C751      1.0  0.00041  0.53298  0.10899  1.0000
  C   C752      1.0  0.06357  0.70235  0.97908  1.0000
  C   C753      1.0  0.03792  0.50892  0.38435  1.0000
  H   H584      1.0  0.99660  0.72809  0.20740  1.0000
  S   S106      1.0  0.09767  0.57000  0.98027  1.0000
  C   C754      1.0  0.15310  0.68485  0.44444  1.0000
  C   C755      1.0  0.07382  0.50938  0.99514  1.0000
  C   C756      1.0  0.15506  0.71430  0.42462  1.0000
  C   C757      1.0  0.09174  0.74215  0.02852  1.0000
  C   C758      1.0  0.09901  0.74082  0.32559  1.0000
  C   C759      1.0  0.02549  0.69678  0.15621  1.0000
  H   H585      1.0  0.00215  0.49919  0.24017  1.0000
  H   H586      1.0  0.17896  0.70524  0.43699  1.0000
  C   C760      1.0  0.01150  0.56354  0.42404  1.0000
  C   C761      1.0  0.08327  0.50841  0.19775  1.0000
  H   H587      1.0  0.01144  0.63277  0.38053  1.0000
  H   H588      1.0  0.99981  0.51924  0.17286  1.0000
  C   C762      1.0  0.06784  0.74312  0.10032  1.0000
  S   S107      1.0  0.03969  0.50431  0.26124  1.0000
  P   P25       1.0  0.02399  0.69347  0.98384  1.0000
  H   H589      1.0  0.01440  0.69649  0.14252  1.0000
  H   H590      1.0  0.99633  0.68029  0.23626  1.0000
  H   H591      1.0  0.01051  0.67847  0.07890  1.0000
  C   C763      1.0  0.01286  0.56921  0.30736  1.0000
  H   H592      1.0  0.00702  0.65305  0.41471  1.0000
  H   H593      1.0  0.08001  0.73235  0.18266  1.0000
  C   C764      1.0  0.00480  0.64647  0.27363  1.0000
  C   C765      1.0  0.00206  0.65274  0.29868  1.0000
  S   S108      1.0  0.00470  0.64826  0.21930  1.0000
  H   H594      1.0  0.03138  0.72884  0.19188  1.0000
  H   H595      1.0  0.16028  0.67548  0.45259  1.0000
  H   H596      1.0  0.99320  0.68785  0.47447  1.0000
  C   C766      1.0  0.10913  0.74695  0.46212  1.0000
  C   C767      1.0  0.99482  0.64312  0.40863  1.0000
  C   C768      1.0  0.05007  0.70049  0.46631  1.0000
  C   C769      1.0  0.02641  0.71722  0.98270  1.0000
  C   C770      1.0  0.06067  0.74509  0.38418  1.0000
  C   C771      1.0  0.03727  0.74139  0.25515  1.0000
  C   C772      1.0  0.00453  0.56728  0.12694  1.0000
  H   H597      1.0  0.00370  0.64504  0.31613  1.0000
  H   H598      1.0  0.99652  0.63306  0.46077  1.0000
  S   S109      1.0  0.99687  0.55934  0.21751  1.0000
  C   C773      1.0  0.03778  0.68424  0.47495  1.0000
  C   C774      1.0  0.03722  0.73651  0.20839  1.0000
  H   H599      1.0  0.03466  0.67325  0.46185  1.0000
  C   C775      1.0  0.10869  0.74115  0.03949  1.0000
  C   C776      1.0  0.08187  0.54568  0.47228  1.0000
  H   H600      1.0  0.14590  0.72955  0.47630  1.0000
  C   C777      1.0  0.12769  0.74535  0.46302  1.0000
  H   H601      1.0  0.11017  0.54255  0.47432  1.0000
  C   C778      1.0  0.09425  0.73407  0.47498  1.0000
  C   C779      1.0  0.00861  0.54824  0.99703  1.0000
  H   H602      1.0  0.05794  0.74675  0.36357  1.0000
  H   H603      1.0  0.04590  0.49793  0.19438  1.0000
  H   H604      1.0  0.00261  0.54979  0.97820  1.0000
  Fe  Fe58      1.0  0.05921  0.61103  0.74136  1.0000
  S   S110      1.0  0.02758  0.60530  0.74637  1.0000
  S   S111      1.0  0.07947  0.61456  0.77497  1.0000
  Fe  Fe59      1.0  0.05835  0.61392  0.68026  1.0000
  S   S112      1.0  0.02681  0.60883  0.68140  1.0000
  S   S113      1.0  0.07666  0.61669  0.64244  1.0000
  Fe  Fe60      1.0  0.03079  0.62708  0.71524  1.0000
  S   S114      1.0  0.01791  0.65028  0.71677  1.0000
  Fe  Fe61      1.0  0.02691  0.58754  0.71232  1.0000
  S   S115      1.0  0.00651  0.56029  0.71092  1.0000
  S   S116      1.0  0.06237  0.63379  0.71200  1.0000
  S   S117      1.0  0.05844  0.59161  0.70925  1.0000
  Fe  Fe62      1.0  0.09655  0.63483  0.95786  1.0000
  S   S118      1.0  0.06584  0.63444  0.95493  1.0000
  S   S119      1.0  0.11831  0.66176  0.96049  1.0000
  H   H605      1.0  0.09445  0.50490  0.83708  1.0000
  H   H606      1.0  0.13775  0.60270  0.81966  1.0000
  H   H607      1.0  0.04696  0.52960  0.66603  1.0000
  Fe  Fe63      1.0  0.06421  0.61059  0.93039  1.0000
  S   S120      1.0  0.04681  0.60689  0.89380  1.0000
  C   C780      1.0  0.01656  0.50967  0.83989  1.0000
  S   S121      1.0  0.04327  0.62181  0.52900  1.0000
  S   S122      1.0  0.09521  0.61160  0.93172  1.0000
  S   S123      1.0  0.00667  0.72805  0.82303  1.0000
  S   S124      1.0  0.16183  0.73024  0.88938  1.0000
  H   H608      1.0  0.05613  0.53878  0.75162  1.0000
  C   C781      1.0  0.00773  0.67997  0.77635  1.0000
  C   C782      1.0  0.05685  0.51784  0.47847  1.0000
  H   H609      1.0  0.12619  0.74465  0.70989  1.0000
  H   H610      1.0  0.12632  0.73157  0.86907  1.0000
  C   C783      1.0  0.11880  0.50598  0.74420  1.0000
  Fe  Fe64      1.0  0.08621  0.59369  0.96851  1.0000
  H   H611      1.0  0.16403  0.61952  0.50042  1.0000
  H   H612      1.0  0.14312  0.54243  0.80123  1.0000
  H   H613      1.0  0.08234  0.52519  0.75173  1.0000
  C   C784      1.0  0.12730  0.68105  0.93922  1.0000
  C   C785      1.0  0.13115  0.67993  0.91225  1.0000
  C   C786      1.0  0.14120  0.69521  0.89711  1.0000
  C   C787      1.0  0.14716  0.71188  0.90851  1.0000
  C   C788      1.0  0.14240  0.71316  0.93513  1.0000
  C   C789      1.0  0.13278  0.69782  0.95040  1.0000
  H   H614      1.0  0.01903  0.73124  0.63321  1.0000
  H   H615      1.0  0.14483  0.69403  0.87658  1.0000
  H   H616      1.0  0.14692  0.72581  0.94427  1.0000
  H   H617      1.0  0.11884  0.51532  0.59404  1.0000
  H   H618      1.0  0.17864  0.71249  0.49074  1.0000
  H   H619      1.0  0.99960  0.50314  0.58515  1.0000
  H   H620      1.0  0.16745  0.61412  0.79252  1.0000
  C   C790      1.0  0.16882  0.71103  0.50764  1.0000
  H   H621      1.0  0.12013  0.51278  0.80240  1.0000
  C   C791      1.0  0.08989  0.73271  0.66832  1.0000
  H   H622      1.0  0.00423  0.69250  0.77802  1.0000
  H   H623      1.0  0.07576  0.71366  0.55014  1.0000
  H   H624      1.0  0.11597  0.67532  0.49963  1.0000
  C   C792      1.0  0.06695  0.61772  0.61114  1.0000
  C   C793      1.0  0.04946  0.62160  0.60828  1.0000
  C   C794      1.0  0.04235  0.62270  0.58305  1.0000
  C   C795      1.0  0.05266  0.61996  0.56040  1.0000
  C   C796      1.0  0.07011  0.61598  0.56332  1.0000
  C   C797      1.0  0.07721  0.61489  0.58854  1.0000
  H   H625      1.0  0.04150  0.62395  0.62548  1.0000
  H   H626      1.0  0.02887  0.62585  0.58105  1.0000
  H   H627      1.0  0.07818  0.61372  0.54617  1.0000
  H   H628      1.0  0.09065  0.61171  0.59053  1.0000
  C   C798      1.0  0.07048  0.61330  0.80804  1.0000
  C   C799      1.0  0.05114  0.61071  0.81396  1.0000
  C   C800      1.0  0.04418  0.60897  0.84029  1.0000
  C   C801      1.0  0.05649  0.61007  0.86106  1.0000
  C   C802      1.0  0.07593  0.61315  0.85524  1.0000
  C   C803      1.0  0.08289  0.61461  0.82882  1.0000
  H   H629      1.0  0.04151  0.61010  0.79827  1.0000
  H   H630      1.0  0.02917  0.60692  0.84461  1.0000
  H   H631      1.0  0.08549  0.61439  0.87115  1.0000
  H   H632      1.0  0.09791  0.61679  0.82447  1.0000
  C   C804      1.0  0.01566  0.65795  0.74855  1.0000
  C   C805      1.0  0.01992  0.64903  0.77096  1.0000
  C   C806      1.0  0.01739  0.65526  0.79614  1.0000
  C   C807      1.0  0.01098  0.67065  0.79888  1.0000
  C   C808      1.0  0.02426  0.51605  0.86364  1.0000
  H   H633      1.0  0.04689  0.51767  0.88989  1.0000
  H   H634      1.0  0.02495  0.63726  0.76906  1.0000
  H   H635      1.0  0.02023  0.64808  0.81343  1.0000
  C   C809      1.0  0.00274  0.56740  0.83435  1.0000
  C   C810      1.0  0.10024  0.50754  0.74707  1.0000
  C   C811      1.0  0.03398  0.51705  0.74017  1.0000
  C   C812      1.0  0.01621  0.51207  0.72911  1.0000
  C   C813      1.0  0.00746  0.52531  0.72035  1.0000
  C   C814      1.0  0.01646  0.54338  0.72288  1.0000
  C   C815      1.0  0.03382  0.54805  0.73468  1.0000
  C   C816      1.0  0.04258  0.53500  0.74295  1.0000
  C   C817      1.0  0.05653  0.74678  0.86601  1.0000
  H   H636      1.0  0.02986  0.72039  0.94013  1.0000
  H   H637      1.0  0.04045  0.56176  0.73783  1.0000
  H   H638      1.0  0.08714  0.70977  0.49957  1.0000
  C   C818      1.0  0.04223  0.55254  0.54769  1.0000
  C   C819      1.0  0.05182  0.55070  0.60512  1.0000
  C   C820      1.0  0.04914  0.56707  0.61299  1.0000
  C   C821      1.0  0.04541  0.56973  0.63946  1.0000
  C   C822      1.0  0.04427  0.55612  0.65842  1.0000
  H   H639      1.0  0.17074  0.60250  0.74823  1.0000
  C   C823      1.0  0.03870  0.56943  0.54537  1.0000
  C   C824      1.0  0.02676  0.57313  0.52630  1.0000
  C   C825      1.0  0.01877  0.56028  0.50868  1.0000
  C   C826      1.0  0.02269  0.54368  0.51014  1.0000
  C   C827      1.0  0.03424  0.53976  0.52956  1.0000
  H   H640      1.0  0.05062  0.57812  0.59905  1.0000
  H   H641      1.0  0.04363  0.58249  0.64532  1.0000
  H   H642      1.0  0.04137  0.55824  0.67890  1.0000
  H   H643      1.0  0.04570  0.58008  0.55736  1.0000
  H   H644      1.0  0.02423  0.58621  0.52448  1.0000
  H   H645      1.0  0.12013  0.70729  0.50058  1.0000
  C   C828      1.0  0.03744  0.73879  0.87295  1.0000
  H   H646      1.0  0.03739  0.52693  0.52940  1.0000
  C   C829      1.0  0.10231  0.73029  0.56172  1.0000
  C   C830      1.0  0.99574  0.55948  0.58886  1.0000
  H   H647      1.0  0.01042  0.58747  0.80293  1.0000
  C   C831      1.0  0.00751  0.57340  0.80822  1.0000
  C   C832      1.0  0.12498  0.74766  0.83434  1.0000
  H   H648      1.0  0.00597  0.62431  0.50404  1.0000
  S   S125      1.0  0.08903  0.61594  0.49028  1.0000
  C   C833      1.0  0.08655  0.57064  0.53796  1.0000
  C   C834      1.0  0.14306  0.58416  0.75081  1.0000
  H   H649      1.0  0.11272  0.72123  0.67964  1.0000
  C   C835      1.0  0.02869  0.72684  0.95841  1.0000
  H   H650      1.0  0.08939  0.56649  0.60454  1.0000
  H   H651      1.0  0.01665  0.71444  0.88445  1.0000
  C   C836      1.0  0.99898  0.69016  0.94296  1.0000
  C   C837      1.0  0.00495  0.57725  0.59276  1.0000
  C   C838      1.0  0.11462  0.50166  0.58823  1.0000
  H   H652      1.0  0.01013  0.56343  0.49331  1.0000
  H   H653      1.0  0.01400  0.59715  0.62128  1.0000
  H   H654      1.0  0.05293  0.73339  0.62449  1.0000
  C   C839      1.0  0.00693  0.58341  0.61823  1.0000
  C   C840      1.0  0.04594  0.72003  0.77671  1.0000
  C   C841      1.0  0.04211  0.71308  0.75198  1.0000
  C   C842      1.0  0.05136  0.70066  0.74279  1.0000
  C   C843      1.0  0.06470  0.69545  0.75804  1.0000
  C   C844      1.0  0.06915  0.70290  0.78252  1.0000
  C   C845      1.0  0.05945  0.71505  0.79193  1.0000
  P   P26       1.0  0.08681  0.69674  0.80213  1.0000
  C   C846      1.0  0.07591  0.68070  0.82822  1.0000
  C   C847      1.0  0.10166  0.68709  0.78114  1.0000
  C   C848      1.0  0.09630  0.66882  0.77653  1.0000
  C   C849      1.0  0.10755  0.66137  0.75988  1.0000
  C   C850      1.0  0.12414  0.67205  0.74762  1.0000
  C   C851      1.0  0.12948  0.69024  0.75191  1.0000
  C   C852      1.0  0.11830  0.69776  0.76856  1.0000
  C   C853      1.0  0.08677  0.67109  0.84180  1.0000
  C   C854      1.0  0.07840  0.65868  0.86204  1.0000
  C   C855      1.0  0.05909  0.65555  0.86856  1.0000
  C   C856      1.0  0.04816  0.66490  0.85494  1.0000
  C   C857      1.0  0.05653  0.67749  0.83495  1.0000
  C   C858      1.0  0.10129  0.71671  0.81533  1.0000
  C   C859      1.0  0.10566  0.73273  0.80007  1.0000
  H   H655      1.0  0.01061  0.58627  0.57603  1.0000
  C   C860      1.0  0.06361  0.71813  0.87283  1.0000
  C   C861      1.0  0.12050  0.73188  0.84981  1.0000
  C   C862      1.0  0.10885  0.71641  0.84031  1.0000
  H   H656      1.0  0.17417  0.73917  0.51251  1.0000
  H   H657      1.0  0.03137  0.71678  0.74046  1.0000
  H   H658      1.0  0.04758  0.69452  0.72434  1.0000
  H   H659      1.0  0.07126  0.68547  0.75074  1.0000
  H   H660      1.0  0.06215  0.72053  0.81114  1.0000
  H   H661      1.0  0.08338  0.66029  0.78566  1.0000
  H   H662      1.0  0.10336  0.64727  0.75651  1.0000
  H   H663      1.0  0.13284  0.66620  0.73484  1.0000
  H   H664      1.0  0.14236  0.69856  0.74246  1.0000
  H   H665      1.0  0.12278  0.71187  0.77154  1.0000
  H   H666      1.0  0.10173  0.67321  0.83679  1.0000
  H   H667      1.0  0.08680  0.65132  0.87256  1.0000
  H   H668      1.0  0.05255  0.64571  0.88395  1.0000
  H   H669      1.0  0.03310  0.66226  0.85957  1.0000
  H   H670      1.0  0.04772  0.68450  0.82469  1.0000
  H   H671      1.0  0.10020  0.73333  0.78064  1.0000
  H   H672      1.0  0.99305  0.69970  0.95302  1.0000
  H   H673      1.0  0.14206  0.56838  0.96974  1.0000
  H   H674      1.0  0.00898  0.52701  0.63708  1.0000
  H   H675      1.0  0.10598  0.70435  0.85257  1.0000
  C   C863      1.0  0.09007  0.66616  0.64323  1.0000
  C   C864      1.0  0.09267  0.66189  0.66944  1.0000
  C   C865      1.0  0.09084  0.67359  0.68904  1.0000
  C   C866      1.0  0.08656  0.68963  0.68237  1.0000
  C   C867      1.0  0.08489  0.69445  0.65586  1.0000
  C   C868      1.0  0.08632  0.68240  0.63638  1.0000
  P   P27       1.0  0.07898  0.71502  0.64719  1.0000
  C   C869      1.0  0.05363  0.71154  0.65102  1.0000
  C   C870      1.0  0.04478  0.72311  0.63799  1.0000
  C   C871      1.0  0.02560  0.72196  0.64311  1.0000
  C   C872      1.0  0.01505  0.70915  0.66136  1.0000
  C   C873      1.0  0.02362  0.69717  0.67392  1.0000
  C   C874      1.0  0.04279  0.69827  0.66865  1.0000
  C   C875      1.0  0.08764  0.72170  0.61368  1.0000
  C   C876      1.0  0.07684  0.71476  0.59235  1.0000
  C   C877      1.0  0.08426  0.71887  0.56649  1.0000
  C   C878      1.0  0.16619  0.72610  0.51982  1.0000
  C   C879      1.0  0.01369  0.66535  0.91660  1.0000
  H   H676      1.0  0.06291  0.71531  0.97148  1.0000
  H   H677      1.0  0.09071  0.65670  0.62830  1.0000
  H   H678      1.0  0.09555  0.64924  0.67459  1.0000
  H   H679      1.0  0.09217  0.67000  0.70950  1.0000
  H   H680      1.0  0.08438  0.69817  0.69793  1.0000
  H   H681      1.0  0.08434  0.68536  0.61594  1.0000
  C   C880      1.0  0.13915  0.53209  0.93303  1.0000
  C   C881      1.0  0.08155  0.50205  0.92582  1.0000
  C   C882      1.0  0.99643  0.50290  0.54354  1.0000
  H   H682      1.0  0.01555  0.68701  0.68786  1.0000
  H   H683      1.0  0.04900  0.68883  0.67865  1.0000
  H   H684      1.0  0.06268  0.70625  0.59565  1.0000
  C   C883      1.0  0.00962  0.67345  0.75136  1.0000
  P   P28       1.0  0.05885  0.54813  0.57113  1.0000
  C   C884      1.0  0.08110  0.56446  0.56400  1.0000
  H   H685      1.0  0.09359  0.51322  0.92826  1.0000
  C   C885      1.0  0.04455  0.71026  0.87961  1.0000
  H   H686      1.0  0.14832  0.51993  0.74197  1.0000
  C   C886      1.0  0.09682  0.52422  0.75023  1.0000
  C   C887      1.0  0.11187  0.53954  0.75089  1.0000
  C   C888      1.0  0.13050  0.53789  0.74769  1.0000
  P   P29       1.0  0.10688  0.56110  0.75326  1.0000
  C   C889      1.0  0.08622  0.55927  0.77476  1.0000
  C   C890      1.0  0.08191  0.54666  0.79590  1.0000
  C   C891      1.0  0.06585  0.54526  0.81237  1.0000
  C   C892      1.0  0.05414  0.55662  0.80815  1.0000
  C   C893      1.0  0.05861  0.56950  0.78761  1.0000
  C   C894      1.0  0.07457  0.57081  0.77096  1.0000
  C   C895      1.0  0.10261  0.56898  0.72075  1.0000
  C   C896      1.0  0.09541  0.55691  0.70139  1.0000
  C   C897      1.0  0.09232  0.56309  0.67623  1.0000
  C   C898      1.0  0.09616  0.58133  0.67025  1.0000
  C   C899      1.0  0.10316  0.59344  0.68943  1.0000
  C   C900      1.0  0.10628  0.58732  0.71463  1.0000
  C   C901      1.0  0.15768  0.62885  0.51032  1.0000
  Fe  Fe65      1.0  0.05914  0.61811  0.49086  1.0000
  C   C902      1.0  0.03149  0.72060  0.87972  1.0000
  H   H687      1.0  0.14243  0.54939  0.74755  1.0000
  H   H688      1.0  0.09079  0.53779  0.79948  1.0000
  H   H689      1.0  0.06249  0.53544  0.82845  1.0000
  H   H690      1.0  0.04167  0.55552  0.82086  1.0000
  H   H691      1.0  0.04971  0.57850  0.78446  1.0000
  H   H692      1.0  0.07770  0.58079  0.75507  1.0000
  H   H693      1.0  0.09196  0.54272  0.70562  1.0000
  H   H694      1.0  0.08671  0.55373  0.66143  1.0000
  H   H695      1.0  0.09329  0.58610  0.65095  1.0000
  H   H696      1.0  0.10554  0.60757  0.68495  1.0000
  C   C903      1.0  0.10580  0.73305  0.60868  1.0000
  H   H697      1.0  0.13885  0.50430  0.56166  1.0000
  C   C904      1.0  0.04639  0.51112  0.57355  1.0000
  H   H698      1.0  0.99500  0.54485  0.86150  1.0000
  C   C905      1.0  0.11384  0.74534  0.69918  1.0000
  H   H699      1.0  0.16047  0.68270  0.50655  1.0000
  C   C906      1.0  0.11693  0.71834  0.49003  1.0000
  H   H700      1.0  0.01980  0.66968  0.50690  1.0000
  C   C907      1.0  0.11530  0.59031  0.55267  1.0000
  C   C908      1.0  0.07752  0.52327  0.55267  1.0000
  C   C909      1.0  0.01402  0.68444  0.95359  1.0000
  H   H701      1.0  0.10774  0.58802  0.51213  1.0000
  C   C910      1.0  0.04119  0.51274  0.87147  1.0000
  C   C911      1.0  0.04601  0.71246  0.50886  1.0000
  C   C912      1.0  0.03353  0.69630  0.51730  1.0000
  C   C913      1.0  0.09829  0.71983  0.48929  1.0000
  H   H702      1.0  0.11444  0.73863  0.62469  1.0000
  C   C914      1.0  0.99685  0.63331  0.50277  1.0000
  H   H703      1.0  0.11918  0.58938  0.59439  1.0000
  H   H704      1.0  0.99498  0.63609  0.54467  1.0000
  H   H705      1.0  0.01699  0.52333  0.87634  1.0000
  C   C915      1.0  0.00874  0.56128  0.78901  1.0000
  H   H706      1.0  0.00691  0.53403  0.78088  1.0000
  Fe  Fe66      1.0  0.00554  0.73314  0.56965  1.0000
  C   C916      1.0  0.07092  0.66658  0.52522  1.0000
  H   H707      1.0  0.15049  0.73608  0.54964  1.0000
  H   H708      1.0  0.04926  0.72307  0.52253  1.0000
  H   H709      1.0  0.02706  0.69478  0.53703  1.0000
  H   H710      1.0  0.03810  0.72899  0.78423  1.0000
  H   H711      1.0  0.00936  0.49816  0.72711  1.0000
  H   H712      1.0  0.15025  0.53932  0.97097  1.0000
  H   H713      1.0  0.05658  0.66493  0.51905  1.0000
  H   H714      1.0  0.11175  0.57950  0.80359  1.0000
  C   C917      1.0  0.00509  0.54313  0.79583  1.0000
  C   C918      1.0  0.15929  0.65177  0.54189  1.0000
  C   C919      1.0  0.14145  0.65359  0.53484  1.0000
  C   C920      1.0  0.13178  0.64278  0.51562  1.0000
  P   P30       1.0  0.13185  0.67028  0.55002  1.0000
  C   C921      1.0  0.13273  0.66600  0.58501  1.0000
  C   C922      1.0  0.14545  0.69212  0.53836  1.0000
  C   C923      1.0  0.14221  0.70738  0.54965  1.0000
  C   C924      1.0  0.15278  0.72430  0.54066  1.0000
  C   C925      1.0  0.99908  0.67147  0.90583  1.0000
  H   H715      1.0  0.99447  0.55506  0.56893  1.0000
  C   C926      1.0  0.15848  0.69411  0.51678  1.0000
  C   C927      1.0  0.14292  0.67890  0.60137  1.0000
  C   C928      1.0  0.14372  0.67491  0.62826  1.0000
  C   C929      1.0  0.13470  0.65796  0.63889  1.0000
  C   C930      1.0  0.12487  0.64495  0.62263  1.0000
  C   C931      1.0  0.12392  0.64894  0.59580  1.0000
  C   C932      1.0  0.10787  0.66880  0.54076  1.0000
  C   C933      1.0  0.09264  0.66487  0.55950  1.0000
  C   C934      1.0  0.07425  0.66380  0.55169  1.0000
  C   C935      1.0  0.02513  0.67095  0.61997  1.0000
  C   C936      1.0  0.00682  0.64801  0.65060  1.0000
  H   H716      1.0  0.01266  0.56598  0.76882  1.0000
  H   H717      1.0  0.08900  0.53439  0.54564  1.0000
  H   H718      1.0  0.16707  0.66010  0.55653  1.0000
  H   H719      1.0  0.11814  0.64393  0.50960  1.0000
  H   H720      1.0  0.13153  0.70621  0.56540  1.0000
  H   H721      1.0  0.06120  0.51661  0.93647  1.0000
  H   H722      1.0  0.09054  0.50408  0.53549  1.0000
  H   H723      1.0  0.18120  0.63820  0.53497  1.0000
  H   H724      1.0  0.15050  0.69194  0.59356  1.0000
  H   H725      1.0  0.15144  0.68497  0.64083  1.0000
  H   H726      1.0  0.13527  0.65490  0.65972  1.0000
  H   H727      1.0  0.11775  0.63182  0.63082  1.0000
  H   H728      1.0  0.11628  0.63874  0.58338  1.0000
  H   H729      1.0  0.09476  0.66242  0.58002  1.0000
  H   H730      1.0  0.06245  0.66022  0.56601  1.0000
  H   H731      1.0  0.01725  0.53398  0.49567  1.0000
  C   C937      1.0  0.08603  0.67088  0.50659  1.0000
  C   C938      1.0  0.06150  0.52593  0.56632  1.0000
  H   H732      1.0  0.11111  0.59692  0.72948  1.0000
  S   S126      1.0  0.00106  0.74295  0.75201  1.0000
  C   C939      1.0  0.15791  0.59723  0.76035  1.0000
  H   H733      1.0  0.03681  0.65264  0.64236  1.0000
  C   C940      1.0  0.05412  0.71482  0.48311  1.0000
  H   H734      1.0  0.12729  0.66716  0.90338  1.0000
  C   C941      1.0  0.15607  0.60379  0.78528  1.0000
  C   C942      1.0  0.99980  0.74693  0.69791  1.0000
  C   C943      1.0  0.04735  0.53995  0.65107  1.0000
  C   C944      1.0  0.16733  0.63940  0.52972  1.0000
  C   C945      1.0  0.11299  0.73747  0.58282  1.0000
  H   H735      1.0  0.14447  0.57959  0.73113  1.0000
  C   C946      1.0  0.06959  0.73631  0.86587  1.0000
  C   C947      1.0  0.05130  0.53728  0.62461  1.0000
  H   H736      1.0  0.12839  0.60037  0.54818  1.0000
  H   H737      1.0  0.03255  0.66688  0.94809  1.0000
  H   H738      1.0  0.14253  0.51932  0.93376  1.0000
  C   C948      1.0  0.13913  0.55979  0.95322  1.0000
  C   C949      1.0  0.12461  0.58405  0.79136  1.0000
  C   C950      1.0  0.02117  0.67179  0.94035  1.0000
  H   H739      1.0  0.10783  0.73400  0.54171  1.0000
  C   C951      1.0  0.10361  0.58345  0.53236  1.0000
  C   C952      1.0  0.10442  0.67213  0.51437  1.0000
  S   S127      1.0  0.05530  0.59127  0.96534  1.0000
  C   C953      1.0  0.02413  0.65675  0.63792  1.0000
  C   C954      1.0  0.12636  0.57730  0.76635  1.0000
  H   H740      1.0  0.13259  0.62271  0.48777  1.0000
  C   C955      1.0  0.10599  0.73196  0.68215  1.0000
  C   C956      1.0  0.09312  0.57114  0.58431  1.0000
  H   H741      1.0  0.07768  0.56553  0.52188  1.0000
  C   C957      1.0  0.13992  0.63056  0.50329  1.0000
  H   H742      1.0  0.05436  0.52487  0.61981  1.0000
  H   H743      1.0  0.03359  0.51290  0.58311  1.0000
  C   C958      1.0  0.02939  0.68221  0.50033  1.0000
  H   H744      1.0  0.03855  0.67779  0.61030  1.0000
  H   H745      1.0  0.07369  0.71005  0.87273  1.0000
  C   C959      1.0  0.06351  0.55658  0.91945  1.0000
  C   C960      1.0  0.05333  0.56235  0.89981  1.0000
  C   C961      1.0  0.06163  0.56695  0.87460  1.0000
  C   C962      1.0  0.08019  0.56598  0.86906  1.0000
  C   C963      1.0  0.09074  0.56073  0.88895  1.0000
  C   C964      1.0  0.08216  0.55575  0.91412  1.0000
  P   P31       1.0  0.11530  0.56133  0.88206  1.0000
  C   C965      1.0  0.11618  0.54671  0.85547  1.0000
  C   C966      1.0  0.12917  0.58397  0.87518  1.0000
  C   C967      1.0  0.14902  0.58768  0.87300  1.0000
  C   C968      1.0  0.16001  0.60526  0.86996  1.0000
  C   C969      1.0  0.15131  0.61929  0.86948  1.0000
  C   C970      1.0  0.13161  0.61576  0.87200  1.0000
  C   C971      1.0  0.12060  0.59821  0.87496  1.0000
  C   C972      1.0  0.13050  0.55118  0.83546  1.0000
  C   C973      1.0  0.13188  0.53898  0.81640  1.0000
  C   C974      1.0  0.11898  0.52227  0.81711  1.0000
  C   C975      1.0  0.10449  0.51782  0.83670  1.0000
  C   C976      1.0  0.10301  0.53002  0.85575  1.0000
  C   C977      1.0  0.12569  0.55373  0.91046  1.0000
  C   C978      1.0  0.13034  0.53726  0.91125  1.0000
  H   H746      1.0  0.00030  0.70863  0.66572  1.0000
  H   H747      1.0  0.00645  0.63716  0.66458  1.0000
  C   C979      1.0  0.13393  0.52115  0.74451  1.0000
  C   C980      1.0  0.13010  0.56490  0.93168  1.0000
  H   H748      1.0  0.05716  0.55338  0.93910  1.0000
  H   H749      1.0  0.03923  0.56386  0.90434  1.0000
  H   H750      1.0  0.05392  0.57207  0.85973  1.0000
  H   H751      1.0  0.08661  0.57017  0.84961  1.0000
  H   H752      1.0  0.08989  0.55169  0.92990  1.0000
  H   H753      1.0  0.15603  0.57701  0.87442  1.0000
  H   H754      1.0  0.17532  0.60804  0.86870  1.0000
  H   H755      1.0  0.15981  0.63294  0.86777  1.0000
  H   H756      1.0  0.12484  0.62665  0.87238  1.0000
  H   H757      1.0  0.10550  0.59596  0.87806  1.0000
  H   H758      1.0  0.14075  0.56394  0.83459  1.0000
  C   C981      1.0  0.13939  0.59727  0.80067  1.0000
  S   S128      1.0  0.00683  0.67810  0.83032  1.0000
  C   C982      1.0  0.99999  0.57178  0.63982  1.0000
  H   H759      1.0  0.09191  0.52630  0.87111  1.0000
  H   H760      1.0  0.12730  0.52837  0.89522  1.0000
  C   C983      1.0  0.11009  0.58410  0.57864  1.0000
  H   H761      1.0  0.01924  0.65557  0.90651  1.0000
  S   S129      1.0  0.04647  0.50178  0.75073  1.0000
  H   H762      1.0  0.12637  0.57752  0.93180  1.0000
  H   H763      1.0  0.03984  0.69611  0.88443  1.0000
  C   C984      1.0  0.14360  0.54338  0.95396  1.0000
  C   C985      1.0  0.99908  0.53687  0.82169  1.0000
  H   H764      1.0  0.00681  0.68071  0.73419  1.0000
  H   H765      1.0  0.00979  0.68790  0.60149  1.0000
  S   S130      1.0  0.03766  0.73791  0.56997  1.0000
  C   C986      1.0  0.00888  0.67663  0.61503  1.0000
  H   H766      1.0  0.99348  0.66663  0.88721  1.0000
  C   C987      1.0  0.06328  0.50395  0.93068  1.0000
  C   C988      1.0  0.08264  0.74772  0.67050  1.0000
  H   H767      1.0  0.04200  0.51090  0.47945  1.0000
  P   P32       1.0  0.99428  0.51347  0.83081  1.0000
  C   C989      1.0  0.99874  0.51456  0.64223  1.0000
  H   H768      1.0  0.12998  0.69895  0.97118  1.0000
  C   C990      1.0  0.99291  0.50802  0.56888  1.0000
  H   H769      1.0  0.99387  0.52156  0.71144  1.0000
  H   H770      1.0  0.06325  0.49989  0.86237  1.0000
  H   H771      1.0  0.01626  0.50675  0.67123  1.0000
  C   C991      1.0  0.07847  0.50608  0.54679  1.0000
  C   C992      1.0  0.05051  0.50295  0.85575  1.0000
  H   H772      1.0  0.02700  0.74642  0.87250  1.0000
  C   C993      1.0  0.02892  0.74487  0.95746  1.0000
  H   H773      1.0  0.00223  0.57687  0.84937  1.0000
  H   H774      1.0  0.08351  0.67290  0.48597  1.0000
  H   H775      1.0  0.03525  0.74499  0.48869  1.0000
  C   C994      1.0  0.99858  0.54921  0.84110  1.0000
  C   C995      1.0  0.00299  0.50309  0.66148  1.0000
  H   H776      1.0  0.12678  0.74671  0.57918  1.0000
  H   H777      1.0  0.08434  0.74221  0.86023  1.0000
  H   H778      1.0  0.00190  0.57645  0.65959  1.0000
  C   C996      1.0  0.07053  0.50811  0.48157  1.0000
  H   H779      1.0  0.10038  0.51009  0.48219  1.0000
  C   C997      1.0  0.02656  0.50075  0.82340  1.0000
  C   C998      1.0  0.08967  0.51733  0.48001  1.0000
  H   H780      1.0  0.09409  0.70883  0.97486  1.0000
  Fe  Fe67      1.0  0.29205  0.93263  0.18348  1.0000
  S   S131      1.0  0.30401  0.90903  0.18784  1.0000
  S   S132      1.0  0.28141  0.94395  0.21995  1.0000
  Fe  Fe68      1.0  0.29697  0.93347  0.12268  1.0000
  S   S133      1.0  0.30998  0.91034  0.12419  1.0000
  S   S134      1.0  0.28873  0.94495  0.08422  1.0000
  Fe  Fe69      1.0  0.28621  0.89819  0.15389  1.0000
  S   S135      1.0  0.26860  0.86946  0.15130  1.0000
  H   H781      1.0  0.02959  0.86637  0.13343  1.0000
  S   S136      1.0  0.27275  0.92089  0.15148  1.0000
  H   H782      1.0  0.23706  0.82973  0.45869  1.0000
  Fe  Fe70      1.0  0.16022  0.81718  0.14809  1.0000
  S   S137      1.0  0.17451  0.79498  0.14897  1.0000
  S   S138      1.0  0.17806  0.84588  0.14933  1.0000
  Fe  Fe71      1.0  0.12041  0.79050  0.14694  1.0000
  S   S139      1.0  0.13304  0.76721  0.14829  1.0000
  S   S140      1.0  0.08822  0.78476  0.14782  1.0000
  Fe  Fe72      1.0  0.15149  0.78189  0.17930  1.0000
  S   S141      1.0  0.15688  0.76868  0.21810  1.0000
  Fe  Fe73      1.0  0.15415  0.78339  0.11796  1.0000
  S   S142      1.0  0.16340  0.77225  0.08044  1.0000
  S   S143      1.0  0.13779  0.80451  0.17951  1.0000
  S   S144      1.0  0.14088  0.80629  0.11550  1.0000
  Fe  Fe74      1.0  0.15370  0.79008  0.36931  1.0000
  S   S145      1.0  0.18121  0.78242  0.37003  1.0000
  S   S146      1.0  0.14291  0.79845  0.33069  1.0000
  Fe  Fe75      1.0  0.15070  0.78996  0.43016  1.0000
  S   S147      1.0  0.17865  0.78353  0.43343  1.0000
  C   C999      1.0  0.17987  0.90484  0.43745  1.0000
  Fe  Fe76      1.0  0.18889  0.80364  0.39983  1.0000
  S   S148      1.0  0.21732  0.82468  0.39691  1.0000
  H   H783      1.0  0.25767  0.83915  0.01301  1.0000
  S   S149      1.0  0.16164  0.81157  0.39863  1.0000
  Fe  Fe77      1.0  0.28510  0.96810  0.40092  1.0000
  S   S150      1.0  0.31163  0.95868  0.39977  1.0000
  Fe  Fe78      1.0  0.26012  0.92886  0.40443  1.0000
  S   S151      1.0  0.28573  0.91817  0.40353  1.0000
  S   S152      1.0  0.23089  0.90883  0.40775  1.0000
  Fe  Fe79      1.0  0.29752  0.93907  0.43229  1.0000
  C   C1000     1.0  0.23818  0.81739  0.46812  1.0000
  Fe  Fe80      1.0  0.29662  0.93909  0.37121  1.0000
  S   S153      1.0  0.31130  0.93286  0.33397  1.0000
  S   S154      1.0  0.27138  0.94897  0.43491  1.0000
  S   S155      1.0  0.27052  0.94918  0.37077  1.0000
  C   C1001     1.0  0.16044  0.87388  0.46654  1.0000
  Fe  Fe81      1.0  0.16717  0.76319  0.40366  1.0000
  H   H784      1.0  0.25067  0.95495  0.99838  1.0000
  H   H785      1.0  0.09927  0.76218  0.18983  1.0000
  C   C1002     1.0  0.25205  0.83665  0.05525  1.0000
  S   S156      1.0  0.13901  0.76945  0.40067  1.0000
  C   C1003     1.0  0.22492  0.81340  0.02112  1.0000
  H   H786      1.0  0.20613  0.78696  0.26645  1.0000
  H   H787      1.0  0.15888  0.76900  0.31493  1.0000
  H   H788      1.0  0.00693  0.77667  0.13630  1.0000
  C   C1004     1.0  0.02993  0.78861  0.19226  1.0000
  C   C1005     1.0  0.21315  0.78697  0.30687  1.0000
  C   C1006     1.0  0.27739  0.85360  0.08088  1.0000
  C   C1007     1.0  0.22062  0.84810  0.39896  1.0000
  C   C1008     1.0  0.23911  0.85920  0.39774  1.0000
  C   C1009     1.0  0.24243  0.87776  0.39973  1.0000
  C   C1010     1.0  0.22728  0.88555  0.40319  1.0000
  C   C1011     1.0  0.20874  0.87447  0.40391  1.0000
  C   C1012     1.0  0.20542  0.85589  0.40176  1.0000
  H   H789      1.0  0.25101  0.85340  0.39540  1.0000
  H   H790      1.0  0.25676  0.88595  0.39902  1.0000
  H   H791      1.0  0.19685  0.88026  0.40604  1.0000
  H   H792      1.0  0.19111  0.84763  0.40197  1.0000
  C   C1013     1.0  0.15412  0.77765  0.24932  1.0000
  C   C1014     1.0  0.15846  0.76924  0.27233  1.0000
  C   C1015     1.0  0.15557  0.77565  0.29741  1.0000
  C   C1016     1.0  0.14797  0.79036  0.29971  1.0000
  C   C1017     1.0  0.14369  0.79873  0.27673  1.0000
  C   C1018     1.0  0.14709  0.79265  0.25171  1.0000
  H   H793      1.0  0.13780  0.81008  0.27834  1.0000
  H   H794      1.0  0.14405  0.79944  0.23425  1.0000
  C   C1019     1.0  0.14685  0.78789  0.99803  1.0000
  C   C1020     1.0  0.16111  0.77900  0.00100  1.0000
  C   C1021     1.0  0.16605  0.77438  0.02631  1.0000
  C   C1022     1.0  0.15691  0.77866  0.04899  1.0000
  C   C1023     1.0  0.14272  0.78765  0.04607  1.0000
  C   C1024     1.0  0.13773  0.79222  0.02073  1.0000
  H   H795      1.0  0.11403  0.76682  0.33679  1.0000
  H   H796      1.0  0.17702  0.76742  0.02830  1.0000
  H   H797      1.0  0.13533  0.79078  0.06328  1.0000
  H   H798      1.0  0.12664  0.79902  0.01870  1.0000
  C   C1025     1.0  0.07334  0.76733  0.13064  1.0000
  C   C1026     1.0  0.05367  0.76480  0.13342  1.0000
  H   H799      1.0  0.14211  0.82870  0.44020  1.0000
  C   C1027     1.0  0.18202  0.84803  0.33984  1.0000
  H   H800      1.0  0.17102  0.83696  0.34841  1.0000
  C   C1028     1.0  0.08041  0.75618  0.11428  1.0000
  H   H801      1.0  0.04820  0.77294  0.14665  1.0000
  S   S157      1.0  0.31484  0.94812  0.15453  1.0000
  H   H802      1.0  0.09553  0.75783  0.11193  1.0000
  C   C1029     1.0  0.20324  0.85198  0.15035  1.0000
  C   C1030     1.0  0.21271  0.87003  0.15201  1.0000
  C   C1031     1.0  0.23263  0.87555  0.15250  1.0000
  C   C1032     1.0  0.24341  0.86308  0.15115  1.0000
  C   C1033     1.0  0.23396  0.84502  0.14957  1.0000
  C   C1034     1.0  0.21403  0.83949  0.14915  1.0000
  H   H803      1.0  0.20456  0.87982  0.15273  1.0000
  H   H804      1.0  0.23962  0.88946  0.15384  1.0000
  H   H805      1.0  0.24210  0.83523  0.14861  1.0000
  H   H806      1.0  0.20708  0.82557  0.14773  1.0000
  C   C1035     1.0  0.29608  0.94130  0.05162  1.0000
  C   C1036     1.0  0.31042  0.93277  0.04640  1.0000
  H   H807      1.0  0.18755  0.91648  0.42567  1.0000
  C   C1037     1.0  0.30779  0.93726  0.99884  1.0000
  C   C1038     1.0  0.29320  0.94547  0.00405  1.0000
  C   C1039     1.0  0.28752  0.94762  0.03028  1.0000
  C   C1040     1.0  0.00000  0.75029  0.44540  1.0000
  H   H808      1.0  0.23016  0.77360  0.45457  1.0000
  H   H809      1.0  0.09112  0.75396  0.01708  1.0000
  H   H810      1.0  0.27649  0.95431  0.03411  1.0000
  C   C1041     1.0  0.28940  0.94017  0.25163  1.0000
  C   C1042     1.0  0.30297  0.93060  0.25539  1.0000
  C   C1043     1.0  0.30911  0.92807  0.28081  1.0000
  C   C1044     1.0  0.30189  0.93511  0.30272  1.0000
  C   C1045     1.0  0.28806  0.94441  0.29904  1.0000
  C   C1046     1.0  0.28193  0.94699  0.27361  1.0000
  H   H811      1.0  0.30896  0.92537  0.23872  1.0000
  C   C1047     1.0  0.16047  0.89787  0.43469  1.0000
  H   H812      1.0  0.28236  0.94996  0.31563  1.0000
  H   H813      1.0  0.27150  0.95448  0.27091  1.0000
  H   H814      1.0  0.22154  0.87767  0.46342  1.0000
  H   H815      1.0  0.24966  0.82187  0.20380  1.0000
  C   C1048     1.0  0.03057  0.79997  0.13908  1.0000
  H   H816      1.0  0.25278  0.91386  0.25647  1.0000
  H   H817      1.0  0.25223  0.89854  0.44956  1.0000
  C   C1049     1.0  0.18953  0.89656  0.45499  1.0000
  C   C1050     1.0  0.20071  0.84675  0.33780  1.0000
  H   H818      1.0  0.28751  0.87921  0.22096  1.0000
  C   C1051     1.0  0.26878  0.88283  0.46820  1.0000
  H   H819      1.0  0.04990  0.88259  0.09576  1.0000
  H   H820      1.0  0.28915  0.85999  0.01533  1.0000
  H   H821      1.0  0.99674  0.77475  0.29743  1.0000
  H   H822      1.0  0.02601  0.75036  0.12173  1.0000
  C   C1052     1.0  0.25732  0.87075  0.21766  1.0000
  C   C1053     1.0  0.26293  0.84314  0.03205  1.0000
  H   H823      1.0  0.31303  0.97666  0.10129  1.0000
  P   P33       1.0  0.06188  0.76971  0.27845  1.0000
  C   C1054     1.0  0.07656  0.75843  0.29673  1.0000
  C   C1055     1.0  0.07506  0.79148  0.26573  1.0000
  C   C1056     1.0  0.09415  0.79448  0.25730  1.0000
  C   C1057     1.0  0.10381  0.81081  0.24515  1.0000
  C   C1058     1.0  0.09459  0.82431  0.24155  1.0000
  C   C1059     1.0  0.07564  0.82148  0.25001  1.0000
  C   C1060     1.0  0.06586  0.80511  0.26190  1.0000
  C   C1061     1.0  0.09143  0.76812  0.31128  1.0000
  H   H824      1.0  0.16428  0.83745  0.97958  1.0000
  H   H825      1.0  0.23739  0.85513  0.97982  1.0000
  H   H826      1.0  0.15301  0.90426  0.42097  1.0000
  C   C1062     1.0  0.23705  0.81126  0.20181  1.0000
  C   C1063     1.0  0.04267  0.77257  0.29973  1.0000
  C   C1064     1.0  0.04512  0.77501  0.32672  1.0000
  C   C1065     1.0  0.03017  0.77731  0.34300  1.0000
  C   C1066     1.0  0.01274  0.77717  0.33251  1.0000
  C   C1067     1.0  0.01031  0.77506  0.30561  1.0000
  C   C1068     1.0  0.02525  0.77291  0.28924  1.0000
  H   H827      1.0  0.20212  0.86629  0.09619  1.0000
  C   C1069     1.0  0.28089  0.88442  0.29485  1.0000
  C   C1070     1.0  0.10823  0.75517  0.22759  1.0000
  H   H828      1.0  0.07091  0.77371  0.22103  1.0000
  H   H829      1.0  0.23253  0.95783  0.46295  1.0000
  H   H830      1.0  0.10148  0.78412  0.25968  1.0000
  H   H831      1.0  0.11842  0.81295  0.23823  1.0000
  H   H832      1.0  0.10211  0.83690  0.23201  1.0000
  H   H833      1.0  0.06845  0.83192  0.24711  1.0000
  H   H834      1.0  0.05107  0.80311  0.26772  1.0000
  H   H835      1.0  0.09450  0.78248  0.31165  1.0000
  C   C1071     1.0  0.01637  0.77944  0.17562  1.0000
  H   H836      1.0  0.24914  0.80160  0.16790  1.0000
  H   H837      1.0  0.02176  0.83359  0.13731  1.0000
  C   C1072     1.0  0.04111  0.75188  0.11941  1.0000
  H   H838      1.0  0.05849  0.77515  0.33525  1.0000
  C   C1073     1.0  0.04407  0.80325  0.18232  1.0000
  C   C1074     1.0  0.31628  0.93088  0.02015  1.0000
  H   H839      1.0  0.13580  0.87711  0.44643  1.0000
  H   H840      1.0  0.02307  0.77137  0.26842  1.0000
  C   C1075     1.0  0.17309  0.83884  0.26884  1.0000
  C   C1076     1.0  0.16523  0.84167  0.24498  1.0000
  C   C1077     1.0  0.17436  0.83938  0.22130  1.0000
  C   C1078     1.0  0.19137  0.83428  0.22137  1.0000
  C   C1079     1.0  0.19929  0.83126  0.24528  1.0000
  C   C1080     1.0  0.19005  0.83369  0.26903  1.0000
  H   H841      1.0  0.16573  0.84006  0.28726  1.0000
  H   H842      1.0  0.15192  0.84536  0.24484  1.0000
  H   H843      1.0  0.16812  0.84137  0.20283  1.0000
  H   H844      1.0  0.19815  0.83243  0.20277  1.0000
  H   H845      1.0  0.19555  0.83119  0.28779  1.0000
  C   C1081     1.0  0.17754  0.86354  0.33079  1.0000
  C   C1082     1.0  0.25861  0.89536  0.33338  1.0000
  C   C1083     1.0  0.28809  0.86013  0.05770  1.0000
  H   H846      1.0  0.21564  0.90311  0.35298  1.0000
  C   C1084     1.0  0.25162  0.89173  0.30826  1.0000
  H   H847      1.0  0.20623  0.77298  0.31041  1.0000
  C   C1085     1.0  0.09845  0.75160  0.20458  1.0000
  H   H848      1.0  0.21469  0.93132  0.37257  1.0000
  C   C1086     1.0  0.23685  0.79976  0.18123  1.0000
  H   H849      1.0  0.02964  0.78407  0.21269  1.0000
  C   C1087     1.0  0.27470  0.86913  0.22650  1.0000
  C   C1088     1.0  0.04439  0.80893  0.15588  1.0000
  C   C1089     1.0  0.22182  0.81320  0.27723  1.0000
  P   P34       1.0  0.22096  0.82413  0.24547  1.0000
  H   H850      1.0  0.05568  0.82009  0.14845  1.0000
  H   H851      1.0  0.25863  0.80352  0.06810  1.0000
  C   C1090     1.0  0.21671  0.82290  0.00303  1.0000
  P   P35       1.0  0.22911  0.82107  0.05410  1.0000
  C   C1091     1.0  0.21030  0.83098  0.06420  1.0000
  C   C1092     1.0  0.21408  0.84709  0.07715  1.0000
  C   C1093     1.0  0.17666  0.82933  0.06796  1.0000
  C   C1094     1.0  0.19148  0.82237  0.05918  1.0000
  C   C1095     1.0  0.25948  0.84186  0.07968  1.0000
  C   C1096     1.0  0.22898  0.80225  0.07602  1.0000
  C   C1097     1.0  0.24559  0.79649  0.07859  1.0000
  C   C1098     1.0  0.24539  0.78133  0.09427  1.0000
  C   C1099     1.0  0.22860  0.77176  0.10740  1.0000
  C   C1100     1.0  0.21211  0.77753  0.10527  1.0000
  C   C1101     1.0  0.21232  0.79277  0.08983  1.0000
  H   H852      1.0  0.21217  0.83445  0.00890  1.0000
  H   H853      1.0  0.25033  0.89979  0.34856  1.0000
  H   H854      1.0  0.16218  0.82231  0.06464  1.0000
  H   H855      1.0  0.18820  0.80998  0.04907  1.0000
  H   H856      1.0  0.25136  0.83697  0.09786  1.0000
  H   H857      1.0  0.12121  0.75213  0.03645  1.0000
  C   C1102     1.0  0.27658  0.89351  0.33908  1.0000
  H   H858      1.0  0.19897  0.77011  0.11523  1.0000
  H   H859      1.0  0.19932  0.79682  0.08857  1.0000
  H   H860      1.0  0.19770  0.82688  0.44581  1.0000
  H   H861      1.0  0.08254  0.81926  0.43031  1.0000
  S   S158      1.0  0.31222  0.93140  0.46808  1.0000
  H   H862      1.0  0.00568  0.76795  0.18333  1.0000
  C   C1103     1.0  0.22076  0.78602  0.17771  1.0000
  C   C1104     1.0  0.09510  0.82597  0.44019  1.0000
  P   P36       1.0  0.23289  0.88920  0.99916  1.0000
  C   C1105     1.0  0.23736  0.89099  0.03388  1.0000
  H   H863      1.0  0.02692  0.76737  0.97994  1.0000
  H   H864      1.0  0.27134  0.90928  0.98121  1.0000
  H   H865      1.0  0.25819  0.77687  0.09593  1.0000
  C   C1106     1.0  0.22545  0.89785  0.05055  1.0000
  C   C1107     1.0  0.22966  0.90073  0.07691  1.0000
  C   C1108     1.0  0.24597  0.89716  0.08668  1.0000
  C   C1109     1.0  0.25804  0.89064  0.07018  1.0000
  C   C1110     1.0  0.25376  0.88751  0.04390  1.0000
  C   C1111     1.0  0.21067  0.87327  0.99315  1.0000
  C   C1112     1.0  0.19715  0.86634  0.01365  1.0000
  C   C1113     1.0  0.18038  0.85368  0.00864  1.0000
  H   H866      1.0  0.30188  0.86939  0.05868  1.0000
  C   C1114     1.0  0.24260  0.92632  0.99881  1.0000
  C   C1115     1.0  0.22104  0.80916  0.21901  1.0000
  H   H867      1.0  0.28212  0.89670  0.35823  1.0000
  H   H868      1.0  0.30210  0.88778  0.32395  1.0000
  C   C1116     1.0  0.17709  0.84756  0.98331  1.0000
  S   S159      1.0  0.13407  0.79255  0.46780  1.0000
  H   H869      1.0  0.19226  0.77335  0.19156  1.0000
  H   H870      1.0  0.99381  0.79337  0.02620  1.0000
  C   C1117     1.0  0.05942  0.76197  0.22515  1.0000
  H   H871      1.0  0.21317  0.90137  0.04298  1.0000
  H   H872      1.0  0.22053  0.90614  0.08966  1.0000
  H   H873      1.0  0.24954  0.89983  0.10689  1.0000
  H   H874      1.0  0.27097  0.88847  0.07773  1.0000
  H   H875      1.0  0.26362  0.88296  0.03134  1.0000
  H   H876      1.0  0.19945  0.87040  0.03357  1.0000
  H   H877      1.0  0.16993  0.84847  0.02441  1.0000
  C   C1118     1.0  0.23311  0.80184  0.45410  1.0000
  C   C1119     1.0  0.27560  0.85428  0.24201  1.0000
  C   C1120     1.0  0.12758  0.84261  0.46662  1.0000
  C   C1121     1.0  0.01007  0.80040  0.08804  1.0000
  H   H878      1.0  0.05500  0.81000  0.19496  1.0000
  H   H879      1.0  0.22833  0.75983  0.11916  1.0000
  H   H880      1.0  0.00104  0.77844  0.34536  1.0000
  H   H881      1.0  0.20466  0.90181  0.45659  1.0000
  H   H882      1.0  0.31720  0.92790  0.06258  1.0000
  P   P37       1.0  0.03212  0.80699  0.10461  1.0000
  C   C1122     1.0  0.05081  0.79895  0.08898  1.0000
  H   H883      1.0  0.11687  0.76842  0.23033  1.0000
  C   C1123     1.0  0.01690  0.78477  0.14901  1.0000
  H   H884      1.0  0.22057  0.77705  0.16189  1.0000
  H   H885      1.0  0.22819  0.80231  0.43431  1.0000
  H   H886      1.0  0.03188  0.77892  0.36390  1.0000
  C   C1124     1.0  0.20480  0.79560  0.21482  1.0000
  C   C1125     1.0  0.06984  0.80731  0.09318  1.0000
  C   C1126     1.0  0.08439  0.80113  0.08139  1.0000
  C   C1127     1.0  0.08009  0.78648  0.06548  1.0000
  C   C1128     1.0  0.06121  0.77789  0.06155  1.0000
  C   C1129     1.0  0.04663  0.78398  0.07343  1.0000
  C   C1130     1.0  0.03809  0.83095  0.10201  1.0000
  H   H887      1.0  0.31971  0.92081  0.28348  1.0000
  C   C1131     1.0  0.12881  0.83144  0.44592  1.0000
  H   H888      1.0  0.28658  0.95055  0.98791  1.0000
  C   C1132     1.0  0.05354  0.85876  0.07829  1.0000
  C   C1133     1.0  0.04922  0.84018  0.08043  1.0000
  C   C1134     1.0  0.15076  0.88244  0.44918  1.0000
  C   C1135     1.0  0.10256  0.75931  0.32563  1.0000
  H   H889      1.0  0.26021  0.82924  0.25979  1.0000
  C   C1136     1.0  0.23239  0.91110  0.98658  1.0000
  H   H890      1.0  0.11368  0.81399  0.41753  1.0000
  C   C1137     1.0  0.11263  0.82306  0.43290  1.0000
  H   H891      1.0  0.10641  0.75820  0.45128  1.0000
  C   C1138     1.0  0.20479  0.78392  0.19450  1.0000
  C   C1139     1.0  0.25187  0.88667  0.46152  1.0000
  C   C1140     1.0  0.05216  0.75681  0.25093  1.0000
  H   H892      1.0  0.07348  0.81837  0.10600  1.0000
  H   H893      1.0  0.09900  0.80730  0.08539  1.0000
  H   H894      1.0  0.09137  0.78138  0.05704  1.0000
  H   H895      1.0  0.05784  0.76602  0.05024  1.0000
  H   H896      1.0  0.03218  0.77663  0.07109  1.0000
  C   C1141     1.0  0.17640  0.83845  0.46265  1.0000
  C   C1142     1.0  0.09379  0.83741  0.46037  1.0000
  C   C1143     1.0  0.21495  0.86088  0.32648  1.0000
  H   H897      1.0  0.06224  0.86583  0.06169  1.0000
  H   H898      1.0  0.05451  0.83306  0.06520  1.0000
  C   C1144     1.0  0.22678  0.91515  0.31473  1.0000
  C   C1145     1.0  0.23302  0.93139  0.30015  1.0000
  C   C1146     1.0  0.23260  0.94739  0.31155  1.0000
  C   C1147     1.0  0.22587  0.94737  0.33757  1.0000
  C   C1148     1.0  0.21952  0.93133  0.35219  1.0000
  C   C1149     1.0  0.22004  0.91530  0.34092  1.0000
  H   H899      1.0  0.18801  0.88955  0.31214  1.0000
  H   H900      1.0  0.23855  0.93197  0.28014  1.0000
  H   H901      1.0  0.23780  0.95986  0.30029  1.0000
  H   H902      1.0  0.22589  0.95981  0.34655  1.0000
  C   C1150     1.0  0.21052  0.87641  0.31698  1.0000
  C   C1151     1.0  0.26272  0.88579  0.28925  1.0000
  C   C1152     1.0  0.02736  0.75355  0.98072  1.0000
  H   H903      1.0  0.25682  0.88198  0.20480  1.0000
  H   H904      1.0  0.22833  0.85418  0.08130  1.0000
  H   H905      1.0  0.22936  0.85965  0.32540  1.0000
  H   H906      1.0  0.20414  0.83479  0.34522  1.0000
  H   H907      1.0  0.16393  0.75763  0.27078  1.0000
  H   H908      1.0  0.28977  0.88072  0.27976  1.0000
  H   H909      1.0  0.25084  0.92516  0.01575  1.0000
  C   C1153     1.0  0.24076  0.85752  0.22432  1.0000
  H   H910      1.0  0.22760  0.85865  0.21626  1.0000
  C   C1154     1.0  0.25912  0.84103  0.24871  1.0000
  C   C1155     1.0  0.18050  0.84517  0.08126  1.0000
  H   H911      1.0  0.16303  0.86452  0.33250  1.0000
  C   C1156     1.0  0.23005  0.82326  0.29825  1.0000
  C   C1157     1.0  0.23008  0.81518  0.32319  1.0000
  C   C1158     1.0  0.23080  0.79855  0.01276  1.0000
  H   H912      1.0  0.23722  0.79099  0.02616  1.0000
  H   H913      1.0  0.28285  0.85780  0.09985  1.0000
  H   H914      1.0  0.23618  0.83743  0.29550  1.0000
  C   C1159     1.0  0.19920  0.85415  0.08552  1.0000
  H   H915      1.0  0.19440  0.87760  0.21905  1.0000
  H   H916      1.0  0.28219  0.89183  0.46147  1.0000
  C   C1160     1.0  0.28089  0.85485  0.03331  1.0000
  C   C1161     1.0  0.19171  0.87767  0.31934  1.0000
  H   H917      1.0  0.19843  0.87551  0.26673  1.0000
  C   C1162     1.0  0.22081  0.89718  0.21113  1.0000
  H   H918      1.0  0.21886  0.89827  0.19021  1.0000
  C   C1163     1.0  0.20699  0.88565  0.22748  1.0000
  C   C1164     1.0  0.20937  0.88453  0.25460  1.0000
  H   H919      1.0  0.22158  0.79084  0.34690  1.0000
  C   C1165     1.0  0.24154  0.84261  0.24007  1.0000
  C   C1166     1.0  0.22171  0.79703  0.32746  1.0000
  H   H920      1.0  0.19210  0.79407  0.22723  1.0000
  C   C1167     1.0  0.28784  0.88833  0.31974  1.0000
  H   H921      1.0  0.17544  0.84594  0.44469  1.0000
  H   H922      1.0  0.23625  0.82301  0.33944  1.0000
  H   H923      1.0  0.28915  0.85284  0.24831  1.0000
  H   H924      1.0  0.16899  0.85032  0.08879  1.0000
  P   P38       1.0  0.22850  0.89443  0.30089  1.0000
  C   C1168     1.0  0.22567  0.89498  0.26560  1.0000
  C   C1169     1.0  0.23978  0.90606  0.24877  1.0000
  C   C1170     1.0  0.23723  0.90729  0.22175  1.0000
  H   H925      1.0  0.24806  0.91611  0.20901  1.0000
  H   H926      1.0  0.25753  0.88248  0.27000  1.0000
  C   C1171     1.0  0.22835  0.79325  0.98683  1.0000
  C   C1172     1.0  0.21317  0.79500  0.28185  1.0000
  C   C1173     1.0  0.04657  0.86820  0.09746  1.0000
  H   H927      1.0  0.23274  0.78170  0.98049  1.0000
  H   H928      1.0  0.02362  0.80337  0.04898  1.0000
  H   H929      1.0  0.32524  0.88288  0.24208  1.0000
  H   H930      1.0  0.31556  0.97281  0.32337  1.0000
  C   C1174     1.0  0.03516  0.85907  0.11871  1.0000
  C   C1175     1.0  0.25207  0.88295  0.98173  1.0000
  C   C1176     1.0  0.18913  0.82775  0.46325  1.0000
  C   C1177     1.0  0.23428  0.78562  0.46551  1.0000
  C   C1178     1.0  0.03083  0.84049  0.12092  1.0000
  S   S160      1.0  0.99529  0.75226  0.07828  1.0000
  H   H931      1.0  0.16824  0.77551  0.98383  1.0000
  H   H932      1.0  0.20402  0.93345  0.47511  1.0000
  C   C1179     1.0  0.01035  0.79984  0.06045  1.0000
  C   C1180     1.0  0.24261  0.94331  0.98897  1.0000
  H   H933      1.0  0.13916  0.75522  0.45302  1.0000
  H   H934      1.0  0.32008  0.99523  0.28639  1.0000
  C   C1181     1.0  0.99347  0.79439  0.04741  1.0000
  C   C1182     1.0  0.17987  0.88120  0.46958  1.0000
  H   H935      1.0  0.05759  0.75600  0.18429  1.0000
  C   C1183     1.0  0.23457  0.87502  0.46970  1.0000
  H   H936      1.0  0.02453  0.75094  0.02307  1.0000
  H   H937      1.0  0.04323  0.76190  0.39747  1.0000
  C   C1184     1.0  0.05186  0.75191  0.20403  1.0000
  H   H938      1.0  0.04903  0.75799  0.44415  1.0000
  H   H939      1.0  0.08019  0.83966  0.46601  1.0000
  H   H940      1.0  0.01438  0.74926  0.44288  1.0000
  C   C1185     1.0  0.05246  0.75367  0.40324  1.0000
  C   C1186     1.0  0.05560  0.75121  0.42990  1.0000
  S   S161      1.0  0.99981  0.75012  0.39131  1.0000
  C   C1187     1.0  0.10996  0.84578  0.47347  1.0000
  Fe  Fe82      1.0  0.29914  0.93272  0.68228  1.0000
  S   S162      1.0  0.31108  0.90894  0.68336  1.0000
  S   S163      1.0  0.28813  0.94334  0.71893  1.0000
  Fe  Fe83      1.0  0.30420  0.93722  0.62165  1.0000
  S   S164      1.0  0.31620  0.91350  0.61926  1.0000
  S   S165      1.0  0.30038  0.95415  0.58579  1.0000
  Fe  Fe84      1.0  0.29271  0.90034  0.64900  1.0000
  S   S166      1.0  0.27438  0.87189  0.64708  1.0000
  H   H941      1.0  0.25170  0.81993  0.70065  1.0000
  S   S167      1.0  0.27973  0.92346  0.64936  1.0000
  C   C1188     1.0  0.20029  0.88961  0.57878  1.0000
  Fe  Fe85      1.0  0.16443  0.82393  0.64208  1.0000
  S   S168      1.0  0.17580  0.79993  0.64599  1.0000
  S   S169      1.0  0.18410  0.85194  0.64245  1.0000
  Fe  Fe86      1.0  0.12324  0.80064  0.63862  1.0000
  S   S170      1.0  0.13251  0.77547  0.64350  1.0000
  S   S171      1.0  0.09172  0.79840  0.63457  1.0000
  Fe  Fe87      1.0  0.15107  0.78945  0.67498  1.0000
  S   S172      1.0  0.15595  0.77621  0.71400  1.0000
  Fe  Fe88      1.0  0.15583  0.78894  0.61429  1.0000
  S   S173      1.0  0.16380  0.77485  0.57906  1.0000
  S   S174      1.0  0.14027  0.81388  0.67220  1.0000
  S   S175      1.0  0.14608  0.81377  0.60820  1.0000
  Fe  Fe89      1.0  0.15506  0.79071  0.86735  1.0000
  S   S176      1.0  0.18082  0.78033  0.86430  1.0000
  S   S177      1.0  0.14264  0.80018  0.83055  1.0000
  Fe  Fe90      1.0  0.15443  0.78785  0.92859  1.0000
  S   S178      1.0  0.18027  0.77729  0.92839  1.0000
  H   H942      1.0  0.24905  0.79948  0.66458  1.0000
  Fe  Fe91      1.0  0.19169  0.79890  0.89673  1.0000
  S   S179      1.0  0.22124  0.81824  0.89551  1.0000
  Fe  Fe92      1.0  0.16610  0.75998  0.89623  1.0000
  S   S180      1.0  0.16643  0.81008  0.89844  1.0000
  Fe  Fe93      1.0  0.28626  0.96394  0.89282  1.0000
  S   S181      1.0  0.31477  0.95825  0.89455  1.0000
  Fe  Fe94      1.0  0.26519  0.92364  0.90057  1.0000
  S   S182      1.0  0.29257  0.91599  0.90265  1.0000
  S   S183      1.0  0.23668  0.90282  0.90213  1.0000
  Fe  Fe95      1.0  0.30152  0.93924  0.92874  1.0000
  H   H943      1.0  0.00105  0.75165  0.48773  1.0000
  Fe  Fe96      1.0  0.30233  0.93571  0.86851  1.0000
  S   S184      1.0  0.31658  0.92827  0.83190  1.0000
  S   S185      1.0  0.27353  0.94610  0.92844  1.0000
  S   S186      1.0  0.27449  0.94226  0.86510  1.0000
  H   H944      1.0  0.99822  0.75169  0.65594  1.0000
  C   C1189     1.0  0.26181  0.87018  0.71367  1.0000
  H   H945      1.0  0.26625  0.84507  0.56557  1.0000
  C   C1190     1.0  0.22056  0.84907  0.57596  1.0000
  C   C1191     1.0  0.30930  0.84030  0.54563  1.0000
  C   C1192     1.0  0.24442  0.81674  0.49387  1.0000
  C   C1193     1.0  0.26844  0.86753  0.48364  1.0000
  H   H946      1.0  0.31675  0.83282  0.50710  1.0000
  S   S187      1.0  0.13977  0.76972  0.89774  1.0000
  C   C1194     1.0  0.25109  0.85601  0.49264  1.0000
  H   H947      1.0  0.10411  0.77845  0.77277  1.0000
  H   H948      1.0  0.10864  0.85462  0.48900  1.0000
  H   H949      1.0  0.20724  0.77518  0.81031  1.0000
  C   C1195     1.0  0.22545  0.84182  0.89691  1.0000
  C   C1196     1.0  0.24412  0.85244  0.89799  1.0000
  C   C1197     1.0  0.24790  0.87113  0.89925  1.0000
  C   C1198     1.0  0.23304  0.87946  0.89919  1.0000
  C   C1199     1.0  0.21444  0.86887  0.89764  1.0000
  C   C1200     1.0  0.21067  0.85022  0.89674  1.0000
  H   H950      1.0  0.25573  0.84617  0.89810  1.0000
  H   H951      1.0  0.26229  0.87904  0.90060  1.0000
  H   H952      1.0  0.20281  0.87511  0.89751  1.0000
  H   H953      1.0  0.19627  0.84238  0.89568  1.0000
  C   C1201     1.0  0.15341  0.78425  0.74590  1.0000
  C   C1202     1.0  0.14317  0.79685  0.75067  1.0000
  C   C1203     1.0  0.14033  0.80185  0.77662  1.0000
  C   C1204     1.0  0.14792  0.79455  0.79804  1.0000
  C   C1205     1.0  0.15868  0.78239  0.79314  1.0000
  C   C1206     1.0  0.16121  0.77714  0.76727  1.0000
  H   H954      1.0  0.16458  0.77660  0.80934  1.0000
  H   H955      1.0  0.16911  0.76735  0.76386  1.0000
  C   C1207     1.0  0.14142  0.78623  0.49870  1.0000
  C   C1208     1.0  0.15581  0.77741  0.50067  1.0000
  C   C1209     1.0  0.16231  0.77381  0.52542  1.0000
  C   C1210     1.0  0.15440  0.77879  0.54852  1.0000
  C   C1211     1.0  0.13953  0.78703  0.54673  1.0000
  C   C1212     1.0  0.13308  0.79072  0.52191  1.0000
  H   H956      1.0  0.08798  0.78717  0.52975  1.0000
  H   H957      1.0  0.17392  0.76762  0.52663  1.0000
  H   H958      1.0  0.13301  0.79062  0.56439  1.0000
  H   H959      1.0  0.12191  0.79745  0.52063  1.0000
  C   C1213     1.0  0.07689  0.78204  0.61560  1.0000
  C   C1214     1.0  0.05709  0.77906  0.61846  1.0000
  H   H960      1.0  0.25083  0.79965  0.52476  1.0000
  C   C1215     1.0  0.17900  0.84131  0.71595  1.0000
  H   H961      1.0  0.03881  0.76123  0.81253  1.0000
  C   C1216     1.0  0.08434  0.77214  0.59757  1.0000
  H   H962      1.0  0.05113  0.78666  0.63227  1.0000
  C   C1217     1.0  0.17925  0.81880  0.50849  1.0000
  H   H963      1.0  0.09952  0.77437  0.59486  1.0000
  C   C1218     1.0  0.20913  0.85703  0.64477  1.0000
  C   C1219     1.0  0.21941  0.87496  0.64439  1.0000
  C   C1220     1.0  0.23929  0.87967  0.64552  1.0000
  C   C1221     1.0  0.24922  0.86651  0.64672  1.0000
  C   C1222     1.0  0.23893  0.84857  0.64731  1.0000
  C   C1223     1.0  0.21901  0.84383  0.64644  1.0000
  H   H964      1.0  0.21195  0.88528  0.64313  1.0000
  H   H965      1.0  0.24692  0.89351  0.64514  1.0000
  H   H966      1.0  0.24642  0.83825  0.64836  1.0000
  H   H967      1.0  0.21137  0.82997  0.64686  1.0000
  C   C1224     1.0  0.30385  0.94792  0.55306  1.0000
  C   C1225     1.0  0.31233  0.93416  0.54783  1.0000
  C   C1226     1.0  0.24801  0.95214  0.49594  1.0000
  C   C1227     1.0  0.30898  0.93831  0.50049  1.0000
  C   C1228     1.0  0.30043  0.95210  0.50566  1.0000
  C   C1229     1.0  0.29823  0.95709  0.53179  1.0000
  H   H968      1.0  0.02187  0.80954  0.83874  1.0000
  C   C1230     1.0  0.19046  0.81784  0.48612  1.0000
  P   P39       1.0  0.14842  0.85320  0.48384  1.0000
  H   H969      1.0  0.29184  0.96792  0.53557  1.0000
  C   C1231     1.0  0.29440  0.93757  0.75070  1.0000
  C   C1232     1.0  0.30420  0.92451  0.75475  1.0000
  C   C1233     1.0  0.31067  0.92157  0.77980  1.0000
  C   C1234     1.0  0.30676  0.93115  0.80125  1.0000
  C   C1235     1.0  0.29597  0.94346  0.79751  1.0000
  C   C1236     1.0  0.28988  0.94669  0.77232  1.0000
  H   H970      1.0  0.30734  0.91705  0.73846  1.0000
  C   C1237     1.0  0.05235  0.75604  0.58614  1.0000
  H   H971      1.0  0.29299  0.95106  0.81375  1.0000
  H   H972      1.0  0.28210  0.95666  0.76946  1.0000
  C   C1238     1.0  0.21897  0.81915  0.54634  1.0000
  C   C1239     1.0  0.27949  0.85274  0.73718  1.0000
  C   C1240     1.0  0.23267  0.83509  0.53954  1.0000
  H   H973      1.0  0.02862  0.76754  0.51784  1.0000
  C   C1241     1.0  0.08702  0.77486  0.80895  1.0000
  C   C1242     1.0  0.06856  0.77049  0.82036  1.0000
  H   H974      1.0  0.23301  0.95846  0.95865  1.0000
  P   P40       1.0  0.06421  0.76999  0.85562  1.0000
  H   H975      1.0  0.00960  0.80737  0.88517  1.0000
  C   C1243     1.0  0.08439  0.78104  0.87367  1.0000
  C   C1244     1.0  0.08717  0.77437  0.89883  1.0000
  C   C1245     1.0  0.10138  0.78402  0.91423  1.0000
  C   C1246     1.0  0.11298  0.80031  0.90462  1.0000
  C   C1247     1.0  0.11032  0.80704  0.87966  1.0000
  C   C1248     1.0  0.09589  0.79759  0.86439  1.0000
  H   H976      1.0  0.23189  0.85917  0.71295  1.0000
  C   C1249     1.0  0.32122  0.98328  0.95856  1.0000
  C   C1250     1.0  0.23850  0.80999  0.69893  1.0000
  C   C1251     1.0  0.22290  0.80894  0.71648  1.0000
  H   H977      1.0  0.30661  0.98020  0.67196  1.0000
  C   C1252     1.0  0.04668  0.78176  0.86436  1.0000
  C   C1253     1.0  0.04037  0.79245  0.84576  1.0000
  C   C1254     1.0  0.02696  0.80158  0.85324  1.0000
  C   C1255     1.0  0.31528  0.92967  0.52170  1.0000
  C   C1256     1.0  0.02690  0.79042  0.89819  1.0000
  C   C1257     1.0  0.04012  0.78112  0.89071  1.0000
  H   H978      1.0  0.26336  0.82802  0.75522  1.0000
  C   C1258     1.0  0.30565  0.83551  0.51973  1.0000
  H   H979      1.0  0.09925  0.77817  0.82101  1.0000
  C   C1259     1.0  0.29026  0.99626  0.72697  1.0000
  H   H980      1.0  0.07818  0.76191  0.90688  1.0000
  H   H981      1.0  0.10362  0.77884  0.93358  1.0000
  H   H982      1.0  0.12414  0.80761  0.91652  1.0000
  H   H983      1.0  0.11953  0.81953  0.87204  1.0000
  H   H984      1.0  0.09370  0.80330  0.84543  1.0000
  H   H985      1.0  0.32202  0.91908  0.51794  1.0000
  C   C1260     1.0  0.23707  0.79839  0.67824  1.0000
  H   H986      1.0  0.28176  0.86498  0.48864  1.0000
  H   H987      1.0  0.19981  0.80907  0.48636  1.0000
  H   H988      1.0  0.20344  0.91386  0.51442  1.0000
  H   H989      1.0  0.04580  0.79394  0.82556  1.0000
  S   S188      1.0  0.28153  0.99158  0.88504  1.0000
  H   H990      1.0  0.16219  0.77358  0.48318  1.0000
  H   H991      1.0  0.02163  0.78954  0.91849  1.0000
  H   H992      1.0  0.04520  0.77337  0.90544  1.0000
  H   H993      1.0  0.19361  0.79532  0.72572  1.0000
  H   H994      1.0  0.13433  0.75956  0.84148  1.0000
  C   C1261     1.0  0.28429  0.89061  0.96299  1.0000
  C   C1262     1.0  0.16621  0.82913  0.50781  1.0000
  H   H995      1.0  0.28977  0.99437  0.81511  1.0000
  H   H996      1.0  0.13710  0.80246  0.73446  1.0000
  C   C1263     1.0  0.20960  0.88232  0.53523  1.0000
  C   C1264     1.0  0.07443  0.77019  0.76551  1.0000
  H   H997      1.0  0.99412  0.80137  0.65332  1.0000
  C   C1265     1.0  0.05606  0.76541  0.77677  1.0000
  C   C1266     1.0  0.12348  0.84592  0.55807  1.0000
  C   C1267     1.0  0.13049  0.86238  0.56907  1.0000
  H   H998      1.0  0.14806  0.88904  0.56264  1.0000
  H   H999      1.0  0.31376  0.98105  0.77945  1.0000
  C   C1268     1.0  0.26511  0.86042  0.96168  1.0000
  H   H1000     1.0  0.18782  0.84966  0.94316  1.0000
  H   H1001     1.0  0.22063  0.85092  0.49160  1.0000
  H   H1002     1.0  0.20351  0.83497  0.69874  1.0000
  C   C1269     1.0  0.05793  0.77899  0.52522  1.0000
  H   H1003     1.0  0.15767  0.88457  0.51696  1.0000
  H   H1004     1.0  0.13200  0.81128  0.78015  1.0000
  H   H1005     1.0  0.12314  0.83046  0.52383  1.0000
  C   C1270     1.0  0.18282  0.86267  0.55932  1.0000
  C   C1271     1.0  0.19038  0.85441  0.96281  1.0000
  C   C1272     1.0  0.09081  0.76128  0.68706  1.0000
  P   P41       1.0  0.25024  0.83636  0.51311  1.0000
  C   C1273     1.0  0.11762  0.74804  0.80947  1.0000
  H   H1006     1.0  0.15733  0.82899  0.52523  1.0000
  C   C1274     1.0  0.04489  0.76609  0.60395  1.0000
  H   H1007     1.0  0.21730  0.87218  0.95157  1.0000
  H   H1008     1.0  0.11409  0.83509  0.56978  1.0000
  H   H1009     1.0  0.12650  0.86431  0.58929  1.0000
  C   C1275     1.0  0.14264  0.87630  0.55403  1.0000
  S   S189      1.0  0.32217  0.94927  0.65482  1.0000
  C   C1276     1.0  0.21228  0.89395  0.55604  1.0000
  C   C1277     1.0  0.27701  0.84244  0.55235  1.0000
  H   H1010     1.0  0.17356  0.84388  0.69709  1.0000
  H   H1011     1.0  0.02972  0.76365  0.60700  1.0000
  H   H1012     1.0  0.12137  0.76020  0.79736  1.0000
  H   H1013     1.0  0.21491  0.90195  0.95369  1.0000
  C   C1278     1.0  0.24592  0.80042  0.50500  1.0000
  H   H1014     1.0  0.28512  0.83057  0.48990  1.0000
  H   H1015     1.0  0.21894  0.77673  0.65877  1.0000
  H   H1016     1.0  0.21795  0.80735  0.53531  1.0000
  C   C1279     1.0  0.07213  0.75940  0.58279  1.0000
  C   C1280     1.0  0.27324  0.83780  0.52624  1.0000
  H   H1017     1.0  0.24049  0.83855  0.79146  1.0000
  H   H1018     1.0  0.26331  0.84685  0.95578  1.0000
  H   H1019     1.0  0.19713  0.83241  0.59925  1.0000
  H   H1020     1.0  0.22351  0.79357  0.84573  1.0000
  C   C1281     1.0  0.05315  0.76527  0.80409  1.0000
  C   C1282     1.0  0.07659  0.77818  0.52023  1.0000
  C   C1283     1.0  0.29498  0.84373  0.56194  1.0000
  H   H1021     1.0  0.31661  0.92700  0.56399  1.0000
  H   H1022     1.0  0.24337  0.86259  0.54915  1.0000
  C   C1284     1.0  0.28115  0.87685  0.79724  1.0000
  C   C1285     1.0  0.28881  0.88207  0.82135  1.0000
  C   C1286     1.0  0.27887  0.88987  0.83930  1.0000
  C   C1287     1.0  0.26148  0.89288  0.83299  1.0000
  C   C1288     1.0  0.25390  0.88811  0.80851  1.0000
  C   C1289     1.0  0.26362  0.87963  0.79093  1.0000
  P   P42       1.0  0.23129  0.89177  0.80065  1.0000
  C   C1290     1.0  0.21240  0.87377  0.81498  1.0000
  C   C1291     1.0  0.23005  0.91250  0.81491  1.0000
  C   C1292     1.0  0.22173  0.91234  0.84026  1.0000
  C   C1293     1.0  0.22194  0.92828  0.85230  1.0000
  C   C1294     1.0  0.23052  0.94455  0.83924  1.0000
  C   C1295     1.0  0.23890  0.94488  0.81407  1.0000
  C   C1296     1.0  0.23874  0.92896  0.80197  1.0000
  C   C1297     1.0  0.19367  0.87534  0.81587  1.0000
  C   C1298     1.0  0.17893  0.86134  0.82638  1.0000
  C   C1299     1.0  0.18277  0.84569  0.83610  1.0000
  C   C1300     1.0  0.20138  0.84413  0.83570  1.0000
  C   C1301     1.0  0.21619  0.85816  0.82541  1.0000
  C   C1302     1.0  0.22975  0.89355  0.76519  1.0000
  C   C1303     1.0  0.21336  0.88458  0.75277  1.0000
  C   C1304     1.0  0.21215  0.88651  0.72549  1.0000
  C   C1305     1.0  0.22726  0.89738  0.71036  1.0000
  C   C1306     1.0  0.24372  0.90607  0.72242  1.0000
  C   C1307     1.0  0.24510  0.90396  0.74961  1.0000
  H   H1023     1.0  0.28895  0.87088  0.78339  1.0000
  H   H1024     1.0  0.30256  0.88030  0.82610  1.0000
  H   H1025     1.0  0.28486  0.89392  0.85792  1.0000
  H   H1026     1.0  0.25410  0.89903  0.84725  1.0000
  H   H1027     1.0  0.25783  0.87536  0.77227  1.0000
  H   H1028     1.0  0.21575  0.89993  0.85134  1.0000
  H   H1029     1.0  0.21607  0.92794  0.87224  1.0000
  H   H1030     1.0  0.23113  0.95686  0.84894  1.0000
  H   H1031     1.0  0.24598  0.95748  0.80418  1.0000
  H   H1032     1.0  0.24584  0.92972  0.78288  1.0000
  H   H1033     1.0  0.19050  0.88739  0.80836  1.0000
  H   H1034     1.0  0.16450  0.86258  0.82700  1.0000
  H   H1035     1.0  0.17135  0.83478  0.84415  1.0000
  H   H1036     1.0  0.20434  0.83214  0.84391  1.0000
  H   H1037     1.0  0.23052  0.85682  0.82600  1.0000
  H   H1038     1.0  0.20146  0.87605  0.76388  1.0000
  H   H1039     1.0  0.19950  0.87956  0.71601  1.0000
  H   H1040     1.0  0.22629  0.89894  0.68926  1.0000
  H   H1041     1.0  0.25554  0.91434  0.71065  1.0000
  H   H1042     1.0  0.25818  0.91054  0.75844  1.0000
  C   C1308     1.0  0.22264  0.93027  0.95416  1.0000
  C   C1309     1.0  0.27904  0.86789  0.72205  1.0000
  C   C1310     1.0  0.20620  0.81826  0.56777  1.0000
  C   C1311     1.0  0.20702  0.83318  0.58261  1.0000
  C   C1312     1.0  0.22015  0.78560  0.67494  1.0000
  C   C1313     1.0  0.10625  0.75998  0.70169  1.0000
  H   H1043     1.0  0.19719  0.83065  0.78362  1.0000
  C   C1314     1.0  0.28769  0.83421  0.51008  1.0000
  C   C1315     1.0  0.28212  0.87312  0.95560  1.0000
  H   H1044     1.0  0.24004  0.82510  0.83622  1.0000
  H   H1045     1.0  0.26166  0.88159  0.70100  1.0000
  C   C1316     1.0  0.16478  0.83922  0.48493  1.0000
  H   H1046     1.0  0.26259  0.95219  0.62337  1.0000
  C   C1317     1.0  0.23414  0.85982  0.48540  1.0000
  C   C1318     1.0  0.23208  0.92682  0.52467  1.0000
  C   C1319     1.0  0.04313  0.76715  0.51350  1.0000
  P   P43       1.0  0.23223  0.91319  0.55398  1.0000
  C   C1320     1.0  0.25262  0.90413  0.55341  1.0000
  C   C1321     1.0  0.23241  0.92769  0.58096  1.0000
  C   C1322     1.0  0.21619  0.93345  0.58755  1.0000
  C   C1323     1.0  0.21650  0.94535  0.60765  1.0000
  C   C1324     1.0  0.23314  0.95193  0.62082  1.0000
  C   C1325     1.0  0.24949  0.94670  0.61378  1.0000
  C   C1326     1.0  0.24916  0.93466  0.59391  1.0000
  C   C1327     1.0  0.26361  0.90447  0.53011  1.0000
  C   C1328     1.0  0.27914  0.89708  0.53008  1.0000
  C   C1329     1.0  0.28375  0.88921  0.55310  1.0000
  C   C1330     1.0  0.27265  0.88849  0.57618  1.0000
  C   C1331     1.0  0.25707  0.89581  0.57633  1.0000
  C   C1332     1.0  0.04697  0.75435  0.49705  1.0000
  C   C1333     1.0  0.24078  0.78492  0.49091  1.0000
  H   H1047     1.0  0.11280  0.77063  0.71421  1.0000
  C   C1334     1.0  0.23229  0.94927  0.48029  1.0000
  H   H1048     1.0  0.25831  0.98966  0.83623  1.0000
  C   C1335     1.0  0.21610  0.92427  0.50929  1.0000
  C   C1336     1.0  0.26934  0.89559  0.97588  1.0000
  H   H1049     1.0  0.18002  0.81089  0.52611  1.0000
  H   H1050     1.0  0.20336  0.92883  0.57702  1.0000
  H   H1051     1.0  0.20392  0.94967  0.61279  1.0000
  H   H1052     1.0  0.23348  0.96131  0.63619  1.0000
  H   H1053     1.0  0.04403  0.76159  0.76434  1.0000
  H   H1054     1.0  0.20774  0.78815  0.76544  1.0000
  H   H1055     1.0  0.26038  0.96297  0.49081  1.0000
  H   H1056     1.0  0.26043  0.91051  0.51195  1.0000
  H   H1057     1.0  0.29605  0.88385  0.55311  1.0000
  H   H1058     1.0  0.27622  0.88237  0.59402  1.0000
  H   H1059     1.0  0.24857  0.89512  0.59438  1.0000
  H   H1060     1.0  0.16726  0.83927  0.78142  1.0000
  H   H1061     1.0  0.20259  0.89773  0.59579  1.0000
  H   H1062     1.0  0.31889  0.91195  0.78254  1.0000
  H   H1063     1.0  0.29776  0.84738  0.58209  1.0000
  C   C1337     1.0  0.23307  0.85014  0.55419  1.0000
  H   H1064     1.0  0.26003  0.94352  0.53028  1.0000
  C   C1338     1.0  0.20595  0.79610  0.71289  1.0000
  P   P44       1.0  0.22404  0.82450  0.74242  1.0000
  C   C1339     1.0  0.20297  0.83257  0.74132  1.0000
  C   C1340     1.0  0.22475  0.81422  0.77469  1.0000
  C   C1341     1.0  0.23364  0.82458  0.79504  1.0000
  C   C1342     1.0  0.23336  0.81706  0.82045  1.0000
  C   C1343     1.0  0.22398  0.79925  0.82587  1.0000
  C   C1344     1.0  0.21486  0.78891  0.80588  1.0000
  C   C1345     1.0  0.21523  0.79634  0.78038  1.0000
  C   C1346     1.0  0.19601  0.83630  0.71698  1.0000
  S   S190      1.0  0.13981  0.79356  0.96647  1.0000
  H   H1065     1.0  0.29755  0.90040  0.95843  1.0000
  C   C1347     1.0  0.17553  0.83889  0.76345  1.0000
  C   C1348     1.0  0.19257  0.83392  0.76459  1.0000
  H   H1066     1.0  0.19350  0.85753  0.52124  1.0000
  C   C1349     1.0  0.08989  0.77486  0.78158  1.0000
  C   C1350     1.0  0.26268  0.83995  0.74415  1.0000
  H   H1067     1.0  0.19567  0.80594  0.57303  1.0000
  H   H1068     1.0  0.22125  0.86058  0.58767  1.0000
  H   H1069     1.0  0.20796  0.82487  0.96314  1.0000
  H   H1070     1.0  0.29208  0.87767  0.71628  1.0000
  H   H1071     1.0  0.18766  0.87480  0.48267  1.0000
  C   C1351     1.0  0.24494  0.85740  0.72051  1.0000
  C   C1352     1.0  0.22021  0.80280  0.96899  1.0000
  C   C1353     1.0  0.14804  0.87370  0.52809  1.0000
  H   H1072     1.0  0.02963  0.75193  0.93863  1.0000
  C   C1354     1.0  0.18541  0.87418  0.58013  1.0000
  C   C1355     1.0  0.24524  0.84223  0.73600  1.0000
  C   C1356     1.0  0.12866  0.84334  0.53207  1.0000
  H   H1073     1.0  0.01423  0.75491  0.69853  1.0000
  H   H1074     1.0  0.27693  0.99636  0.73676  1.0000
  H   H1075     1.0  0.21538  0.93175  0.93636  1.0000
  H   H1076     1.0  0.28797  0.89796  0.51229  1.0000
  H   H1077     1.0  0.99639  0.81678  0.69549  1.0000
  H   H1078     1.0  0.07806  0.75210  0.56862  1.0000
  C   C1357     1.0  0.14120  0.85713  0.51699  1.0000
  H   H1079     1.0  0.21842  0.79877  0.94883  1.0000
  H   H1080     1.0  0.15530  0.84601  0.73825  1.0000
  H   H1081     1.0  0.29361  0.86947  0.94506  1.0000
  H   H1082     1.0  0.29292  0.85078  0.74313  1.0000
  H   H1083     1.0  0.07668  0.77018  0.74433  1.0000
  H   H1084     1.0  0.17164  0.85043  0.56092  1.0000
  H   H1085     1.0  0.17617  0.87085  0.59769  1.0000
  C   C1358     1.0  0.16873  0.84257  0.73915  1.0000
  H   H1086     1.0  0.32322  0.84131  0.55311  1.0000
  H   H1087     1.0  0.29572  0.95903  0.48952  1.0000
  H   H1088     1.0  0.26215  0.93119  0.58836  1.0000
  H   H1089     1.0  0.19142  0.77462  0.68963  1.0000
  C   C1359     1.0  0.24785  0.94105  0.51814  1.0000
  C   C1360     1.0  0.22246  0.91326  0.96410  1.0000
  C   C1361     1.0  0.32245  0.99022  0.79233  1.0000
  C   C1362     1.0  0.20464  0.78441  0.69234  1.0000
  H   H1090     1.0  0.21915  0.88515  0.51798  1.0000
  S   S191      1.0  0.31677  0.93574  0.96626  1.0000
  C   C1363     1.0  0.02014  0.80047  0.87942  1.0000
  H   H1091     1.0  0.08543  0.77303  0.68795  1.0000
  C   C1364     1.0  0.20704  0.86720  0.96766  1.0000
  C   C1365     1.0  0.19498  0.86672  0.53693  1.0000
  C   C1366     1.0  0.30694  0.98707  0.69017  1.0000
  H   H1092     1.0  0.05488  0.78851  0.53868  1.0000
  H   H1093     1.0  0.99915  0.77660  0.79228  1.0000
  C   C1367     1.0  0.08052  0.76543  0.50371  1.0000
  H   H1094     1.0  0.24174  0.77233  0.49970  1.0000
  C   C1368     1.0  0.23263  0.94529  0.96664  1.0000
  C   C1369     1.0  0.32422  0.99501  0.70091  1.0000
  C   C1370     1.0  0.21629  0.93543  0.48707  1.0000
  H   H1095     1.0  0.27662  0.98096  0.69529  1.0000
  C   C1371     1.0  0.06569  0.75330  0.49209  1.0000
  H   H1096     1.0  0.31223  0.97039  0.95440  1.0000
  H   H1097     1.0  0.09510  0.76500  0.50048  1.0000
  H   H1098     1.0  0.31472  0.99593  0.92317  1.0000
  C   C1372     1.0  0.28999  0.98761  0.70327  1.0000
  C   C1373     1.0  0.25028  0.86524  0.97505  1.0000
  H   H1099     1.0  0.07093  0.74928  0.65910  1.0000
  C   C1374     1.0  0.32273  0.99769  0.94088  1.0000
  C   C1375     1.0  0.21434  0.81758  0.97710  1.0000
  C   C1376     1.0  0.35564  0.15884  0.24245  1.0000
  S   S192      1.0  0.39189  0.13524  0.32290  1.0000
  S   S193      1.0  0.40397  0.11719  0.39011  1.0000
  S   S194      1.0  0.40396  0.11535  0.25722  1.0000
  Fe  Fe97      1.0  0.38898  0.11634  0.04263  1.0000
  S   S195      1.0  0.42014  0.12817  0.03672  1.0000
  H   H1100     1.0  0.57727  0.00705  0.28903  1.0000
  Fe  Fe98      1.0  0.39106  0.11263  0.10307  1.0000
  S   S196      1.0  0.42247  0.12420  0.10107  1.0000
  H   H1101     1.0  0.34265  0.15287  0.11798  1.0000
  Fe  Fe99      1.0  0.41676  0.14411  0.07154  1.0000
  S   S197      1.0  0.43342  0.17281  0.07071  1.0000
  Fe  Fe100     1.0  0.42263  0.10712  0.06632  1.0000
  S   S198      1.0  0.44505  0.09218  0.06192  1.0000
  S   S199      1.0  0.38518  0.13382  0.07572  1.0000
  S   S200      1.0  0.39154  0.09391  0.07018  1.0000
  S   S201      1.0  0.39073  0.23397  0.06638  1.0000
  H   H1102     1.0  0.39842  0.15342  0.38161  1.0000
  Fe  Fe101     1.0  0.49473  0.01323  0.21954  1.0000
  C   C1377     1.0  0.34462  0.16374  0.38582  1.0000
  H   H1103     1.0  0.37040  0.05852  0.02588  1.0000
  S   S202      1.0  0.48213  0.02176  0.44320  1.0000
  S   S203      1.0  0.48299  0.02250  0.00166  1.0000
  H   H1104     1.0  0.40202  0.18324  0.20450  1.0000
  C   C1378     1.0  0.40610  0.18463  0.13744  1.0000
  C   C1379     1.0  0.39119  0.17571  0.26094  1.0000
  C   C1380     1.0  0.65364  0.03506  0.39714  1.0000
  P   P45       1.0  0.35650  0.03896  0.97867  1.0000
  C   C1381     1.0  0.46251  0.17175  0.45804  1.0000
  Fe  Fe102     1.0  0.64213  0.03223  0.27748  1.0000
  S   S204      1.0  0.64686  0.06183  0.27815  1.0000
  C   C1382     1.0  0.35661  0.01568  0.32345  1.0000
  Fe  Fe103     1.0  0.64493  0.03288  0.21608  1.0000
  H   H1105     1.0  0.48634  0.06063  0.43705  1.0000
  S   S205      1.0  0.64235  0.01669  0.17905  1.0000
  H   H1106     1.0  0.41049  0.00952  0.13306  1.0000
  Fe  Fe104     1.0  0.62648  0.05789  0.24502  1.0000
  S   S206      1.0  0.60238  0.07118  0.24101  1.0000
  S   S207      1.0  0.62056  0.02832  0.24610  1.0000
  S   S208      1.0  0.51343  0.04043  0.22829  1.0000
  C   C1383     1.0  0.57775  0.06120  0.23847  1.0000
  C   C1384     1.0  0.56614  0.07254  0.23309  1.0000
  C   C1385     1.0  0.54667  0.06579  0.23018  1.0000
  C   C1386     1.0  0.53830  0.04748  0.23218  1.0000
  C   C1387     1.0  0.54975  0.03591  0.23780  1.0000
  C   C1388     1.0  0.56944  0.04279  0.24133  1.0000
  H   H1107     1.0  0.57227  0.08675  0.23111  1.0000
  H   H1108     1.0  0.53804  0.07489  0.22611  1.0000
  H   H1109     1.0  0.54348  0.02175  0.23927  1.0000
  H   H1110     1.0  0.57822  0.03389  0.24570  1.0000
  H   H1111     1.0  0.33157  0.08418  0.23030  1.0000
  C   C1389     1.0  0.64207  0.01490  0.12508  1.0000
  C   C1390     1.0  0.57604  0.00694  0.99950  1.0000
  H   H1112     1.0  0.37338  0.00452  0.05160  1.0000
  C   C1391     1.0  0.46232  0.18966  0.45877  1.0000
  H   H1113     1.0  0.39970  0.99847  0.40287  1.0000
  C   C1392     1.0  0.64315  0.02293  0.34644  1.0000
  H   H1114     1.0  0.52868  0.00258  0.99647  1.0000
  S   S209      1.0  0.64333  0.00066  0.02669  1.0000
  C   C1393     1.0  0.39015  0.06631  0.38674  1.0000
  C   C1394     1.0  0.38026  0.17526  0.47175  1.0000
  H   H1115     1.0  0.56173  0.02815  0.04430  1.0000
  C   C1395     1.0  0.44486  0.05720  0.99163  1.0000
  H   H1116     1.0  0.59188  0.04146  0.19051  1.0000
  S   S210      1.0  0.46943  0.99981  0.24586  1.0000
  Fe  Fe105     1.0  0.65772  0.02974  0.02497  1.0000
  C   C1396     1.0  0.43967  0.11743  0.30867  1.0000
  C   C1397     1.0  0.39695  0.21522  0.43427  1.0000
  C   C1398     1.0  0.37052  0.09917  0.19541  1.0000
  H   H1117     1.0  0.42210  0.16661  0.45289  1.0000
  C   C1399     1.0  0.40271  0.21706  0.06678  1.0000
  C   C1400     1.0  0.42238  0.22107  0.06806  1.0000
  C   C1401     1.0  0.43166  0.20737  0.06841  1.0000
  C   C1402     1.0  0.42134  0.18958  0.06770  1.0000
  C   C1403     1.0  0.40169  0.18557  0.06573  1.0000
  C   C1404     1.0  0.39239  0.19929  0.06536  1.0000
  H   H1118     1.0  0.43043  0.23470  0.06910  1.0000
  H   H1119     1.0  0.44686  0.21051  0.06967  1.0000
  H   H1120     1.0  0.39364  0.17193  0.06475  1.0000
  H   H1121     1.0  0.37718  0.19613  0.06395  1.0000
  C   C1405     1.0  0.44557  0.08016  0.03339  1.0000
  C   C1406     1.0  0.43119  0.07799  0.01545  1.0000
  H   H1122     1.0  0.36205  0.14973  0.02174  1.0000
  Fe  Fe106     1.0  0.65275  0.02671  0.46701  1.0000
  C   C1407     1.0  0.45985  0.06035  0.00858  1.0000
  C   C1408     1.0  0.46017  0.07174  0.02945  1.0000
  H   H1123     1.0  0.41999  0.08465  0.01814  1.0000
  C   C1409     1.0  0.32949  0.99998  0.07952  1.0000
  H   H1124     1.0  0.47105  0.05377  0.00599  1.0000
  H   H1125     1.0  0.47152  0.07365  0.04301  1.0000
  C   C1410     1.0  0.39505  0.11225  0.22525  1.0000
  C   C1411     1.0  0.36208  0.17423  0.39308  1.0000
  C   C1412     1.0  0.45437  0.04076  0.37103  1.0000
  C   C1413     1.0  0.37097  0.19668  0.98685  1.0000
  C   C1414     1.0  0.40079  0.11668  0.17748  1.0000
  C   C1415     1.0  0.40699  0.11959  0.20327  1.0000
  H   H1126     1.0  0.42533  0.14902  0.35477  1.0000
  H   H1127     1.0  0.41012  0.12248  0.16077  1.0000
  H   H1128     1.0  0.42112  0.12763  0.20622  1.0000
  C   C1416     1.0  0.39432  0.11459  0.42281  1.0000
  C   C1417     1.0  0.40583  0.12201  0.44320  1.0000
  C   C1418     1.0  0.58257  0.02453  0.98981  1.0000
  C   C1419     1.0  0.55655  0.99923  0.00254  1.0000
  C   C1420     1.0  0.36900  0.10178  0.45547  1.0000
  C   C1421     1.0  0.37576  0.10468  0.42899  1.0000
  H   H1129     1.0  0.42010  0.12987  0.43868  1.0000
  C   C1422     1.0  0.37484  0.03763  0.00107  1.0000
  Fe  Fe107     1.0  0.38537  0.11298  0.29480  1.0000
  H   H1130     1.0  0.36676  0.09886  0.41348  1.0000
  C   C1423     1.0  0.37593  0.21898  0.31772  1.0000
  C   C1424     1.0  0.35640  0.21126  0.31824  1.0000
  C   C1425     1.0  0.34911  0.19274  0.31932  1.0000
  C   C1426     1.0  0.36106  0.18129  0.32033  1.0000
  C   C1427     1.0  0.38075  0.18882  0.32049  1.0000
  C   C1428     1.0  0.38820  0.20765  0.31882  1.0000
  H   H1131     1.0  0.34673  0.21971  0.31755  1.0000
  C   C1429     1.0  0.38242  0.10657  0.17341  1.0000
  H   H1132     1.0  0.39019  0.18016  0.32141  1.0000
  H   H1133     1.0  0.40333  0.21336  0.31857  1.0000
  C   C1430     1.0  0.48664  0.06695  0.45561  1.0000
  C   C1431     1.0  0.43098  0.09238  0.34002  1.0000
  C   C1432     1.0  0.43116  0.08075  0.31965  1.0000
  C   C1433     1.0  0.43583  0.08745  0.29361  1.0000
  C   C1434     1.0  0.44005  0.10588  0.28828  1.0000
  P   P46       1.0  0.43531  0.07231  0.26730  1.0000
  C   C1435     1.0  0.44694  0.05573  0.27883  1.0000
  C   C1436     1.0  0.41120  0.06226  0.25885  1.0000
  C   C1437     1.0  0.40773  0.05191  0.23659  1.0000
  C   C1438     1.0  0.38918  0.04457  0.22935  1.0000
  C   C1439     1.0  0.37395  0.04769  0.24413  1.0000
  C   C1440     1.0  0.37728  0.05805  0.26624  1.0000
  C   C1441     1.0  0.39583  0.06531  0.27353  1.0000
  C   C1442     1.0  0.46464  0.06110  0.29016  1.0000
  C   C1443     1.0  0.47403  0.04850  0.29862  1.0000
  C   C1444     1.0  0.46555  0.03040  0.29668  1.0000
  C   C1445     1.0  0.44757  0.02488  0.28654  1.0000
  C   C1446     1.0  0.43829  0.03746  0.27759  1.0000
  C   C1447     1.0  0.44768  0.08458  0.23824  1.0000
  C   C1448     1.0  0.43764  0.09226  0.22017  1.0000
  C   C1449     1.0  0.44698  0.10210  0.19792  1.0000
  C   C1450     1.0  0.46647  0.10467  0.19373  1.0000
  C   C1451     1.0  0.47664  0.09737  0.21177  1.0000
  C   C1452     1.0  0.46731  0.08730  0.23385  1.0000
  H   H1134     1.0  0.42708  0.08727  0.36001  1.0000
  H   H1135     1.0  0.42731  0.06655  0.32413  1.0000
  H   H1136     1.0  0.44305  0.11142  0.26834  1.0000
  H   H1137     1.0  0.41941  0.04971  0.22470  1.0000
  H   H1138     1.0  0.38663  0.03670  0.21202  1.0000
  H   H1139     1.0  0.35958  0.04229  0.23828  1.0000
  H   H1140     1.0  0.36550  0.06074  0.27755  1.0000
  H   H1141     1.0  0.39812  0.07363  0.29024  1.0000
  H   H1142     1.0  0.47132  0.07507  0.29224  1.0000
  H   H1143     1.0  0.48798  0.05273  0.30649  1.0000
  C   C1453     1.0  0.34207  0.00234  0.98761  1.0000
  H   H1144     1.0  0.34915  0.02128  0.05734  1.0000
  H   H1145     1.0  0.42446  0.03280  0.26967  1.0000
  H   H1146     1.0  0.42259  0.09083  0.22337  1.0000
  H   H1147     1.0  0.43910  0.10785  0.18399  1.0000
  H   H1148     1.0  0.47371  0.11237  0.17655  1.0000
  H   H1149     1.0  0.49178  0.09935  0.20851  1.0000
  H   H1150     1.0  0.47559  0.08165  0.24712  1.0000
  C   C1454     1.0  0.39236  0.16099  0.18030  1.0000
  C   C1455     1.0  0.39069  0.15499  0.15469  1.0000
  C   C1456     1.0  0.37677  0.10199  0.22121  1.0000
  H   H1151     1.0  0.38396  0.14121  0.15132  1.0000
  H   H1152     1.0  0.33275  0.09007  0.00545  1.0000
  H   H1153     1.0  0.36509  0.00453  0.24015  1.0000
  H   H1154     1.0  0.46414  0.16589  0.43938  1.0000
  H   H1155     1.0  0.34166  0.11532  0.21295  1.0000
  C   C1457     1.0  0.57001  0.02822  0.46678  1.0000
  H   H1156     1.0  0.36865  0.17991  0.46409  1.0000
  C   C1458     1.0  0.34456  0.01277  0.30239  1.0000
  C   C1459     1.0  0.59809  0.01201  0.07166  1.0000
  H   H1157     1.0  0.63948  0.00848  0.41122  1.0000
  C   C1460     1.0  0.58143  0.01308  0.19394  1.0000
  H   H1158     1.0  0.44918  0.01972  0.40107  1.0000
  C   C1461     1.0  0.47287  0.07586  0.46278  1.0000
  C   C1462     1.0  0.33836  0.14601  0.39498  1.0000
  C   C1463     1.0  0.37837  0.04877  0.02250  1.0000
  S   S211      1.0  0.38336  0.24276  0.31637  1.0000
  C   C1464     1.0  0.46863  0.23150  0.45263  1.0000
  C   C1465     1.0  0.34934  0.17032  0.00777  1.0000
  H   H1159     1.0  0.33616  0.16921  0.37241  1.0000
  C   C1466     1.0  0.44376  0.23487  0.12850  1.0000
  C   C1467     1.0  0.37329  0.16705  0.40996  1.0000
  Fe  Fe108     1.0  0.62267  0.00797  0.99975  1.0000
  C   C1468     1.0  0.34649  0.00779  0.06545  1.0000
  C   C1469     1.0  0.43862  0.19278  0.97859  1.0000
  H   H1160     1.0  0.35479  0.09373  0.46017  1.0000
  H   H1161     1.0  0.35972  0.17763  0.14443  1.0000
  C   C1470     1.0  0.32929  0.23700  0.99211  1.0000
  C   C1471     1.0  0.56597  0.99838  0.19106  1.0000
  H   H1162     1.0  0.44964  0.03333  0.04730  1.0000
  H   H1163     1.0  0.33512  0.16304  0.01418  1.0000
  H   H1164     1.0  0.43442  0.24061  0.01647  1.0000
  C   C1472     1.0  0.54666  0.00519  0.33377  1.0000
  H   H1165     1.0  0.35044  0.18506  0.24301  1.0000
  C   C1473     1.0  0.49463  0.24660  0.42236  1.0000
  C   C1474     1.0  0.35006  0.16606  0.15412  1.0000
  H   H1166     1.0  0.39581  0.05678  0.05551  1.0000
  C   C1475     1.0  0.36037  0.17716  0.24670  1.0000
  H   H1167     1.0  0.39683  0.16209  0.11350  1.0000
  C   C1476     1.0  0.54451  0.04525  0.38553  1.0000
  C   C1477     1.0  0.53884  0.02902  0.37314  1.0000
  C   C1478     1.0  0.51942  0.02110  0.37104  1.0000
  P   P47       1.0  0.55614  0.01772  0.36170  1.0000
  H   H1168     1.0  0.61493  0.03893  0.12505  1.0000
  H   H1169     1.0  0.42889  0.14776  0.98572  1.0000
  C   C1479     1.0  0.34335  0.00391  0.41389  1.0000
  C   C1480     1.0  0.35370  0.00326  0.34487  1.0000
  Fe  Fe109     1.0  0.38488  0.11402  0.35546  1.0000
  C   C1481     1.0  0.36014  0.99821  0.06210  1.0000
  H   H1170     1.0  0.38784  0.04496  0.45759  1.0000
  C   C1482     1.0  0.45176  0.04527  0.41771  1.0000
  H   H1171     1.0  0.39879  0.24236  0.44418  1.0000
  C   C1483     1.0  0.57811  0.03382  0.35179  1.0000
  C   C1484     1.0  0.59167  0.03992  0.37057  1.0000
  C   C1485     1.0  0.60910  0.05161  0.36299  1.0000
  C   C1486     1.0  0.61302  0.05761  0.33672  1.0000
  C   C1487     1.0  0.59949  0.05196  0.31800  1.0000
  C   C1488     1.0  0.58211  0.04010  0.32544  1.0000
  H   H1172     1.0  0.63321  0.00160  0.12881  1.0000
  H   H1173     1.0  0.36713  0.24115  0.37596  1.0000
  H   H1174     1.0  0.38682  0.00106  0.09942  1.0000
  C   C1489     1.0  0.36448  0.16282  0.01212  1.0000
  C   C1490     1.0  0.33971  0.04918  0.99447  1.0000
  H   H1175     1.0  0.35552  0.17574  0.19270  1.0000
  H   H1176     1.0  0.58893  0.03549  0.39109  1.0000
  H   H1177     1.0  0.61968  0.05584  0.37747  1.0000
  H   H1178     1.0  0.62659  0.06657  0.33087  1.0000
  H   H1179     1.0  0.60252  0.05668  0.29761  1.0000
  H   H1180     1.0  0.57204  0.03591  0.31044  1.0000
  C   C1491     1.0  0.45101  0.03115  0.06820  1.0000
  H   H1181     1.0  0.36595  0.13505  0.24378  1.0000
  C   C1492     1.0  0.45821  0.01323  0.10408  1.0000
  C   C1493     1.0  0.45497  0.02547  0.12199  1.0000
  C   C1494     1.0  0.44983  0.04079  0.11308  1.0000
  C   C1495     1.0  0.44803  0.04359  0.08600  1.0000
  P   P48       1.0  0.44676  0.05735  0.13574  1.0000
  C   C1496     1.0  0.42231  0.05816  0.13961  1.0000
  C   C1497     1.0  0.45493  0.05234  0.16747  1.0000
  C   C1498     1.0  0.44329  0.03920  0.18459  1.0000
  C   C1499     1.0  0.44967  0.03515  0.20904  1.0000
  C   C1500     1.0  0.46772  0.04399  0.21644  1.0000
  C   C1501     1.0  0.47948  0.05679  0.19928  1.0000
  C   C1502     1.0  0.47315  0.06098  0.17491  1.0000
  C   C1503     1.0  0.41600  0.06464  0.16277  1.0000
  C   C1504     1.0  0.39754  0.06654  0.16542  1.0000
  C   C1505     1.0  0.38518  0.06192  0.14500  1.0000
  C   C1506     1.0  0.39127  0.05536  0.12196  1.0000
  C   C1507     1.0  0.40977  0.05351  0.11920  1.0000
  C   C1508     1.0  0.46107  0.07876  0.12341  1.0000
  C   C1509     1.0  0.47829  0.07999  0.10938  1.0000
  C   C1510     1.0  0.48945  0.09653  0.09984  1.0000
  C   C1511     1.0  0.48358  0.11195  0.10435  1.0000
  C   C1512     1.0  0.46657  0.11086  0.11852  1.0000
  C   C1513     1.0  0.45531  0.09434  0.12797  1.0000
  H   H1182     1.0  0.57492  0.01429  0.13019  1.0000
  H   H1183     1.0  0.53573  0.02034  0.16427  1.0000
  H   H1184     1.0  0.43460  0.24380  0.12920  1.0000
  H   H1185     1.0  0.45673  0.02292  0.14263  1.0000
  H   H1186     1.0  0.44458  0.05553  0.07865  1.0000
  H   H1187     1.0  0.42943  0.03185  0.17887  1.0000
  H   H1188     1.0  0.44079  0.02483  0.22202  1.0000
  H   H1189     1.0  0.47283  0.04067  0.23519  1.0000
  H   H1190     1.0  0.49364  0.06338  0.20481  1.0000
  H   H1191     1.0  0.48263  0.07086  0.16199  1.0000
  H   H1192     1.0  0.42550  0.06869  0.17851  1.0000
  H   H1193     1.0  0.39293  0.07206  0.18299  1.0000
  H   H1194     1.0  0.37104  0.06389  0.14678  1.0000
  H   H1195     1.0  0.38176  0.05215  0.10596  1.0000
  H   H1196     1.0  0.41426  0.04886  0.10092  1.0000
  H   H1197     1.0  0.48301  0.06818  0.10550  1.0000
  H   H1198     1.0  0.50244  0.09734  0.08839  1.0000
  H   H1199     1.0  0.49194  0.12469  0.09627  1.0000
  H   H1200     1.0  0.46178  0.12277  0.12131  1.0000
  H   H1201     1.0  0.44193  0.09378  0.13813  1.0000
  P   P49       1.0  0.45505  0.07818  0.43996  1.0000
  C   C1514     1.0  0.46170  0.10101  0.42739  1.0000
  C   C1515     1.0  0.63815  0.01148  0.36895  1.0000
  C   C1516     1.0  0.41724  0.05885  0.45088  1.0000
  C   C1517     1.0  0.54965  0.00118  0.17966  1.0000
  C   C1518     1.0  0.45142  0.20751  0.14204  1.0000
  C   C1519     1.0  0.39272  0.04777  0.03952  1.0000
  H   H1202     1.0  0.64945  0.10907  0.16758  1.0000
  C   C1520     1.0  0.44798  0.10902  0.41771  1.0000
  C   C1521     1.0  0.45329  0.12649  0.40714  1.0000
  C   C1522     1.0  0.47228  0.13605  0.40603  1.0000
  C   C1523     1.0  0.48603  0.12814  0.41549  1.0000
  C   C1524     1.0  0.48080  0.11067  0.42602  1.0000
  C   C1525     1.0  0.54365  0.00871  0.99434  1.0000
  C   C1526     1.0  0.39901  0.05637  0.46231  1.0000
  H   H1203     1.0  0.34063  0.19274  0.99218  1.0000
  H   H1204     1.0  0.45432  0.03188  0.35503  1.0000
  C   C1527     1.0  0.43089  0.06655  0.99454  1.0000
  C   C1528     1.0  0.38606  0.18893  0.99120  1.0000
  H   H1205     1.0  0.41970  0.04898  0.43785  1.0000
  H   H1206     1.0  0.51460  0.00813  0.36283  1.0000
  H   H1207     1.0  0.57554  0.03949  0.45321  1.0000
  C   C1529     1.0  0.64762  0.02100  0.09890  1.0000
  C   C1530     1.0  0.36562  0.04101  0.37462  1.0000
  H   H1208     1.0  0.43318  0.10178  0.41820  1.0000
  H   H1209     1.0  0.44264  0.13262  0.39977  1.0000
  H   H1210     1.0  0.47634  0.14955  0.39774  1.0000
  H   H1211     1.0  0.50078  0.13550  0.41456  1.0000
  C   C1531     1.0  0.33006  0.07571  0.00606  1.0000
  H   H1212     1.0  0.36806  0.02768  0.32304  1.0000
  H   H1213     1.0  0.46008  0.06444  0.34582  1.0000
  H   H1214     1.0  0.33987  0.01538  0.40494  1.0000
  C   C1532     1.0  0.43177  0.07387  0.45632  1.0000
  C   C1533     1.0  0.55066  0.02317  0.47403  1.0000
  C   C1534     1.0  0.41522  0.17561  0.40201  1.0000
  C   C1535     1.0  0.41238  0.16205  0.38400  1.0000
  C   C1536     1.0  0.58943  0.01939  0.09189  1.0000
  C   C1537     1.0  0.44577  0.17068  0.37081  1.0000
  C   C1538     1.0  0.44867  0.18433  0.38856  1.0000
  C   C1539     1.0  0.43345  0.18677  0.40410  1.0000
  C   C1540     1.0  0.39788  0.20370  0.41389  1.0000
  H   H1215     1.0  0.40748  0.11270  0.98695  1.0000
  H   H1216     1.0  0.41538  0.03563  0.04768  1.0000
  C   C1541     1.0  0.40171  0.21071  0.38787  1.0000
  H   H1217     1.0  0.49103  0.02351  0.37830  1.0000
  H   H1218     1.0  0.46263  0.19322  0.38993  1.0000
  H   H1219     1.0  0.43571  0.19757  0.41740  1.0000
  H   H1220     1.0  0.64314  0.01235  0.08288  1.0000
  S   S212      1.0  0.64994  0.06240  0.21355  1.0000
  H   H1221     1.0  0.33395  0.18725  0.31941  1.0000
  C   C1542     1.0  0.43748  0.17605  0.99032  1.0000
  P   P50       1.0  0.41958  0.21384  0.16766  1.0000
  H   H1222     1.0  0.37539  0.14333  0.43190  1.0000
  H   H1223     1.0  0.52735  0.02221  0.03863  1.0000
  C   C1543     1.0  0.56396  0.03287  0.17574  1.0000
  H   H1224     1.0  0.40253  0.20207  0.37182  1.0000
  P   P51       1.0  0.58560  0.04127  0.08808  1.0000
  C   C1544     1.0  0.59413  0.05365  0.11656  1.0000
  C   C1545     1.0  0.59977  0.05396  0.06080  1.0000
  C   C1546     1.0  0.61956  0.05712  0.06074  1.0000
  C   C1547     1.0  0.63095  0.06792  0.04085  1.0000
  C   C1548     1.0  0.62268  0.07534  0.02051  1.0000
  C   C1549     1.0  0.60301  0.07229  0.02041  1.0000
  C   C1550     1.0  0.59159  0.06189  0.04068  1.0000
  C   C1551     1.0  0.58729  0.06824  0.12359  1.0000
  C   C1552     1.0  0.59426  0.07800  0.14536  1.0000
  C   C1553     1.0  0.60859  0.07368  0.15963  1.0000
  C   C1554     1.0  0.61611  0.05973  0.15193  1.0000
  C   C1555     1.0  0.60887  0.04969  0.13060  1.0000
  C   C1556     1.0  0.56040  0.03730  0.08396  1.0000
  C   C1557     1.0  0.54810  0.03907  0.10495  1.0000
  C   C1558     1.0  0.52854  0.03513  0.10186  1.0000
  C   C1559     1.0  0.52110  0.02933  0.07784  1.0000
  C   C1560     1.0  0.53317  0.02703  0.05710  1.0000
  C   C1561     1.0  0.55268  0.03063  0.06030  1.0000
  C   C1562     1.0  0.43982  0.21929  0.14463  1.0000
  C   C1563     1.0  0.50120  0.06622  0.47235  1.0000
  H   H1225     1.0  0.36974  0.23253  0.11933  1.0000
  H   H1226     1.0  0.60324  0.01951  0.05340  1.0000
  H   H1227     1.0  0.52256  0.00936  0.27861  1.0000
  H   H1228     1.0  0.62625  0.05126  0.07609  1.0000
  H   H1229     1.0  0.64620  0.07014  0.04087  1.0000
  H   H1230     1.0  0.63152  0.08330  0.00471  1.0000
  H   H1231     1.0  0.59658  0.07801  0.00463  1.0000
  H   H1232     1.0  0.57648  0.06028  0.04050  1.0000
  H   H1233     1.0  0.57657  0.07206  0.11228  1.0000
  H   H1234     1.0  0.58858  0.08894  0.15121  1.0000
  H   H1235     1.0  0.61377  0.08102  0.17679  1.0000
  H   H1236     1.0  0.62728  0.05639  0.16287  1.0000
  H   H1237     1.0  0.45747  0.16884  0.35853  1.0000
  H   H1238     1.0  0.55346  0.04309  0.12388  1.0000
  H   H1239     1.0  0.51908  0.03627  0.11822  1.0000
  H   H1240     1.0  0.50594  0.02613  0.07546  1.0000
  H   H1241     1.0  0.44203  0.17487  0.01025  1.0000
  H   H1242     1.0  0.44828  0.19512  0.15367  1.0000
  C   C1564     1.0  0.34948  0.13877  0.41168  1.0000
  P   P52       1.0  0.39564  0.18028  0.42044  1.0000
  C   C1565     1.0  0.41034  0.16795  0.46539  1.0000
  H   H1243     1.0  0.55931  0.05119  0.38860  1.0000
  C   C1566     1.0  0.40692  0.24455  0.17271  1.0000
  H   H1244     1.0  0.39457  0.16634  0.00748  1.0000
  C   C1567     1.0  0.39768  0.16679  0.13331  1.0000
  S   S213      1.0  0.38197  0.09194  0.32733  1.0000
  C   C1568     1.0  0.40075  0.17891  0.18453  1.0000
  C   C1569     1.0  0.45143  0.03388  0.39695  1.0000
  C   C1570     1.0  0.37157  0.05902  0.37988  1.0000
  C   C1571     1.0  0.40059  0.02493  0.01362  1.0000
  Fe  Fe110     1.0  0.36087  0.13297  0.32449  1.0000
  C   C1572     1.0  0.43521  0.11069  0.33452  1.0000
  C   C1573     1.0  0.45587  0.23217  0.43281  1.0000
  H   H1245     1.0  0.53671  0.02663  0.31590  1.0000
  H   H1246     1.0  0.35574  0.07618  0.98399  1.0000
  Fe  Fe111     1.0  0.50572  0.01707  0.46678  1.0000
  H   H1247     1.0  0.39465  0.08021  0.39118  1.0000
  C   C1574     1.0  0.39589  0.17475  0.45520  1.0000
  S   S214      1.0  0.36989  0.11356  0.00806  1.0000
  H   H1248     1.0  0.40973  0.01621  0.00963  1.0000
  C   C1575     1.0  0.56965  0.03414  0.98225  1.0000
  C   C1576     1.0  0.54866  0.01834  0.17213  1.0000
  H   H1249     1.0  0.39429  0.21030  0.45450  1.0000
  C   C1577     1.0  0.65842  0.04658  0.37467  1.0000
  C   C1578     1.0  0.36649  0.24157  0.00743  1.0000
  H   H1250     1.0  0.40727  0.23421  0.36216  1.0000
  C   C1579     1.0  0.58207  0.00896  0.11471  1.0000
  H   H1251     1.0  0.36172  0.06731  0.37861  1.0000
  C   C1580     1.0  0.40764  0.19088  0.16303  1.0000
  P   P53       1.0  0.36961  0.00650  0.37171  1.0000
  H   H1252     1.0  0.38070  0.24356  0.01393  1.0000
  C   C1581     1.0  0.58037  0.03018  0.18642  1.0000
  H   H1253     1.0  0.39916  0.21753  0.21678  1.0000
  H   H1254     1.0  0.40082  0.22490  0.01372  1.0000
  S   S215      1.0  0.63720  0.01448  0.31493  1.0000
  H   H1255     1.0  0.47302  0.02070  0.30286  1.0000
  S   S216      1.0  0.37360  0.10308  0.14138  1.0000
  H   H1256     1.0  0.48328  0.23048  0.09490  1.0000
  C   C1582     1.0  0.37815  0.03006  0.37645  1.0000
  H   H1257     1.0  0.43461  0.11960  0.35024  1.0000
  H   H1258     1.0  0.40954  0.22390  0.26203  1.0000
  C   C1583     1.0  0.41950  0.22188  0.24687  1.0000
  C   C1584     1.0  0.41376  0.21847  0.22119  1.0000
  H   H1259     1.0  0.41947  0.06454  0.98123  1.0000
  H   H1260     1.0  0.39695  0.14996  0.26018  1.0000
  H   H1261     1.0  0.40476  0.18215  0.26857  1.0000
  H   H1262     1.0  0.44234  0.13158  0.30421  1.0000
  H   H1263     1.0  0.49822  0.23830  0.46203  1.0000
  H   H1264     1.0  0.35117  0.03559  0.36927  1.0000
  H   H1265     1.0  0.49173  0.10473  0.43293  1.0000
  H   H1266     1.0  0.38724  0.15165  0.19679  1.0000
  S   S217      1.0  0.63587  0.03725  0.00014  1.0000
  H   H1267     1.0  0.36759  0.09603  0.23798  1.0000
  C   C1585     1.0  0.46248  0.23999  0.40803  1.0000
  H   H1268     1.0  0.41167  0.19354  0.12061  1.0000
  C   C1586     1.0  0.38674  0.15756  0.25635  1.0000
  C   C1587     1.0  0.37980  0.23569  0.13472  1.0000
  C   C1588     1.0  0.45762  0.05906  0.36588  1.0000
  C   C1589     1.0  0.40879  0.23090  0.99599  1.0000
  C   C1590     1.0  0.42794  0.23958  0.99755  1.0000
  C   C1591     1.0  0.51175  0.04618  0.39144  1.0000
  S   S218      1.0  0.34996  0.15795  0.32089  1.0000
  C   C1592     1.0  0.39965  0.23344  0.42857  1.0000
  H   H1269     1.0  0.45638  0.21762  0.19250  1.0000
  H   H1270     1.0  0.56290  0.04626  0.17117  1.0000
  H   H1271     1.0  0.44079  0.22680  0.43647  1.0000
  C   C1593     1.0  0.42765  0.15957  0.36856  1.0000
  C   C1594     1.0  0.45488  0.06366  0.41277  1.0000
  C   C1595     1.0  0.36001  0.23038  0.98680  1.0000
  S   S219      1.0  0.53515  0.03477  0.46097  1.0000
  C   C1596     1.0  0.34304  0.06777  0.99380  1.0000
  H   H1272     1.0  0.34648  0.02263  0.28635  1.0000
  H   H1273     1.0  0.38928  0.21210  0.13011  1.0000
  H   H1274     1.0  0.56201  0.00036  0.24679  1.0000
  C   C1597     1.0  0.45609  0.01598  0.07723  1.0000
  C   C1598     1.0  0.40382  0.03587  0.03508  1.0000
  C   C1599     1.0  0.42694  0.21699  0.20115  1.0000
  H   H1275     1.0  0.38112  0.19943  0.26041  1.0000
  C   C1600     1.0  0.38612  0.02574  0.99675  1.0000
  H   H1276     1.0  0.47576  0.20229  0.12200  1.0000
  H   H1277     1.0  0.44098  0.01080  0.28517  1.0000
  C   C1601     1.0  0.64802  0.02578  0.14630  1.0000
  C   C1602     1.0  0.64335  0.01748  0.39415  1.0000
  C   C1603     1.0  0.37798  0.18548  0.25613  1.0000
  C   C1604     1.0  0.53769  0.01303  0.31445  1.0000
  H   H1278     1.0  0.34474  0.12498  0.41865  1.0000
  H   H1279     1.0  0.36665  0.18780  0.38533  1.0000
  C   C1605     1.0  0.33198  0.11199  0.23003  1.0000
  C   C1606     1.0  0.35255  0.18720  0.99528  1.0000
  H   H1280     1.0  0.45853  0.00645  0.06336  1.0000
  C   C1607     1.0  0.36691  0.14921  0.41905  1.0000
  C   C1608     1.0  0.48184  0.24724  0.40281  1.0000
  C   C1609     1.0  0.34042  0.15214  0.13921  1.0000
  H   H1281     1.0  0.44399  0.20460  0.98953  1.0000
  C   C1610     1.0  0.38283  0.17217  0.00398  1.0000
  C   C1611     1.0  0.40289  0.05568  0.38785  1.0000
  C   C1612     1.0  0.34770  0.16488  0.18158  1.0000
  C   C1613     1.0  0.43829  0.22333  0.25288  1.0000
  H   H1282     1.0  0.58756  0.00142  0.37015  1.0000
  C   C1614     1.0  0.36903  0.14912  0.24718  1.0000
  C   C1615     1.0  0.39696  0.03760  0.38284  1.0000
  H   H1283     1.0  0.41731  0.06145  0.39297  1.0000
  C   C1616     1.0  0.56082  0.00342  0.38796  1.0000
  C   C1617     1.0  0.53099  0.05380  0.39458  1.0000
  C   C1618     1.0  0.45788  0.07049  0.38661  1.0000
  S   S220      1.0  0.35384  0.11262  0.35872  1.0000
  C   C1619     1.0  0.40446  0.22832  0.16024  1.0000
  C   C1620     1.0  0.39096  0.22408  0.14093  1.0000
  H   H1284     1.0  0.44288  0.22650  0.27256  1.0000
  H   H1285     1.0  0.46430  0.19753  0.44055  1.0000
  H   H1286     1.0  0.40707  0.02968  0.38421  1.0000
  C   C1621     1.0  0.52972  0.00334  0.29323  1.0000
  H   H1287     1.0  0.59700  0.02210  0.47061  1.0000
  C   C1622     1.0  0.50597  0.02977  0.37985  1.0000
  H   H1288     1.0  0.50129  0.05272  0.39861  1.0000
  H   H1289     1.0  0.44967  0.03975  0.43774  1.0000
  S   S221      1.0  0.35454  0.11165  0.29465  1.0000
  C   C1623     1.0  0.44579  0.21837  0.20745  1.0000
  C   C1624     1.0  0.40448  0.22890  0.38231  1.0000
  H   H1290     1.0  0.46048  0.08460  0.38205  1.0000
  H   H1291     1.0  0.35638  0.09117  0.19242  1.0000
  C   C1625     1.0  0.45139  0.22148  0.23323  1.0000
  H   H1292     1.0  0.46610  0.22328  0.23777  1.0000
  H   H1293     1.0  0.46239  0.00158  0.11108  1.0000
  H   H1294     1.0  0.53544  0.06612  0.40465  1.0000
  C   C1626     1.0  0.46704  0.21156  0.12418  1.0000
  Fe  Fe112     1.0  0.35104  0.09140  0.32870  1.0000
  C   C1627     1.0  0.54833  0.99861  0.41014  1.0000
  C   C1628     1.0  0.47124  0.22740  0.10883  1.0000
  C   C1629     1.0  0.39904  0.11918  0.46959  1.0000
  H   H1295     1.0  0.34880  0.00396  0.00627  1.0000
  H   H1296     1.0  0.38404  0.01740  0.97997  1.0000
  S   S222      1.0  0.47796  0.00656  0.18317  1.0000
  H   H1297     1.0  0.53538  0.00291  0.41171  1.0000
  C   C1630     1.0  0.45956  0.23902  0.11093  1.0000
  P   P54       1.0  0.33289  0.14815  0.22995  1.0000
  C   C1631     1.0  0.55021  0.02602  0.98350  1.0000
  C   C1632     1.0  0.65323  0.04057  0.34947  1.0000
  H   H1298     1.0  0.65726  0.04955  0.33239  1.0000
  H   H1299     1.0  0.45721  0.99818  0.34170  1.0000
  C   C1633     1.0  0.48809  0.23870  0.44718  1.0000
  H   H1300     1.0  0.32593  0.16410  0.27949  1.0000
  C   C1634     1.0  0.33559  0.14973  0.19438  1.0000
  H   H1301     1.0  0.51153  0.05899  0.46689  1.0000
  H   H1302     1.0  0.59402  0.01158  0.20329  1.0000
  H   H1303     1.0  0.45256  0.24097  0.39302  1.0000
  C   C1635     1.0  0.42774  0.08604  0.47398  1.0000
  H   H1304     1.0  0.40036  0.19570  0.98476  1.0000
  H   H1305     1.0  0.35019  0.23777  0.41976  1.0000
  S   S223      1.0  0.33072  0.06373  0.32490  1.0000
  H   H1306     1.0  0.59754  0.03065  0.98752  1.0000
  C   C1636     1.0  0.40351  0.24024  0.40267  1.0000
  C   C1637     1.0  0.65895  0.04320  0.14090  1.0000
  C   C1638     1.0  0.38071  0.10876  0.47594  1.0000
  H   H1307     1.0  0.39792  0.00189  0.24524  1.0000
  C   C1639     1.0  0.32797  0.13723  0.15171  1.0000
  C   C1640     1.0  0.34126  0.22823  0.97919  1.0000
  C   C1641     1.0  0.32636  0.09434  0.23984  1.0000
  C   C1642     1.0  0.58218  0.01843  0.47670  1.0000
  C   C1643     1.0  0.44334  0.03289  0.65450  1.0000
  S   S224      1.0  0.39368  0.13219  0.82060  1.0000
  S   S225      1.0  0.40400  0.11526  0.89075  1.0000
  S   S226      1.0  0.39931  0.10325  0.76031  1.0000
  Fe  Fe113     1.0  0.39209  0.10989  0.54314  1.0000
  S   S227      1.0  0.42335  0.12195  0.53793  1.0000
  C   C1644     1.0  0.57496  0.00360  0.49383  1.0000
  Fe  Fe114     1.0  0.39317  0.10858  0.60409  1.0000
  S   S228      1.0  0.42452  0.12041  0.60294  1.0000
  H   H1308     1.0  0.43894  0.12747  0.67826  1.0000
  Fe  Fe115     1.0  0.41914  0.13897  0.57122  1.0000
  S   S229      1.0  0.43535  0.16778  0.56924  1.0000
  Fe  Fe116     1.0  0.42577  0.10222  0.56986  1.0000
  S   S230      1.0  0.44906  0.08805  0.56747  1.0000
  S   S231      1.0  0.38759  0.12845  0.57418  1.0000
  S   S232      1.0  0.39474  0.08883  0.57322  1.0000
  S   S233      1.0  0.38853  0.22558  0.57293  1.0000
  H   H1309     1.0  0.33678  0.18839  0.81100  1.0000
  C   C1645     1.0  0.47228  0.24417  0.52409  1.0000
  C   C1646     1.0  0.47440  0.08455  0.48669  1.0000
  C   C1647     1.0  0.40925  0.16203  0.49181  1.0000
  S   S234      1.0  0.48658  0.02594  0.93623  1.0000
  C   C1648     1.0  0.59987  0.03949  0.66899  1.0000
  H   H1310     1.0  0.41434  0.14229  0.69177  1.0000
  Fe  Fe117     1.0  0.50440  0.02122  0.96959  1.0000
  C   C1649     1.0  0.44349  0.15536  0.84036  1.0000
  C   C1650     1.0  0.44454  0.14985  0.86654  1.0000
  C   C1651     1.0  0.36497  0.04640  0.60582  1.0000
  H   H1311     1.0  0.37412  0.00623  0.79818  1.0000
  Fe  Fe118     1.0  0.64861  0.04207  0.77696  1.0000
  S   S235      1.0  0.64670  0.07037  0.77633  1.0000
  S   S236      1.0  0.64452  0.02370  0.81349  1.0000
  C   C1652     1.0  0.65329  0.04376  0.89727  1.0000
  C   C1653     1.0  0.37305  0.21948  0.73463  1.0000
  H   H1312     1.0  0.36549  0.10928  0.73646  1.0000
  C   C1654     1.0  0.38116  0.16280  0.93359  1.0000
  Fe  Fe119     1.0  0.62923  0.06289  0.74065  1.0000
  S   S237      1.0  0.60321  0.07335  0.73466  1.0000
  S   S238      1.0  0.62944  0.03418  0.74322  1.0000
  S   S239      1.0  0.51651  0.04555  0.70595  1.0000
  C   C1655     1.0  0.57920  0.06406  0.72711  1.0000
  C   C1656     1.0  0.56773  0.07585  0.72436  1.0000
  C   C1657     1.0  0.54873  0.06979  0.71805  1.0000
  C   C1658     1.0  0.54061  0.05174  0.71464  1.0000
  C   C1659     1.0  0.55190  0.03966  0.71778  1.0000
  C   C1660     1.0  0.57123  0.04586  0.72384  1.0000
  H   H1313     1.0  0.57364  0.08990  0.72687  1.0000
  H   H1314     1.0  0.54025  0.07924  0.71575  1.0000
  H   H1315     1.0  0.54587  0.02568  0.71512  1.0000
  H   H1316     1.0  0.57998  0.03666  0.72564  1.0000
  C   C1661     1.0  0.33472  0.02006  0.80720  1.0000
  S   S240      1.0  0.48855  0.01257  0.50506  1.0000
  H   H1317     1.0  0.35835  0.21361  0.73076  1.0000
  C   C1662     1.0  0.36377  0.05140  0.55871  1.0000
  C   C1663     1.0  0.35557  0.05896  0.93233  1.0000
  H   H1318     1.0  0.32957  0.03824  0.72183  1.0000
  C   C1664     1.0  0.64740  0.03181  0.84555  1.0000
  H   H1319     1.0  0.42017  0.15648  0.49965  1.0000
  H   H1320     1.0  0.65925  0.00557  0.63632  1.0000
  C   C1665     1.0  0.47581  0.23031  0.50940  1.0000
  H   H1321     1.0  0.33791  0.04310  0.86387  1.0000
  H   H1322     1.0  0.40970  0.19926  0.62673  1.0000
  C   C1666     1.0  0.58504  0.00971  0.91296  1.0000
  H   H1323     1.0  0.62476  0.05640  0.54687  1.0000
  C   C1667     1.0  0.65437  0.05592  0.87587  1.0000
  C   C1668     1.0  0.56086  0.00072  0.59730  1.0000
  C   C1669     1.0  0.42360  0.21015  0.68858  1.0000
  H   H1324     1.0  0.45790  0.01289  0.56615  1.0000
  H   H1325     1.0  0.40707  0.01052  0.94429  1.0000
  C   C1670     1.0  0.65835  0.04092  0.59539  1.0000
  C   C1671     1.0  0.40176  0.20968  0.57367  1.0000
  C   C1672     1.0  0.42147  0.21468  0.57004  1.0000
  C   C1673     1.0  0.43168  0.20172  0.56928  1.0000
  C   C1674     1.0  0.42222  0.18367  0.57208  1.0000
  C   C1675     1.0  0.40257  0.17867  0.57652  1.0000
  C   C1676     1.0  0.39234  0.19164  0.57718  1.0000
  H   H1326     1.0  0.42888  0.22848  0.56749  1.0000
  H   H1327     1.0  0.44692  0.20571  0.56621  1.0000
  H   H1328     1.0  0.39520  0.16485  0.57940  1.0000
  H   H1329     1.0  0.37710  0.18769  0.58024  1.0000
  C   C1677     1.0  0.44539  0.06927  0.54810  1.0000
  C   C1678     1.0  0.42857  0.06335  0.53516  1.0000
  C   C1679     1.0  0.42654  0.04924  0.51809  1.0000
  C   C1680     1.0  0.44144  0.04133  0.51336  1.0000
  C   C1681     1.0  0.45793  0.04666  0.52727  1.0000
  C   C1682     1.0  0.45976  0.06043  0.54496  1.0000
  H   H1330     1.0  0.41732  0.06990  0.53787  1.0000
  C   C1683     1.0  0.38034  0.16509  0.71680  1.0000
  H   H1331     1.0  0.46945  0.04050  0.52394  1.0000
  H   H1332     1.0  0.47270  0.06476  0.55531  1.0000
  C   C1684     1.0  0.39264  0.10459  0.72719  1.0000
  C   C1685     1.0  0.34457  0.00500  0.52919  1.0000
  C   C1686     1.0  0.41552  0.20729  0.64290  1.0000
  H   H1333     1.0  0.65790  0.07003  0.87916  1.0000
  C   C1687     1.0  0.39995  0.10240  0.68018  1.0000
  C   C1688     1.0  0.40509  0.10230  0.70666  1.0000
  C   C1689     1.0  0.42453  0.14837  0.67603  1.0000
  H   H1334     1.0  0.40954  0.10030  0.66464  1.0000
  H   H1335     1.0  0.41872  0.10022  0.71127  1.0000
  C   C1690     1.0  0.39414  0.11390  0.92332  1.0000
  C   C1691     1.0  0.37511  0.11352  0.92834  1.0000
  C   C1692     1.0  0.34421  0.01333  0.82686  1.0000
  C   C1693     1.0  0.37920  0.16923  0.49810  1.0000
  C   C1694     1.0  0.35647  0.05226  0.58425  1.0000
  C   C1695     1.0  0.40569  0.11342  0.94467  1.0000
  H   H1336     1.0  0.62105  0.00759  0.64974  1.0000
  S   S241      1.0  0.47995  0.00700  0.67219  1.0000
  C   C1696     1.0  0.36210  0.15344  0.93526  1.0000
  H   H1337     1.0  0.42036  0.11343  0.94104  1.0000
  C   C1697     1.0  0.37674  0.22232  0.81323  1.0000
  C   C1698     1.0  0.35763  0.21344  0.81157  1.0000
  P   P55       1.0  0.41536  0.18040  0.90680  1.0000
  C   C1699     1.0  0.36459  0.18442  0.81522  1.0000
  C   C1700     1.0  0.38390  0.19312  0.81695  1.0000
  C   C1701     1.0  0.38997  0.21205  0.81599  1.0000
  H   H1338     1.0  0.34723  0.22105  0.80959  1.0000
  C   C1702     1.0  0.36868  0.23207  0.92119  1.0000
  H   H1339     1.0  0.39408  0.18529  0.81872  1.0000
  H   H1340     1.0  0.40480  0.21867  0.81729  1.0000
  C   C1703     1.0  0.52456  0.99868  0.87303  1.0000
  H   H1341     1.0  0.57475  0.04771  0.97459  1.0000
  C   C1704     1.0  0.43840  0.13984  0.66833  1.0000
  H   H1342     1.0  0.64853  0.01607  0.90876  1.0000
  P   P56       1.0  0.37511  0.21845  0.97036  1.0000
  C   C1705     1.0  0.41109  0.23685  0.94887  1.0000
  H   H1343     1.0  0.41712  0.15017  0.94152  1.0000
  H   H1344     1.0  0.39563  0.05019  0.95545  1.0000
  C   C1706     1.0  0.40457  0.21276  0.50978  1.0000
  Fe  Fe120     1.0  0.38236  0.10823  0.79659  1.0000
  C   C1707     1.0  0.38965  0.16093  0.76129  1.0000
  H   H1345     1.0  0.38537  0.04421  0.53500  1.0000
  C   C1708     1.0  0.40759  0.03514  0.75944  1.0000
  C   C1709     1.0  0.38328  0.20925  0.74790  1.0000
  C   C1710     1.0  0.41547  0.19943  0.66817  1.0000
  C   C1711     1.0  0.55038  0.03421  0.61202  1.0000
  C   C1712     1.0  0.36246  0.99876  0.62025  1.0000
  H   H1346     1.0  0.48995  0.00189  0.80841  1.0000
  H   H1347     1.0  0.41008  0.20867  0.76363  1.0000
  H   H1348     1.0  0.39366  0.20233  0.51982  1.0000
  H   H1349     1.0  0.34071  0.15323  0.61320  1.0000
  C   C1713     1.0  0.64902  0.02556  0.89266  1.0000
  C   C1714     1.0  0.33399  0.01446  0.94641  1.0000
  C   C1715     1.0  0.42382  0.16221  0.95116  1.0000
  C   C1716     1.0  0.42521  0.17895  0.93888  1.0000
  C   C1717     1.0  0.43242  0.19426  0.95307  1.0000
  C   C1718     1.0  0.44062  0.23207  0.88330  1.0000
  C   C1719     1.0  0.43030  0.24536  0.95045  1.0000
  S   S242      1.0  0.47367  0.00746  0.73626  1.0000
  H   H1350     1.0  0.37490  0.24503  0.92863  1.0000
  H   H1351     1.0  0.43282  0.20736  0.94503  1.0000
  C   C1720     1.0  0.39043  0.16880  0.90903  1.0000
  H   H1352     1.0  0.44931  0.20969  0.89926  1.0000
  C   C1721     1.0  0.50335  0.23086  0.53517  1.0000
  Fe  Fe121     1.0  0.65334  0.03285  0.96493  1.0000
  C   C1722     1.0  0.64599  0.01964  0.86696  1.0000
  H   H1353     1.0  0.43070  0.02840  0.73825  1.0000
  H   H1354     1.0  0.34556  0.18606  0.89385  1.0000
  C   C1723     1.0  0.61224  0.02850  0.66906  1.0000
  H   H1355     1.0  0.35251  0.02225  0.84041  1.0000
  C   C1724     1.0  0.37653  0.05521  0.69293  1.0000
  C   C1725     1.0  0.36183  0.23092  0.89580  1.0000
  C   C1726     1.0  0.37963  0.04475  0.55476  1.0000
  C   C1727     1.0  0.40444  0.01665  0.92585  1.0000
  H   H1356     1.0  0.38854  0.16500  0.95160  1.0000
  C   C1728     1.0  0.38828  0.03905  0.57629  1.0000
  C   C1729     1.0  0.38596  0.01605  0.91897  1.0000
  C   C1730     1.0  0.50250  0.07480  0.49612  1.0000
  H   H1357     1.0  0.33444  0.02543  0.93265  1.0000
  C   C1731     1.0  0.58650  0.03800  0.64963  1.0000
  H   H1358     1.0  0.33429  0.01286  0.52902  1.0000
  H   H1359     1.0  0.41956  0.16577  0.76648  1.0000
  H   H1360     1.0  0.42837  0.17389  0.71956  1.0000
  C   C1732     1.0  0.43868  0.24691  0.97480  1.0000
  C   C1733     1.0  0.49952  0.24446  0.54994  1.0000
  H   H1361     1.0  0.64295  0.00558  0.86352  1.0000
  H   H1362     1.0  0.38327  0.03775  0.78254  1.0000
  C   C1734     1.0  0.40125  0.22942  0.50480  1.0000
  C   C1735     1.0  0.37288  0.04190  0.71292  1.0000
  H   H1363     1.0  0.35533  0.14844  0.95427  1.0000
  P   P57       1.0  0.56935  0.02407  0.60360  1.0000
  C   C1736     1.0  0.44461  0.00498  0.55939  1.0000
  H   H1364     1.0  0.45620  0.19231  0.52513  1.0000
  H   H1365     1.0  0.38504  0.06217  0.65233  1.0000
  P   P58       1.0  0.40605  0.17566  0.67349  1.0000
  C   C1737     1.0  0.38542  0.16853  0.65424  1.0000
  C   C1738     1.0  0.42373  0.16443  0.66322  1.0000
  C   C1739     1.0  0.43653  0.17138  0.64195  1.0000
  C   C1740     1.0  0.45025  0.16270  0.63417  1.0000
  C   C1741     1.0  0.45130  0.14702  0.64747  1.0000
  C   C1742     1.0  0.38122  0.15179  0.64313  1.0000
  C   C1743     1.0  0.36506  0.14630  0.62852  1.0000
  C   C1744     1.0  0.35311  0.15751  0.62472  1.0000
  C   C1745     1.0  0.35711  0.17413  0.63593  1.0000
  C   C1746     1.0  0.37311  0.17956  0.65085  1.0000
  C   C1747     1.0  0.39946  0.17011  0.70792  1.0000
  H   H1366     1.0  0.43584  0.18330  0.63096  1.0000
  H   H1367     1.0  0.45980  0.16795  0.61736  1.0000
  H   H1368     1.0  0.46176  0.14019  0.64113  1.0000
  H   H1369     1.0  0.39027  0.14286  0.64578  1.0000
  H   H1370     1.0  0.36182  0.13328  0.62021  1.0000
  H   H1371     1.0  0.35265  0.00709  0.62114  1.0000
  H   H1372     1.0  0.34782  0.18281  0.63309  1.0000
  H   H1373     1.0  0.37585  0.19234  0.65979  1.0000
  H   H1374     1.0  0.36912  0.16455  0.70334  1.0000
  C   C1748     1.0  0.51321  0.05414  0.77281  1.0000
  C   C1749     1.0  0.51650  0.07150  0.78123  1.0000
  C   C1750     1.0  0.53034  0.07756  0.79936  1.0000
  C   C1751     1.0  0.54096  0.06629  0.80896  1.0000
  C   C1752     1.0  0.53803  0.04889  0.80017  1.0000
  C   C1753     1.0  0.52395  0.04289  0.78208  1.0000
  P   P59       1.0  0.55135  0.03423  0.81370  1.0000
  C   C1754     1.0  0.53922  0.02440  0.84429  1.0000
  H   H1375     1.0  0.34061  0.05712  0.93707  1.0000
  C   C1755     1.0  0.38641  0.05524  0.94292  1.0000
  C   C1756     1.0  0.42380  0.02809  0.65170  1.0000
  C   C1757     1.0  0.43147  0.22839  0.68376  1.0000
  H   H1376     1.0  0.38881  0.07848  0.88463  1.0000
  H   H1377     1.0  0.49473  0.21319  0.50387  1.0000
  C   C1758     1.0  0.53481  0.03546  0.86350  1.0000
  C   C1759     1.0  0.37781  0.02069  0.68140  1.0000
  H   H1378     1.0  0.34843  0.21343  0.86621  1.0000
  C   C1760     1.0  0.34391  0.01692  0.96976  1.0000
  Fe  Fe122     1.0  0.62078  0.00354  0.50152  1.0000
  C   C1761     1.0  0.57458  0.04759  0.82074  1.0000
  C   C1762     1.0  0.58442  0.06100  0.80255  1.0000
  C   C1763     1.0  0.60258  0.07108  0.80757  1.0000
  C   C1764     1.0  0.61115  0.06775  0.83065  1.0000
  C   C1765     1.0  0.60147  0.05442  0.84886  1.0000
  C   C1766     1.0  0.58319  0.04444  0.84400  1.0000
  H   H1379     1.0  0.50268  0.04951  0.75843  1.0000
  H   H1380     1.0  0.50850  0.08029  0.77339  1.0000
  H   H1381     1.0  0.53301  0.09108  0.80576  1.0000
  H   H1382     1.0  0.55161  0.07129  0.82300  1.0000
  H   H1383     1.0  0.52134  0.02974  0.77454  1.0000
  H   H1384     1.0  0.52783  0.00982  0.61407  1.0000
  S   S243      1.0  0.37239  0.10335  0.50912  1.0000
  H   H1385     1.0  0.40516  0.23572  0.92973  1.0000
  H   H1386     1.0  0.41363  0.04478  0.50785  1.0000
  H   H1387     1.0  0.53883  0.04975  0.86030  1.0000
  H   H1388     1.0  0.52221  0.03673  0.90216  1.0000
  S   S244      1.0  0.65466  0.07100  0.71232  1.0000
  H   H1389     1.0  0.51231  0.00398  0.90996  1.0000
  C   C1767     1.0  0.57138  0.01851  0.77763  1.0000
  H   H1390     1.0  0.57816  0.06351  0.78429  1.0000
  H   H1391     1.0  0.61012  0.08128  0.79323  1.0000
  H   H1392     1.0  0.62538  0.07539  0.83429  1.0000
  H   H1393     1.0  0.60826  0.05173  0.86660  1.0000
  H   H1394     1.0  0.57591  0.03417  0.85824  1.0000
  H   H1395     1.0  0.45708  0.16092  0.52368  1.0000
  H   H1396     1.0  0.44139  0.08280  0.87645  1.0000
  H   H1397     1.0  0.60068  0.04925  0.68394  1.0000
  Fe  Fe123     1.0  0.38485  0.11354  0.85619  1.0000
  H   H1398     1.0  0.34432  0.05765  0.58735  1.0000
  C   C1768     1.0  0.45497  0.04568  0.63724  1.0000
  C   C1769     1.0  0.52162  0.05059  0.62626  1.0000
  H   H1399     1.0  0.59829  0.00544  0.61458  1.0000
  H   H1400     1.0  0.43429  0.00715  0.86987  1.0000
  S   S245      1.0  0.43911  0.02528  0.48934  1.0000
  H   H1401     1.0  0.36269  0.02106  0.49851  1.0000
  H   H1402     1.0  0.57041  0.04868  0.51294  1.0000
  H   H1403     1.0  0.61438  0.01339  0.92208  1.0000
  C   C1770     1.0  0.35360  0.21433  0.88596  1.0000
  H   H1404     1.0  0.56154  0.04233  0.91573  1.0000
  H   H1405     1.0  0.40708  0.09204  0.50081  1.0000
  C   C1771     1.0  0.57318  0.03608  0.91644  1.0000
  H   H1406     1.0  0.32704  0.24360  0.79031  1.0000
  C   C1772     1.0  0.43876  0.01150  0.84970  1.0000
  C   C1773     1.0  0.44115  0.02928  0.84108  1.0000
  C   C1774     1.0  0.44863  0.03469  0.81543  1.0000
  P   P60       1.0  0.43667  0.04525  0.86382  1.0000
  C   C1775     1.0  0.41681  0.03406  0.88559  1.0000
  C   C1776     1.0  0.45786  0.05371  0.88165  1.0000
  C   C1777     1.0  0.45674  0.06096  0.90638  1.0000
  C   C1778     1.0  0.47316  0.06794  0.91981  1.0000
  C   C1779     1.0  0.49086  0.06786  0.90862  1.0000
  C   C1780     1.0  0.49214  0.06076  0.88394  1.0000
  C   C1781     1.0  0.47573  0.05371  0.87048  1.0000
  C   C1782     1.0  0.39817  0.03328  0.87869  1.0000
  C   C1783     1.0  0.38282  0.02435  0.89538  1.0000
  C   C1784     1.0  0.41893  0.20338  0.89547  1.0000
  C   C1785     1.0  0.40729  0.22719  0.87569  1.0000
  C   C1786     1.0  0.41979  0.02547  0.90915  1.0000
  C   C1787     1.0  0.43064  0.06373  0.84688  1.0000
  C   C1788     1.0  0.42145  0.06142  0.82295  1.0000
  C   C1789     1.0  0.41781  0.07597  0.80925  1.0000
  C   C1790     1.0  0.42281  0.09283  0.81967  1.0000
  C   C1791     1.0  0.43103  0.09508  0.84407  1.0000
  C   C1792     1.0  0.43499  0.08063  0.85762  1.0000
  C   C1793     1.0  0.57025  0.01812  0.91101  1.0000
  H   H1407     1.0  0.57687  0.04644  0.65054  1.0000
  C   C1794     1.0  0.41845  0.02364  0.75167  1.0000
  H   H1408     1.0  0.50291  0.02435  0.62657  1.0000
  H   H1409     1.0  0.45187  0.04854  0.80878  1.0000
  H   H1410     1.0  0.44318  0.06114  0.91550  1.0000
  H   H1411     1.0  0.47209  0.07310  0.93921  1.0000
  H   H1412     1.0  0.50352  0.07301  0.91932  1.0000
  H   H1413     1.0  0.50584  0.06058  0.87535  1.0000
  H   H1414     1.0  0.47712  0.04829  0.85143  1.0000
  H   H1415     1.0  0.39544  0.03974  0.86063  1.0000
  H   H1416     1.0  0.36850  0.02413  0.89026  1.0000
  H   H1417     1.0  0.43399  0.02562  0.91480  1.0000
  H   H1418     1.0  0.41723  0.04843  0.81477  1.0000
  H   H1419     1.0  0.41099  0.07430  0.79059  1.0000
  H   H1420     1.0  0.41987  0.10409  0.80911  1.0000
  H   H1421     1.0  0.43415  0.10802  0.85263  1.0000
  H   H1422     1.0  0.44941  0.02672  0.67020  1.0000
  P   P61       1.0  0.46004  0.22054  0.48417  1.0000
  H   H1423     1.0  0.40929  0.99995  0.62414  1.0000
  C   C1795     1.0  0.43739  0.21456  0.89333  1.0000
  H   H1424     1.0  0.51534  0.22562  0.53961  1.0000
  C   C1796     1.0  0.46061  0.16138  0.48141  1.0000
  C   C1797     1.0  0.38211  0.10445  0.67400  1.0000
  H   H1425     1.0  0.36077  0.15657  0.75035  1.0000
  Fe  Fe124     1.0  0.49784  0.01750  0.70629  1.0000
  C   C1798     1.0  0.35167  0.19482  0.81245  1.0000
  C   C1799     1.0  0.35208  0.19888  0.90155  1.0000
  C   C1800     1.0  0.36761  0.21657  0.93681  1.0000
  C   C1801     1.0  0.32668  0.04688  0.73668  1.0000
  C   C1802     1.0  0.32893  0.07695  0.74981  1.0000
  C   C1803     1.0  0.37373  0.02467  0.70720  1.0000
  H   H1426     1.0  0.54349  0.07510  0.62367  1.0000
  H   H1427     1.0  0.56872  0.06092  0.61010  1.0000
  C   C1804     1.0  0.42555  0.23839  0.87461  1.0000
  C   C1805     1.0  0.51732  0.03225  0.62324  1.0000
  C   C1806     1.0  0.42322  0.22553  0.63823  1.0000
  H   H1428     1.0  0.38583  0.15744  0.78185  1.0000
  C   C1807     1.0  0.38183  0.00599  0.62369  1.0000
  S   S246      1.0  0.37402  0.10228  0.64147  1.0000
  C   C1808     1.0  0.38164  0.23726  0.72688  1.0000
  C   C1809     1.0  0.53807  0.00386  0.78471  1.0000
  C   C1810     1.0  0.39169  0.02883  0.77645  1.0000
  S   S247      1.0  0.37673  0.08914  0.83217  1.0000
  C   C1811     1.0  0.53160  0.02403  0.61621  1.0000
  H   H1429     1.0  0.42404  0.20459  0.70818  1.0000
  H   H1430     1.0  0.36600  0.11370  0.91222  1.0000
  C   C1812     1.0  0.36974  0.10693  0.69451  1.0000
  H   H1431     1.0  0.61931  0.04500  0.93200  1.0000
  C   C1813     1.0  0.38162  0.03402  0.66121  1.0000
  H   H1432     1.0  0.33722  0.14280  0.91364  1.0000
  H   H1433     1.0  0.41507  0.01818  0.66540  1.0000
  C   C1814     1.0  0.36783  0.11313  0.95438  1.0000
  C   C1815     1.0  0.37506  0.10723  0.72092  1.0000
  C   C1816     1.0  0.43311  0.24024  0.48598  1.0000
  H   H1434     1.0  0.33557  0.03416  0.80623  1.0000
  C   C1817     1.0  0.42226  0.20986  0.50334  1.0000
  H   H1435     1.0  0.43831  0.09800  0.47815  1.0000
  C   C1818     1.0  0.45232  0.02225  0.79816  1.0000
  H   H1436     1.0  0.47014  0.04947  0.63947  1.0000
  H   H1437     1.0  0.41147  0.04890  0.75216  1.0000
  Fe  Fe125     1.0  0.36379  0.13466  0.82267  1.0000
  C   C1819     1.0  0.40392  0.20979  0.88625  1.0000
  C   C1820     1.0  0.44697  0.05382  0.61741  1.0000
  S   S248      1.0  0.35517  0.16083  0.81599  1.0000
  H   H1438     1.0  0.41897  0.18640  0.84957  1.0000
  S   S249      1.0  0.63947  0.99950  0.53410  1.0000
  H   H1439     1.0  0.37407  0.00930  0.93199  1.0000
  C   C1821     1.0  0.60568  0.03751  0.92583  1.0000
  H   H1440     1.0  0.35195  0.21885  0.61039  1.0000
  H   H1441     1.0  0.36977  0.04509  0.73289  1.0000
  H   H1442     1.0  0.45605  0.06402  0.60450  1.0000
  H   H1443     1.0  0.42310  0.23155  0.61875  1.0000
  C   C1822     1.0  0.35194  0.15024  0.91247  1.0000
  C   C1823     1.0  0.65884  0.05357  0.61466  1.0000
  H   H1444     1.0  0.44965  0.14927  0.82467  1.0000
  C   C1824     1.0  0.37550  0.16048  0.74342  1.0000
  C   C1825     1.0  0.38008  0.16539  0.88619  1.0000
  C   C1826     1.0  0.59855  0.05371  0.52737  1.0000
  C   C1827     1.0  0.60949  0.05149  0.54860  1.0000
  C   C1828     1.0  0.34037  0.22910  0.64434  1.0000
  C   C1829     1.0  0.36695  0.05202  0.94928  1.0000
  H   H1445     1.0  0.59321  0.05969  0.92811  1.0000
  C   C1830     1.0  0.41563  0.03585  0.63139  1.0000
  C   C1831     1.0  0.42734  0.04910  0.61456  1.0000
  H   H1446     1.0  0.34039  0.07051  0.71301  1.0000
  C   C1832     1.0  0.42682  0.17064  0.88114  1.0000
  H   H1447     1.0  0.38973  0.20134  0.88644  1.0000
  C   C1833     1.0  0.57889  0.04718  0.52949  1.0000
  H   H1448     1.0  0.60533  0.06024  0.50914  1.0000
  H   H1449     1.0  0.35592  0.10854  0.68995  1.0000
  S   S250      1.0  0.35275  0.11146  0.79686  1.0000
  H   H1450     1.0  0.42798  0.02074  0.57775  1.0000
  C   C1834     1.0  0.44260  0.99914  0.83244  1.0000
  S   S251      1.0  0.63832  0.00416  0.96274  1.0000
  C   C1835     1.0  0.42607  0.17622  0.85469  1.0000
  C   C1836     1.0  0.36087  0.15642  0.88803  1.0000
  H   H1451     1.0  0.45485  0.24074  0.88185  1.0000
  H   H1452     1.0  0.40045  0.03382  0.57277  1.0000
  C   C1837     1.0  0.55442  0.05276  0.61390  1.0000
  C   C1838     1.0  0.54015  0.06087  0.62137  1.0000
  C   C1839     1.0  0.60082  0.04260  0.57190  1.0000
  H   H1453     1.0  0.60966  0.04085  0.58787  1.0000
  C   C1840     1.0  0.59301  0.00233  0.85379  1.0000
  H   H1454     1.0  0.65286  0.05951  0.83373  1.0000
  C   C1841     1.0  0.36224  0.23915  0.67887  1.0000
  H   H1455     1.0  0.35740  0.05630  0.54206  1.0000
  H   H1456     1.0  0.38776  0.23178  0.51088  1.0000
  C   C1842     1.0  0.49159  0.22381  0.51495  1.0000
  C   C1843     1.0  0.43122  0.23605  0.65863  1.0000
  S   S252      1.0  0.35548  0.11724  0.85975  1.0000
  H   H1457     1.0  0.39758  0.00286  0.56205  1.0000
  C   C1844     1.0  0.38269  0.07113  0.90261  1.0000
  C   C1845     1.0  0.43671  0.22361  0.49143  1.0000
  C   C1846     1.0  0.58105  0.03593  0.57409  1.0000
  C   C1847     1.0  0.57016  0.03830  0.55272  1.0000
  H   H1458     1.0  0.58378  0.02906  0.78110  1.0000
  C   C1848     1.0  0.59096  0.04582  0.92360  1.0000
  H   H1459     1.0  0.51062  0.05682  0.63249  1.0000
  H   H1460     1.0  0.35767  0.18785  0.93860  1.0000
  C   C1849     1.0  0.38656  0.01098  0.78537  1.0000
  C   C1850     1.0  0.36338  0.06829  0.90893  1.0000
  C   C1851     1.0  0.39373  0.16267  0.50814  1.0000
  Fe  Fe126     1.0  0.65270  0.02870  0.52821  1.0000
  C   C1852     1.0  0.40078  0.24446  0.73187  1.0000
  H   H1461     1.0  0.42151  0.05605  0.59954  1.0000
  H   H1462     1.0  0.35312  0.11296  0.95799  1.0000
  H   H1463     1.0  0.45801  0.02650  0.77838  1.0000
  H   H1464     1.0  0.38671  0.16966  0.86692  1.0000
  C   C1853     1.0  0.35909  0.19997  0.92686  1.0000
  C   C1854     1.0  0.43435  0.16863  0.83446  1.0000
  C   C1855     1.0  0.41098  0.23418  0.74512  1.0000
  C   C1856     1.0  0.39425  0.06494  0.91984  1.0000
  H   H1465     1.0  0.37171  0.01447  0.72280  1.0000
  P   P62       1.0  0.39019  0.02945  0.62914  1.0000
  C   C1857     1.0  0.59840  0.01484  0.62987  1.0000
  H   H1466     1.0  0.39286  0.15783  0.52849  1.0000
  H   H1467     1.0  0.35292  0.15398  0.87039  1.0000
  C   C1858     1.0  0.45989  0.19728  0.48288  1.0000
  C   C1859     1.0  0.38128  0.05142  0.66726  1.0000
  H   H1468     1.0  0.37619  0.06863  0.69746  1.0000
  C   C1860     1.0  0.43633  0.15747  0.88684  1.0000
  C   C1861     1.0  0.42769  0.00940  0.56588  1.0000
  H   H1469     1.0  0.43730  0.15270  0.90669  1.0000
  C   C1862     1.0  0.41357  0.17033  0.72605  1.0000
  C   C1863     1.0  0.38113  0.03996  0.60206  1.0000
  C   C1864     1.0  0.60278  0.01954  0.92046  1.0000
  H   H1470     1.0  0.38622  0.00335  0.49902  1.0000
  Fe  Fe127     1.0  0.34774  0.09372  0.83403  1.0000
  C   C1865     1.0  0.58583  0.02581  0.62966  1.0000
  C   C1866     1.0  0.48926  0.08418  0.50309  1.0000
  C   C1867     1.0  0.61139  0.01607  0.64966  1.0000
  H   H1471     1.0  0.45141  0.13941  0.87119  1.0000
  C   C1868     1.0  0.41058  0.99939  0.55667  1.0000
  C   C1869     1.0  0.37377  0.99940  0.51219  1.0000
  H   H1472     1.0  0.39582  0.23193  0.86775  1.0000
  C   C1870     1.0  0.39727  0.99926  0.77747  1.0000
  H   H1473     1.0  0.36702  0.16945  0.51073  1.0000
  H   H1474     1.0  0.38129  0.06659  0.48928  1.0000
  C   C1871     1.0  0.55378  0.01770  0.79038  1.0000
  C   C1872     1.0  0.40866  0.16577  0.75263  1.0000
  H   H1475     1.0  0.40931  0.06763  0.91525  1.0000
  C   C1873     1.0  0.40981  0.08299  0.48640  1.0000
  C   C1874     1.0  0.52535  0.02815  0.88723  1.0000
  H   H1476     1.0  0.55492  0.03297  0.55383  1.0000
  H   H1477     1.0  0.49015  0.09076  0.52164  1.0000
  S   S253      1.0  0.63266  0.03308  0.49752  1.0000
  Fe  Fe128     1.0  0.65592  0.04262  0.71685  1.0000
  H   H1478     1.0  0.35865  0.04671  0.62527  1.0000
  H   H1479     1.0  0.51373  0.07409  0.50915  1.0000
  C   C1875     1.0  0.45854  0.16894  0.50549  1.0000
  H   H1480     1.0  0.40816  0.12466  0.48510  1.0000
  H   H1481     1.0  0.43351  0.17291  0.81418  1.0000
  C   C1876     1.0  0.40224  0.21657  0.75309  1.0000
  H   H1482     1.0  0.37638  0.19575  0.75472  1.0000
  H   H1483     1.0  0.42468  0.19707  0.50851  1.0000
  C   C1877     1.0  0.36053  0.00958  0.51198  1.0000
  C   C1878     1.0  0.37639  0.23393  0.66421  1.0000
  C   C1879     1.0  0.54355  0.00847  0.49133  1.0000
  C   C1880     1.0  0.45799  0.18675  0.50625  1.0000
  H   H1484     1.0  0.38363  0.22281  0.62834  1.0000
  H   H1485     1.0  0.43796  0.23663  0.69944  1.0000
  C   C1881     1.0  0.44906  0.00442  0.80654  1.0000
  C   C1882     1.0  0.37257  0.22652  0.63975  1.0000
  H   H1486     1.0  0.37879  0.00738  0.67741  1.0000
  S   S254      1.0  0.53453  0.03753  0.97055  1.0000
  C   C1883     1.0  0.34410  0.23649  0.66891  1.0000
  H   H1487     1.0  0.52867  0.00456  0.49721  1.0000
  H   H1488     1.0  0.35453  0.07357  0.89585  1.0000
  Fe  Fe129     1.0  0.46413  0.01407  0.48031  1.0000
  H   H1489     1.0  0.33353  0.09118  0.74571  1.0000
  H   H1490     1.0  0.33574  0.21959  0.96350  1.0000
  C   C1884     1.0  0.41344  0.00585  0.76085  1.0000
  H   H1491     1.0  0.62261  0.02971  0.68401  1.0000
  H   H1492     1.0  0.48448  0.00565  0.85661  1.0000
  C   C1885     1.0  0.35464  0.22422  0.62969  1.0000
  C   C1886     1.0  0.65153  0.04999  0.85009  1.0000
  C   C1887     1.0  0.65905  0.01898  0.63038  1.0000
  H   H1493     1.0  0.59630  0.01502  0.86287  1.0000
  H   H1494     1.0  0.65772  0.01362  0.58887  1.0000
  H   H1495     1.0  0.57235  0.00281  0.55691  1.0000
  H   H1496     1.0  0.55644  0.01081  0.90541  1.0000
  Fe  Fe130     1.0  0.46423  0.02451  0.96833  1.0000
  C   C1888     1.0  0.51996  0.00974  0.89181  1.0000
  H   H1497     1.0  0.32648  0.22740  0.63645  1.0000
  C   C1889     1.0  0.55563  0.99865  0.50102  1.0000
  C   C1890     1.0  0.41551  0.24315  0.49282  1.0000
  C   C1891     1.0  0.57318  0.00580  0.75959  1.0000
  C   C1892     1.0  0.33277  0.06526  0.73142  1.0000
  H   H1498     1.0  0.35351  0.23826  0.76370  1.0000
  H   H1499     1.0  0.60271  0.01432  0.81541  1.0000
  H   H1500     1.0  0.42568  0.23992  0.74926  1.0000
  H   H1501     1.0  0.46072  0.14749  0.48093  1.0000
  H   H1502     1.0  0.46426  0.09166  0.49294  1.0000
  S   S255      1.0  0.44275  0.04099  0.96773  1.0000
  C   C1893     1.0  0.53451  0.00593  0.84962  1.0000
  H   H1503     1.0  0.58673  0.00676  0.74953  1.0000
  H   H1504     1.0  0.39053  0.23598  0.67139  1.0000
  H   H1505     1.0  0.65899  0.06706  0.60866  1.0000
  H   H1506     1.0  0.36308  0.24287  0.88353  1.0000
  C   C1894     1.0  0.65805  0.02348  0.60345  1.0000
  H   H1507     1.0  0.65504  0.01047  0.76228  1.0000
  H   H1508     1.0  0.33793  0.00930  0.73325  1.0000
  S   S256      1.0  0.38247  0.24609  0.81265  1.0000
  H   H1509     1.0  0.52431  0.00281  0.79419  1.0000
  C   C1895     1.0  0.34447  0.24566  0.75479  1.0000
  C   C1896     1.0  0.37951  0.11324  0.97570  1.0000
  H   H1510     1.0  0.33285  0.24023  0.67976  1.0000
  H   H1511     1.0  0.65879  0.09774  0.64434  1.0000
  S   S257      1.0  0.65857  0.05182  0.92906  1.0000
  C   C1897     1.0  0.40003  0.22979  0.97176  1.0000
  C   C1898     1.0  0.59691  0.00197  0.82677  1.0000
  C   C1899     1.0  0.39532  0.06844  0.48016  1.0000
  C   C1900     1.0  0.39843  0.11311  0.97075  1.0000
  C   C1901     1.0  0.43009  0.16078  0.97656  1.0000
  Fe  Fe131     1.0  0.44795  0.28116  0.33389  1.0000
  S   S258      1.0  0.41988  0.28773  0.33444  1.0000
  S   S259      1.0  0.46337  0.28040  0.37207  1.0000
  Fe  Fe132     1.0  0.44706  0.27601  0.27370  1.0000
  S   S260      1.0  0.41873  0.28196  0.27170  1.0000
  S   S261      1.0  0.45925  0.26783  0.23572  1.0000
  Fe  Fe133     1.0  0.43127  0.30467  0.29755  1.0000
  S   S262      1.0  0.42837  0.33314  0.29015  1.0000
  Fe  Fe134     1.0  0.41118  0.26418  0.30858  1.0000
  S   S263      1.0  0.45993  0.29923  0.29828  1.0000
  H   H1512     1.0  0.34670  0.26422  0.44278  1.0000
  Fe  Fe135     1.0  0.43460  0.29293  0.08976  1.0000
  S   S264      1.0  0.40332  0.28107  0.09425  1.0000
  S   S265      1.0  0.44932  0.30556  0.12570  1.0000
  Fe  Fe136     1.0  0.43444  0.29133  0.02851  1.0000
  S   S266      1.0  0.40315  0.27946  0.02956  1.0000
  H   H1513     1.0  0.47113  0.46184  0.07244  1.0000
  Fe  Fe137     1.0  0.40113  0.29915  0.06005  1.0000
  S   S267      1.0  0.38166  0.31747  0.05802  1.0000
  C   C1902     1.0  0.33577  0.30798  0.23186  1.0000
  S   S268      1.0  0.43212  0.31228  0.05703  1.0000
  S   S269      1.0  0.44008  0.27301  0.06106  1.0000
  H   H1514     1.0  0.47063  0.33227  0.02345  1.0000
  C   C1903     1.0  0.55217  0.43419  0.05782  1.0000
  H   H1515     1.0  0.37018  0.34199  0.15974  1.0000
  C   C1904     1.0  0.46058  0.33440  0.44117  1.0000
  S   S270      1.0  0.36555  0.41864  0.40558  1.0000
  S   S271      1.0  0.33956  0.36997  0.41339  1.0000
  Fe  Fe138     1.0  0.49904  0.42732  0.24219  1.0000
  S   S272      1.0  0.47223  0.43611  0.24008  1.0000
  S   S273      1.0  0.49791  0.39774  0.24787  1.0000
  Fe  Fe139     1.0  0.52395  0.46670  0.23702  1.0000
  S   S274      1.0  0.49820  0.47708  0.23527  1.0000
  S   S275      1.0  0.55328  0.48638  0.23390  1.0000
  Fe  Fe140     1.0  0.48625  0.45669  0.26808  1.0000
  S   S276      1.0  0.47166  0.46300  0.30525  1.0000
  Fe  Fe141     1.0  0.48778  0.45516  0.20729  1.0000
  S   S277      1.0  0.47572  0.46153  0.16842  1.0000
  S   S278      1.0  0.51262  0.44735  0.27130  1.0000
  S   S279      1.0  0.51399  0.44537  0.20784  1.0000
  Fe  Fe142     1.0  0.48773  0.45286  0.01481  1.0000
  S   S280      1.0  0.49612  0.44056  0.05249  1.0000
  Fe  Fe143     1.0  0.48911  0.45435  0.45337  1.0000
  S   S281      1.0  0.49674  0.44083  0.41717  1.0000
  C   C1905     1.0  0.35857  0.36372  0.02189  1.0000
  H   H1516     1.0  0.44252  0.39259  0.05093  1.0000
  S   S282      1.0  0.47155  0.47365  0.01597  1.0000
  C   C1906     1.0  0.52521  0.47551  0.35329  1.0000
  C   C1907     1.0  0.48251  0.45626  0.13635  1.0000
  C   C1908     1.0  0.49567  0.44625  0.13195  1.0000
  C   C1909     1.0  0.49985  0.44183  0.10611  1.0000
  C   C1910     1.0  0.49093  0.44720  0.08446  1.0000
  C   C1911     1.0  0.47811  0.45753  0.08883  1.0000
  C   C1912     1.0  0.47405  0.46210  0.11459  1.0000
  H   H1517     1.0  0.50252  0.44182  0.14840  1.0000
  H   H1518     1.0  0.51003  0.43417  0.10273  1.0000
  C   C1913     1.0  0.37333  0.31052  0.19074  1.0000
  C   C1914     1.0  0.42286  0.39712  0.19382  1.0000
  C   C1915     1.0  0.47700  0.45483  0.33627  1.0000
  C   C1916     1.0  0.48909  0.44357  0.33857  1.0000
  C   C1917     1.0  0.49421  0.43854  0.36356  1.0000
  C   C1918     1.0  0.48765  0.44508  0.38646  1.0000
  C   C1919     1.0  0.47465  0.45541  0.38426  1.0000
  C   C1920     1.0  0.46931  0.46016  0.35930  1.0000
  H   H1519     1.0  0.49477  0.43895  0.32116  1.0000
  H   H1520     1.0  0.50396  0.43022  0.36500  1.0000
  H   H1521     1.0  0.46879  0.45990  0.40168  1.0000
  H   H1522     1.0  0.45940  0.46824  0.35776  1.0000
  C   C1921     1.0  0.38174  0.42945  0.42879  1.0000
  C   C1922     1.0  0.37677  0.42910  0.45561  1.0000
  H   H1523     1.0  0.42489  0.33519  0.40821  1.0000
  H   H1524     1.0  0.39770  0.26851  0.17628  1.0000
  H   H1525     1.0  0.51088  0.35252  0.40851  1.0000
  C   C1923     1.0  0.40019  0.43868  0.41993  1.0000
  H   H1526     1.0  0.53804  0.44904  0.00037  1.0000
  C   C1924     1.0  0.39837  0.38266  0.13978  1.0000
  S   S283      1.0  0.45261  0.30119  0.99070  1.0000
  C   C1925     1.0  0.35687  0.29856  0.46347  1.0000
  H   H1527     1.0  0.37812  0.32204  0.99968  1.0000
  C   C1926     1.0  0.41000  0.40047  0.02353  1.0000
  H   H1528     1.0  0.34381  0.28691  0.02678  1.0000
  C   C1927     1.0  0.40833  0.37745  0.11869  1.0000
  C   C1928     1.0  0.39441  0.31012  0.22632  1.0000
  C   C1929     1.0  0.49260  0.35298  0.44257  1.0000
  C   C1930     1.0  0.55863  0.48178  0.11033  1.0000
  C   C1931     1.0  0.41769  0.36177  0.46944  1.0000
  C   C1932     1.0  0.34846  0.33871  0.99374  1.0000
  C   C1933     1.0  0.35684  0.32946  0.08974  1.0000
  C   C1934     1.0  0.36552  0.31564  0.08514  1.0000
  C   C1935     1.0  0.36153  0.30076  0.10259  1.0000
  C   C1936     1.0  0.34902  0.29975  0.12451  1.0000
  H   H1529     1.0  0.41222  0.36927  0.45473  1.0000
  H   H1530     1.0  0.38137  0.27107  0.35594  1.0000
  H   H1531     1.0  0.36789  0.28993  0.09906  1.0000
  H   H1532     1.0  0.41772  0.24854  0.18693  1.0000
  C   C1937     1.0  0.44798  0.35123  0.27954  1.0000
  C   C1938     1.0  0.46616  0.34889  0.27501  1.0000
  C   C1939     1.0  0.48115  0.36321  0.26526  1.0000
  C   C1940     1.0  0.47836  0.38022  0.26038  1.0000
  C   C1941     1.0  0.46030  0.38274  0.26563  1.0000
  C   C1942     1.0  0.44520  0.36832  0.27499  1.0000
  H   H1533     1.0  0.46866  0.33593  0.27839  1.0000
  H   H1534     1.0  0.49503  0.36105  0.26147  1.0000
  H   H1535     1.0  0.45802  0.39583  0.26265  1.0000
  H   H1536     1.0  0.43130  0.37042  0.27873  1.0000
  C   C1943     1.0  0.45338  0.28206  0.40400  1.0000
  C   C1944     1.0  0.46460  0.28250  0.42600  1.0000
  C   C1945     1.0  0.45757  0.28490  0.45141  1.0000
  C   C1946     1.0  0.43912  0.28674  0.45518  1.0000
  C   C1947     1.0  0.42775  0.28581  0.43333  1.0000
  C   C1948     1.0  0.43482  0.28356  0.40789  1.0000
  H   H1537     1.0  0.47906  0.28162  0.42324  1.0000
  C   C1949     1.0  0.35446  0.25024  0.02040  1.0000
  H   H1538     1.0  0.41357  0.28738  0.43604  1.0000
  H   H1539     1.0  0.42611  0.28353  0.39119  1.0000
  C   C1950     1.0  0.45592  0.27815  0.20526  1.0000
  C   C1951     1.0  0.45626  0.26917  0.18176  1.0000
  C   C1952     1.0  0.45380  0.27726  0.15734  1.0000
  C   C1953     1.0  0.45125  0.29444  0.15612  1.0000
  C   C1954     1.0  0.45154  0.30358  0.17950  1.0000
  C   C1955     1.0  0.45364  0.29544  0.20396  1.0000
  H   H1540     1.0  0.39124  0.39113  0.05758  1.0000
  H   H1541     1.0  0.45461  0.27058  0.13931  1.0000
  H   H1542     1.0  0.44988  0.31697  0.17870  1.0000
  H   H1543     1.0  0.45385  0.30267  0.22180  1.0000
  H   H1544     1.0  0.58647  0.47691  0.11211  1.0000
  C   C1956     1.0  0.35450  0.26600  0.42400  1.0000
  H   H1545     1.0  0.52718  0.47626  0.16308  1.0000
  H   H1546     1.0  0.45418  0.31969  0.40603  1.0000
  H   H1547     1.0  0.36399  0.26942  0.30456  1.0000
  H   H1548     1.0  0.54597  0.47732  0.02301  1.0000
  H   H1549     1.0  0.38400  0.36612  0.40274  1.0000
  C   C1957     1.0  0.37287  0.33848  0.41402  1.0000
  H   H1550     1.0  0.44663  0.32869  0.45031  1.0000
  C   C1958     1.0  0.45639  0.34935  0.00287  1.0000
  C   C1959     1.0  0.34425  0.32841  0.11157  1.0000
  C   C1960     1.0  0.41199  0.36518  0.02057  1.0000
  H   H1551     1.0  0.34892  0.33673  0.03618  1.0000
  H   H1552     1.0  0.33104  0.38636  0.32418  1.0000
  H   H1553     1.0  0.37233  0.38864  0.45641  1.0000
  C   C1961     1.0  0.53053  0.41693  0.16080  1.0000
  C   C1962     1.0  0.39049  0.42028  0.19228  1.0000
  H   H1554     1.0  0.36028  0.34130  0.07698  1.0000
  C   C1963     1.0  0.45960  0.41086  0.17251  1.0000
  H   H1555     1.0  0.35217  0.35796  0.46423  1.0000
  H   H1556     1.0  0.34107  0.28585  0.21079  1.0000
  C   C1964     1.0  0.36593  0.25281  0.38637  1.0000
  H   H1557     1.0  0.51629  0.48047  0.42742  1.0000
  H   H1558     1.0  0.47762  0.38549  0.45271  1.0000
  C   C1965     1.0  0.38740  0.35357  0.40686  1.0000
  H   H1559     1.0  0.38866  0.33287  0.12333  1.0000
  C   C1966     1.0  0.39127  0.34674  0.12785  1.0000
  H   H1560     1.0  0.49346  0.38844  0.03138  1.0000
  H   H1561     1.0  0.46420  0.47016  0.11777  1.0000
  C   C1967     1.0  0.45670  0.40239  0.19749  1.0000
  H   H1562     1.0  0.55404  0.46906  0.18539  1.0000
  C   C1968     1.0  0.41321  0.44380  0.07684  1.0000
  C   C1969     1.0  0.36770  0.40552  0.16148  1.0000
  H   H1563     1.0  0.36426  0.39848  0.14355  1.0000
  C   C1970     1.0  0.42421  0.44758  0.33417  1.0000
  C   C1971     1.0  0.42289  0.44738  0.30684  1.0000
  C   C1972     1.0  0.42358  0.43209  0.29359  1.0000
  C   C1973     1.0  0.42547  0.41697  0.30770  1.0000
  C   C1974     1.0  0.42702  0.41717  0.33513  1.0000
  C   C1975     1.0  0.42643  0.43259  0.34829  1.0000
  P   P63       1.0  0.42853  0.39722  0.35297  1.0000
  C   C1976     1.0  0.40675  0.38102  0.34621  1.0000
  C   C1977     1.0  0.44957  0.39070  0.34226  1.0000
  C   C1978     1.0  0.45283  0.37474  0.35221  1.0000
  C   C1979     1.0  0.46938  0.36993  0.34477  1.0000
  C   C1980     1.0  0.48311  0.38132  0.32811  1.0000
  C   C1981     1.0  0.48033  0.39753  0.31897  1.0000
  C   C1982     1.0  0.46360  0.40218  0.32584  1.0000
  C   C1983     1.0  0.38938  0.38557  0.34925  1.0000
  C   C1984     1.0  0.37243  0.37341  0.34383  1.0000
  C   C1985     1.0  0.37263  0.35677  0.33465  1.0000
  C   C1986     1.0  0.38983  0.35233  0.33054  1.0000
  C   C1987     1.0  0.40684  0.36444  0.33605  1.0000
  C   C1988     1.0  0.43043  0.40128  0.38783  1.0000
  C   C1989     1.0  0.41435  0.40064  0.40417  1.0000
  C   C1990     1.0  0.41619  0.40423  0.43084  1.0000
  C   C1991     1.0  0.43402  0.40879  0.44144  1.0000
  C   C1992     1.0  0.45009  0.40957  0.42539  1.0000
  C   C1993     1.0  0.44837  0.40597  0.39870  1.0000
  H   H1564     1.0  0.42394  0.45949  0.34439  1.0000
  H   H1565     1.0  0.42175  0.45919  0.29588  1.0000
  H   H1566     1.0  0.42289  0.43205  0.27237  1.0000
  H   H1567     1.0  0.42591  0.40517  0.29725  1.0000
  H   H1568     1.0  0.42786  0.43321  0.36934  1.0000
  H   H1569     1.0  0.44251  0.36589  0.36548  1.0000
  H   H1570     1.0  0.47149  0.35729  0.35168  1.0000
  H   H1571     1.0  0.49580  0.37751  0.32189  1.0000
  H   H1572     1.0  0.49095  0.40630  0.30589  1.0000
  H   H1573     1.0  0.46183  0.41480  0.31838  1.0000
  H   H1574     1.0  0.38885  0.39863  0.35550  1.0000
  H   H1575     1.0  0.35907  0.37694  0.34652  1.0000
  H   H1576     1.0  0.35939  0.34751  0.33036  1.0000
  H   H1577     1.0  0.39008  0.33958  0.32275  1.0000
  H   H1578     1.0  0.41989  0.36079  0.33170  1.0000
  H   H1579     1.0  0.40039  0.39799  0.39649  1.0000
  H   H1580     1.0  0.40382  0.40435  0.44305  1.0000
  C   C1994     1.0  0.54541  0.43379  0.03245  1.0000
  H   H1581     1.0  0.46397  0.41359  0.43341  1.0000
  H   H1582     1.0  0.46117  0.40737  0.38653  1.0000
  H   H1583     1.0  0.58025  0.49298  0.02316  1.0000
  C   C1995     1.0  0.36229  0.28309  0.41253  1.0000
  C   C1996     1.0  0.42559  0.40583  0.16883  1.0000
  H   H1584     1.0  0.40923  0.41418  0.02452  1.0000
  C   C1997     1.0  0.36033  0.30764  0.27310  1.0000
  S   S284      1.0  0.33173  0.36342  0.16100  1.0000
  C   C1998     1.0  0.37680  0.37807  0.24280  1.0000
  C   C1999     1.0  0.38588  0.36796  0.25842  1.0000
  C   C2000     1.0  0.38093  0.34943  0.25737  1.0000
  C   C2001     1.0  0.40419  0.30548  0.18167  1.0000
  C   C2002     1.0  0.38688  0.30724  0.17288  1.0000
  H   H1585     1.0  0.42130  0.30557  0.21536  1.0000
  C   C2003     1.0  0.40871  0.44674  0.46458  1.0000
  C   C2004     1.0  0.35191  0.34547  0.01883  1.0000
  C   C2005     1.0  0.43832  0.39551  0.20811  1.0000
  C   C2006     1.0  0.33014  0.30147  0.39199  1.0000
  H   H1586     1.0  0.38028  0.39240  0.24398  1.0000
  H   H1587     1.0  0.39657  0.37443  0.27162  1.0000
  H   H1588     1.0  0.38821  0.34178  0.26945  1.0000
  H   H1589     1.0  0.41471  0.30310  0.16767  1.0000
  H   H1590     1.0  0.38402  0.30615  0.15218  1.0000
  H   H1591     1.0  0.36015  0.31229  0.18350  1.0000
  H   H1592     1.0  0.35989  0.36881  0.04149  1.0000
  C   C2007     1.0  0.54330  0.47616  0.41585  1.0000
  C   C2008     1.0  0.37689  0.31167  0.21765  1.0000
  H   H1593     1.0  0.60235  0.47924  0.37619  1.0000
  C   C2009     1.0  0.40789  0.30682  0.20840  1.0000
  C   C2010     1.0  0.36290  0.37541  0.99984  1.0000
  H   H1594     1.0  0.35605  0.37755  0.21368  1.0000
  C   C2011     1.0  0.53391  0.47356  0.32916  1.0000
  C   C2012     1.0  0.35637  0.25093  0.41096  1.0000
  C   C2013     1.0  0.52722  0.41394  0.13430  1.0000
  C   C2014     1.0  0.36127  0.28240  0.30182  1.0000
  S   S285      1.0  0.47640  0.47751  0.44937  1.0000
  H   H1595     1.0  0.34466  0.31283  0.33550  1.0000
  C   C2015     1.0  0.48407  0.38882  0.47131  1.0000
  H   H1596     1.0  0.35849  0.33976  0.41538  1.0000
  C   C2016     1.0  0.42204  0.37804  0.00176  1.0000
  C   C2017     1.0  0.46938  0.38099  0.00714  1.0000
  C   C2018     1.0  0.45877  0.36542  0.09281  1.0000
  C   C2019     1.0  0.46883  0.37819  0.10947  1.0000
  C   C2020     1.0  0.46862  0.39607  0.10540  1.0000
  P   P64       1.0  0.48058  0.37122  0.13699  1.0000
  C   C2021     1.0  0.46326  0.36253  0.16379  1.0000
  C   C2022     1.0  0.49186  0.35460  0.12489  1.0000
  C   C2023     1.0  0.50374  0.35841  0.10196  1.0000
  C   C2024     1.0  0.51249  0.34573  0.09225  1.0000
  C   C2025     1.0  0.50928  0.32904  0.10514  1.0000
  C   C2026     1.0  0.49730  0.32504  0.12767  1.0000
  C   C2027     1.0  0.48858  0.33770  0.13744  1.0000
  C   C2028     1.0  0.46852  0.35502  0.18692  1.0000
  C   C2029     1.0  0.45509  0.34815  0.20732  1.0000
  C   C2030     1.0  0.43634  0.34886  0.20509  1.0000
  C   C2031     1.0  0.43086  0.35604  0.18208  1.0000
  C   C2032     1.0  0.44425  0.36294  0.16157  1.0000
  C   C2033     1.0  0.49963  0.38957  0.14659  1.0000
  C   C2034     1.0  0.50297  0.39291  0.17323  1.0000
  C   C2035     1.0  0.51184  0.40039  0.12720  1.0000
  C   C2036     1.0  0.47439  0.34654  0.45444  1.0000
  H   H1597     1.0  0.45822  0.35144  0.09614  1.0000
  H   H1598     1.0  0.47579  0.40610  0.11835  1.0000
  H   H1599     1.0  0.50603  0.37103  0.09126  1.0000
  C   C2037     1.0  0.35423  0.29021  0.32292  1.0000
  H   H1600     1.0  0.53923  0.48301  0.28876  1.0000
  H   H1601     1.0  0.49423  0.31190  0.13728  1.0000
  H   H1602     1.0  0.47884  0.33381  0.15423  1.0000
  H   H1603     1.0  0.48296  0.35424  0.18915  1.0000
  H   H1604     1.0  0.45919  0.34200  0.22473  1.0000
  H   H1605     1.0  0.42608  0.34372  0.22119  1.0000
  H   H1606     1.0  0.41624  0.35637  0.18022  1.0000
  H   H1607     1.0  0.43965  0.36861  0.14415  1.0000
  H   H1608     1.0  0.49384  0.38532  0.18891  1.0000
  H   H1609     1.0  0.50937  0.39863  0.10653  1.0000
  H   H1610     1.0  0.51580  0.31909  0.09749  1.0000
  C   C2038     1.0  0.52456  0.49050  0.06517  1.0000
  C   C2039     1.0  0.34042  0.31360  0.12909  1.0000
  P   P65       1.0  0.56055  0.48672  0.07511  1.0000
  H   H1611     1.0  0.33452  0.40066  0.04146  1.0000
  C   C2040     1.0  0.33586  0.24792  0.01281  1.0000
  C   C2041     1.0  0.45921  0.40121  0.08425  1.0000
  H   H1612     1.0  0.50962  0.25242  0.41830  1.0000
  C   C2042     1.0  0.57362  0.47726  0.12310  1.0000
  H   H1613     1.0  0.52163  0.34875  0.07459  1.0000
  C   C2043     1.0  0.35043  0.30681  0.31932  1.0000
  C   C2044     1.0  0.45601  0.36695  0.99652  1.0000
  C   C2045     1.0  0.37219  0.28485  0.38800  1.0000
  H   H1614     1.0  0.55370  0.42207  0.06749  1.0000
  H   H1615     1.0  0.33177  0.39921  0.27871  1.0000
  C   C2046     1.0  0.37695  0.32204  0.41906  1.0000
  H   H1616     1.0  0.53645  0.42229  0.11924  1.0000
  C   C2047     1.0  0.48290  0.33567  0.40437  1.0000
  C   C2048     1.0  0.40111  0.36997  0.04079  1.0000
  H   H1617     1.0  0.52982  0.48427  0.11588  1.0000
  H   H1618     1.0  0.36258  0.42226  0.46272  1.0000
  H   H1619     1.0  0.36782  0.38960  0.00227  1.0000
  C   C2049     1.0  0.40614  0.35239  0.40474  1.0000
  C   C2050     1.0  0.37404  0.26974  0.37508  1.0000
  C   C2051     1.0  0.44928  0.37060  0.07178  1.0000
  H   H1620     1.0  0.49454  0.35720  0.04134  1.0000
  C   C2052     1.0  0.36654  0.34088  0.24110  1.0000
  C   C2053     1.0  0.35310  0.40924  0.17693  1.0000
  C   C2054     1.0  0.57201  0.47283  0.15009  1.0000
  C   C2055     1.0  0.55457  0.46593  0.05854  1.0000
  C   C2056     1.0  0.54794  0.46541  0.03291  1.0000
  H   H1621     1.0  0.39780  0.31168  0.24683  1.0000
  C   C2057     1.0  0.36415  0.29099  0.27690  1.0000
  H   H1622     1.0  0.40408  0.43921  0.39918  1.0000
  C   C2058     1.0  0.41374  0.44696  0.43774  1.0000
  C   C2059     1.0  0.54024  0.47674  0.15194  1.0000
  C   C2060     1.0  0.48334  0.37751  0.02306  1.0000
  H   H1623     1.0  0.52599  0.46674  0.36990  1.0000
  H   H1624     1.0  0.54154  0.46340  0.32710  1.0000
  H   H1625     1.0  0.56200  0.45012  0.09039  1.0000
  C   C2061     1.0  0.51845  0.40638  0.18019  1.0000
  C   C2062     1.0  0.46481  0.32914  0.41614  1.0000
  C   C2063     1.0  0.40005  0.38759  0.04222  1.0000
  H   H1626     1.0  0.34934  0.32786  0.29170  1.0000
  C   C2064     1.0  0.54343  0.44941  0.01996  1.0000
  H   H1627     1.0  0.35125  0.28313  0.34182  1.0000
  C   C2065     1.0  0.55684  0.45019  0.07078  1.0000
  H   H1628     1.0  0.49671  0.49298  0.05667  1.0000
  H   H1629     1.0  0.48682  0.25377  0.38377  1.0000
  H   H1630     1.0  0.40550  0.25430  0.39826  1.0000
  C   C2066     1.0  0.32627  0.38505  0.28249  1.0000
  H   H1631     1.0  0.34703  0.34485  0.21178  1.0000
  C   C2067     1.0  0.42220  0.43694  0.12067  1.0000
  H   H1632     1.0  0.54234  0.42751  0.16637  1.0000
  H   H1633     1.0  0.46869  0.40105  0.20859  1.0000
  P   P66       1.0  0.35994  0.31697  0.24040  1.0000
  C   C2068     1.0  0.48390  0.35996  0.02876  1.0000
  H   H1634     1.0  0.48618  0.33122  0.38519  1.0000
  H   H1635     1.0  0.54155  0.42138  0.02252  1.0000
  H   H1636     1.0  0.58361  0.46941  0.15989  1.0000
  H   H1637     1.0  0.34567  0.42075  0.21235  1.0000
  H   H1638     1.0  0.42910  0.40611  0.98970  1.0000
  C   C2069     1.0  0.39931  0.42771  0.07775  1.0000
  C   C2070     1.0  0.42112  0.39578  0.00347  1.0000
  S   S286      1.0  0.42288  0.44884  0.98836  1.0000
  H   H1639     1.0  0.39320  0.35989  0.05505  1.0000
  H   H1640     1.0  0.40871  0.39115  0.20204  1.0000
  H   H1641     1.0  0.49480  0.41645  0.45922  1.0000
  C   C2071     1.0  0.37582  0.42391  0.20773  1.0000
  C   C2072     1.0  0.39007  0.43799  0.47324  1.0000
  C   C2073     1.0  0.60979  0.48603  0.39244  1.0000
  P   P67       1.0  0.35819  0.30241  0.42814  1.0000
  C   C2074     1.0  0.38473  0.36973  0.15473  1.0000
  C   C2075     1.0  0.33622  0.30621  0.41723  1.0000
  C   C2076     1.0  0.49679  0.34760  0.41757  1.0000
  C   C2077     1.0  0.36304  0.36968  0.22580  1.0000
  H   H1642     1.0  0.46673  0.28620  0.46784  1.0000
  H   H1643     1.0  0.42793  0.45378  0.43063  1.0000
  C   C2078     1.0  0.35789  0.35114  0.22489  1.0000
  H   H1644     1.0  0.36875  0.28434  0.26052  1.0000
  H   H1645     1.0  0.41917  0.38718  0.10729  1.0000
  C   C2079     1.0  0.44964  0.38851  0.06738  1.0000
  H   H1646     1.0  0.53896  0.46205  0.42114  1.0000
  C   C2080     1.0  0.38646  0.41064  0.16939  1.0000
  H   H1647     1.0  0.51961  0.47647  0.07045  1.0000
  C   C2081     1.0  0.38755  0.30106  0.98167  1.0000
  H   H1648     1.0  0.34601  0.28824  0.13799  1.0000
  H   H1649     1.0  0.43538  0.41229  0.46186  1.0000
  H   H1650     1.0  0.37888  0.43109  0.22560  1.0000
  C   C2082     1.0  0.38103  0.35187  0.14852  1.0000
  H   H1651     1.0  0.44174  0.36070  0.05883  1.0000
  C   C2083     1.0  0.56144  0.48388  0.40476  1.0000
  H   H1652     1.0  0.33773  0.33920  0.11499  1.0000
  C   C2084     1.0  0.40475  0.35951  0.11277  1.0000
  H   H1653     1.0  0.41737  0.36407  0.39923  1.0000
  H   H1654     1.0  0.41500  0.45277  0.05962  1.0000
  H   H1655     1.0  0.32647  0.25445  0.02312  1.0000
  H   H1656     1.0  0.41249  0.35538  0.09667  1.0000
  C   C2085     1.0  0.40888  0.42035  0.12114  1.0000
  C   C2086     1.0  0.41037  0.33613  0.40985  1.0000
  Fe  Fe144     1.0  0.33691  0.39813  0.41225  1.0000
  H   H1657     1.0  0.43481  0.46123  0.09793  1.0000
  C   C2087     1.0  0.42449  0.44849  0.09840  1.0000
  C   C2088     1.0  0.39712  0.41604  0.09980  1.0000
  H   H1658     1.0  0.38597  0.40380  0.10041  1.0000
  Fe  Fe145     1.0  0.40830  0.26243  0.06361  1.0000
  H   H1659     1.0  0.39003  0.42444  0.06149  1.0000
  H   H1660     1.0  0.43066  0.44112  0.13750  1.0000
  H   H1661     1.0  0.44674  0.41829  0.13826  1.0000
  C   C2089     1.0  0.55534  0.47259  0.16450  1.0000
  H   H1662     1.0  0.57102  0.47554  0.40172  1.0000
  H   H1663     1.0  0.37710  0.37332  0.17139  1.0000
  P   P68       1.0  0.40514  0.40532  0.14973  1.0000
  H   H1664     1.0  0.40491  0.42504  0.19823  1.0000
  H   H1665     1.0  0.37359  0.26071  0.14252  1.0000
  H   H1666     1.0  0.45948  0.41510  0.08080  1.0000
  C   C2090     1.0  0.37401  0.31022  0.98835  1.0000
  H   H1667     1.0  0.46886  0.39466  0.00344  1.0000
  H   H1668     1.0  0.47388  0.41628  0.16445  1.0000
  C   C2091     1.0  0.44411  0.41230  0.15796  1.0000
  C   C2092     1.0  0.47042  0.34591  0.01870  1.0000
  C   C2093     1.0  0.35331  0.31543  0.29445  1.0000
  H   H1669     1.0  0.33856  0.40493  0.17110  1.0000
  H   H1670     1.0  0.43601  0.38856  0.22717  1.0000
  H   H1671     1.0  0.45848  0.25595  0.18244  1.0000
  C   C2094     1.0  0.53249  0.48453  0.30754  1.0000
  C   C2095     1.0  0.54185  0.48134  0.12501  1.0000
  H   H1672     1.0  0.39933  0.30852  0.42087  1.0000
  H   H1673     1.0  0.52104  0.40864  0.20080  1.0000
  C   C2096     1.0  0.39584  0.32101  0.41700  1.0000
  C   C2097     1.0  0.49395  0.40644  0.47479  1.0000
  H   H1674     1.0  0.45531  0.49318  0.41424  1.0000
  C   C2098     1.0  0.53047  0.48652  0.41954  1.0000
  H   H1675     1.0  0.37805  0.29782  0.37842  1.0000
  H   H1676     1.0  0.62447  0.46570  0.39978  1.0000
  H   H1677     1.0  0.41265  0.35143  0.01980  1.0000
  H   H1678     1.0  0.38348  0.43023  0.99269  1.0000
  C   C2099     1.0  0.35712  0.41825  0.20016  1.0000
  C   C2100     1.0  0.33955  0.28992  0.47660  1.0000
  Fe  Fe146     1.0  0.49289  0.48848  0.98449  1.0000
  H   H1679     1.0  0.35960  0.25860  0.03662  1.0000
  H   H1680     1.0  0.44575  0.33819  0.99613  1.0000
  S   S287      1.0  0.47074  0.43727  0.98321  1.0000
  S   S288      1.0  0.43885  0.25708  0.30935  1.0000
  C   C2101     1.0  0.37156  0.38206  0.47568  1.0000
  H   H1681     1.0  0.33820  0.29513  0.37912  1.0000
  C   C2102     1.0  0.51456  0.48801  0.35570  1.0000
  Fe  Fe147     1.0  0.45511  0.45867  0.98327  1.0000
  H   H1682     1.0  0.40204  0.30608  0.98736  1.0000
  H   H1683     1.0  0.42680  0.48933  0.38831  1.0000
  P   P69       1.0  0.33759  0.31521  0.99033  1.0000
  C   C2103     1.0  0.62224  0.47825  0.40586  1.0000
  S   S289      1.0  0.50974  0.46832  0.98502  1.0000
  C   C2104     1.0  0.32693  0.30594  0.02207  1.0000
  C   C2105     1.0  0.33054  0.29232  0.21794  1.0000
  C   C2106     1.0  0.44072  0.49435  0.37870  1.0000
  C   C2107     1.0  0.33305  0.29251  0.03550  1.0000
  C   C2108     1.0  0.38206  0.25162  0.14763  1.0000
  C   C2109     1.0  0.39565  0.25605  0.16657  1.0000
  C   C2110     1.0  0.63175  0.48661  0.42719  1.0000
  H   H1684     1.0  0.64140  0.48061  0.43760  1.0000
  H   H1685     1.0  0.33129  0.27690  0.07175  1.0000
  C   C2111     1.0  0.32610  0.28687  0.06118  1.0000
  H   H1686     1.0  0.50745  0.48879  0.37439  1.0000
  H   H1687     1.0  0.50362  0.36201  0.45270  1.0000
  H   H1688     1.0  0.32698  0.38760  0.99778  1.0000
  H   H1689     1.0  0.33020  0.31923  0.45248  1.0000
  H   H1690     1.0  0.32679  0.28561  0.46582  1.0000
  C   C2112     1.0  0.43705  0.36279  0.46951  1.0000
  H   H1691     1.0  0.44408  0.25113  0.47706  1.0000
  H   H1692     1.0  0.38695  0.30936  0.46848  1.0000
  H   H1693     1.0  0.44630  0.37093  0.45436  1.0000
  H   H1694     1.0  0.46255  0.25113  0.09865  1.0000
  C   C2113     1.0  0.35536  0.30406  0.98058  1.0000
  C   C2114     1.0  0.45687  0.49642  0.39330  1.0000
  C   C2115     1.0  0.52252  0.49754  0.31010  1.0000
  H   H1695     1.0  0.43000  0.49683  0.34031  1.0000
  P   P70       1.0  0.43739  0.37177  0.97753  1.0000
  Fe  Fe148     1.0  0.44745  0.28209  0.83292  1.0000
  S   S290      1.0  0.42027  0.29020  0.83247  1.0000
  S   S291      1.0  0.46249  0.28080  0.87133  1.0000
  Fe  Fe149     1.0  0.44716  0.27688  0.77244  1.0000
  S   S292      1.0  0.41991  0.28452  0.76960  1.0000
  S   S293      1.0  0.46105  0.26899  0.73566  1.0000
  Fe  Fe150     1.0  0.43321  0.30677  0.79572  1.0000
  S   S294      1.0  0.43325  0.33591  0.78678  1.0000
  Fe  Fe151     1.0  0.41086  0.26684  0.80637  1.0000
  S   S295      1.0  0.46084  0.29961  0.79737  1.0000
  H   H1696     1.0  0.38484  0.30351  0.51630  1.0000
  Fe  Fe152     1.0  0.43611  0.28358  0.58619  1.0000
  S   S296      1.0  0.40605  0.27259  0.60067  1.0000
  S   S297      1.0  0.45990  0.29219  0.61418  1.0000
  Fe  Fe153     1.0  0.42601  0.28302  0.52683  1.0000
  S   S298      1.0  0.39527  0.27157  0.53806  1.0000
  H   H1697     1.0  0.46245  0.42138  0.79923  1.0000
  Fe  Fe154     1.0  0.39935  0.29110  0.56990  1.0000
  S   S299      1.0  0.38228  0.31125  0.57267  1.0000
  C   C2116     1.0  0.47367  0.33738  0.51137  1.0000
  S   S300      1.0  0.42951  0.30342  0.55758  1.0000
  S   S301      1.0  0.43594  0.26413  0.55414  1.0000
  C   C2117     1.0  0.50205  0.39827  0.51819  1.0000
  H   H1698     1.0  0.43255  0.28249  0.70607  1.0000
  H   H1699     1.0  0.33308  0.43826  0.94270  1.0000
  C   C2118     1.0  0.38354  0.41562  0.54838  1.0000
  S   S302      1.0  0.36426  0.41489  0.90255  1.0000
  C   C2119     1.0  0.34798  0.25255  0.72870  1.0000
  Fe  Fe155     1.0  0.50310  0.43042  0.74136  1.0000
  S   S303      1.0  0.47575  0.43823  0.73881  1.0000
  S   S304      1.0  0.50320  0.40106  0.74724  1.0000
  Fe  Fe156     1.0  0.52633  0.47033  0.73720  1.0000
  S   S305      1.0  0.49993  0.47972  0.73509  1.0000
  S   S306      1.0  0.55515  0.49064  0.73443  1.0000
  Fe  Fe157     1.0  0.48841  0.45897  0.76755  1.0000
  S   S307      1.0  0.47201  0.46300  0.80482  1.0000
  Fe  Fe158     1.0  0.49090  0.45793  0.70651  1.0000
  S   S308      1.0  0.47800  0.46390  0.66796  1.0000
  S   S309      1.0  0.51532  0.45053  0.77116  1.0000
  S   S310      1.0  0.51780  0.44914  0.70752  1.0000
  Fe  Fe159     1.0  0.48946  0.45620  0.51419  1.0000
  S   S311      1.0  0.50022  0.44549  0.55126  1.0000
  Fe  Fe160     1.0  0.49066  0.45567  0.95356  1.0000
  S   S312      1.0  0.50464  0.44961  0.91569  1.0000
  C   C2120     1.0  0.42570  0.39505  0.52316  1.0000
  H   H1700     1.0  0.33091  0.32667  0.62206  1.0000
  H   H1701     1.0  0.39894  0.36269  0.56847  1.0000
  C   C2121     1.0  0.41316  0.47808  0.85281  1.0000
  C   C2122     1.0  0.48514  0.45948  0.63552  1.0000
  C   C2123     1.0  0.50059  0.45232  0.63048  1.0000
  C   C2124     1.0  0.50509  0.44820  0.60462  1.0000
  C   C2125     1.0  0.49446  0.45149  0.58339  1.0000
  C   C2126     1.0  0.47939  0.45915  0.58828  1.0000
  C   C2127     1.0  0.47473  0.46304  0.61419  1.0000
  H   H1702     1.0  0.50904  0.44984  0.64646  1.0000
  H   H1703     1.0  0.51691  0.44246  0.60108  1.0000
  H   H1704     1.0  0.47105  0.46176  0.57219  1.0000
  H   H1705     1.0  0.46282  0.46866  0.61776  1.0000
  C   C2128     1.0  0.48192  0.46150  0.83595  1.0000
  C   C2129     1.0  0.50102  0.46181  0.83813  1.0000
  C   C2130     1.0  0.50804  0.45879  0.86280  1.0000
  C   C2131     1.0  0.49621  0.45604  0.88568  1.0000
  C   C2132     1.0  0.47751  0.45716  0.88383  1.0000
  C   C2133     1.0  0.47034  0.45960  0.85904  1.0000
  H   H1706     1.0  0.51035  0.46402  0.82078  1.0000
  H   H1707     1.0  0.52260  0.45824  0.86408  1.0000
  H   H1708     1.0  0.46824  0.45516  0.90132  1.0000
  H   H1709     1.0  0.45562  0.45946  0.85783  1.0000
  C   C2134     1.0  0.38064  0.42269  0.92715  1.0000
  C   C2135     1.0  0.39978  0.43015  0.91955  1.0000
  C   C2136     1.0  0.41307  0.43749  0.93822  1.0000
  C   C2137     1.0  0.40723  0.43785  0.96464  1.0000
  H   H1710     1.0  0.42869  0.28615  0.90167  1.0000
  C   C2138     1.0  0.37496  0.42232  0.95375  1.0000
  H   H1711     1.0  0.40428  0.43061  0.89900  1.0000
  H   H1712     1.0  0.42767  0.44352  0.93200  1.0000
  H   H1713     1.0  0.47825  0.32973  0.95484  1.0000
  C   C2139     1.0  0.38817  0.43002  0.97232  1.0000
  H   H1714     1.0  0.36028  0.41667  0.95989  1.0000
  S   S313      1.0  0.33378  0.36796  0.91561  1.0000
  H   H1715     1.0  0.42315  0.47853  0.95024  1.0000
  C   C2140     1.0  0.41496  0.40993  0.79060  1.0000
  H   H1716     1.0  0.59009  0.45758  0.91391  1.0000
  C   C2141     1.0  0.36125  0.40446  0.82753  1.0000
  H   H1717     1.0  0.43019  0.41325  0.90553  1.0000
  C   C2142     1.0  0.33842  0.30433  0.64074  1.0000
  C   C2143     1.0  0.33985  0.31757  0.62099  1.0000
  C   C2144     1.0  0.35294  0.31917  0.59972  1.0000
  C   C2145     1.0  0.36491  0.30776  0.59833  1.0000
  C   C2146     1.0  0.36329  0.29427  0.61779  1.0000
  C   C2147     1.0  0.35000  0.29253  0.63898  1.0000
  H   H1718     1.0  0.48612  0.28522  0.91460  1.0000
  H   H1719     1.0  0.35396  0.32948  0.58453  1.0000
  H   H1720     1.0  0.37232  0.28527  0.61661  1.0000
  H   H1721     1.0  0.34882  0.28217  0.65409  1.0000
  C   C2148     1.0  0.45298  0.35381  0.77585  1.0000
  C   C2149     1.0  0.47143  0.35177  0.77308  1.0000
  C   C2150     1.0  0.48650  0.36623  0.76387  1.0000
  C   C2151     1.0  0.48349  0.38304  0.75771  1.0000
  C   C2152     1.0  0.46504  0.38507  0.76044  1.0000
  C   C2153     1.0  0.44994  0.37056  0.76938  1.0000
  H   H1722     1.0  0.47412  0.33902  0.77785  1.0000
  H   H1723     1.0  0.50065  0.36442  0.76170  1.0000
  H   H1724     1.0  0.46239  0.39779  0.75550  1.0000
  H   H1725     1.0  0.43578  0.37235  0.77114  1.0000
  C   C2154     1.0  0.45777  0.28526  0.90471  1.0000
  C   C2155     1.0  0.47254  0.28668  0.92195  1.0000
  C   C2156     1.0  0.47026  0.29053  0.94843  1.0000
  C   C2157     1.0  0.45297  0.29257  0.95868  1.0000
  C   C2158     1.0  0.43785  0.29078  0.94170  1.0000
  C   C2159     1.0  0.44026  0.28724  0.91470  1.0000
  C   C2160     1.0  0.45623  0.40801  0.54097  1.0000
  H   H1726     1.0  0.48221  0.29231  0.96096  1.0000
  C   C2161     1.0  0.35338  0.45502  0.91494  1.0000
  H   H1727     1.0  0.42462  0.29287  0.94911  1.0000
  C   C2162     1.0  0.45910  0.27528  0.70210  1.0000
  C   C2163     1.0  0.44384  0.28123  0.69257  1.0000
  C   C2164     1.0  0.44341  0.28588  0.66541  1.0000
  C   C2165     1.0  0.45838  0.28488  0.64785  1.0000
  C   C2166     1.0  0.47352  0.27908  0.65762  1.0000
  C   C2167     1.0  0.47370  0.27403  0.68430  1.0000
  C   C2168     1.0  0.59191  0.48405  0.92670  1.0000
  H   H1728     1.0  0.43185  0.29069  0.65818  1.0000
  H   H1729     1.0  0.48524  0.27842  0.64444  1.0000
  H   H1730     1.0  0.57445  0.44676  0.48544  1.0000
  C   C2169     1.0  0.51362  0.33993  0.80541  1.0000
  C   C2170     1.0  0.50952  0.32174  0.81184  1.0000
  C   C2171     1.0  0.49821  0.31477  0.83431  1.0000
  C   C2172     1.0  0.49060  0.32588  0.85001  1.0000
  C   C2173     1.0  0.49451  0.34417  0.84361  1.0000
  C   C2174     1.0  0.50640  0.35116  0.82139  1.0000
  P   P71       1.0  0.48569  0.35836  0.86551  1.0000
  C   C2175     1.0  0.46021  0.35390  0.86694  1.0000
  C   C2176     1.0  0.49384  0.35380  0.89744  1.0000
  C   C2177     1.0  0.45156  0.36451  0.88238  1.0000
  C   C2178     1.0  0.43191  0.36188  0.88318  1.0000
  C   C2179     1.0  0.42074  0.34853  0.86873  1.0000
  C   C2180     1.0  0.42923  0.33790  0.85340  1.0000
  C   C2181     1.0  0.44892  0.34060  0.85230  1.0000
  C   C2182     1.0  0.49360  0.38151  0.85475  1.0000
  C   C2183     1.0  0.48949  0.38668  0.82941  1.0000
  C   C2184     1.0  0.56076  0.48141  0.59733  1.0000
  H   H1731     1.0  0.43607  0.33331  0.52084  1.0000
  H   H1732     1.0  0.52245  0.34536  0.78802  1.0000
  H   H1733     1.0  0.51504  0.31301  0.79941  1.0000
  H   H1734     1.0  0.49507  0.30065  0.83935  1.0000
  H   H1735     1.0  0.48174  0.32014  0.86725  1.0000
  H   H1736     1.0  0.51034  0.36522  0.81621  1.0000
  H   H1737     1.0  0.52299  0.36807  0.88834  1.0000
  H   H1738     1.0  0.40552  0.34649  0.86920  1.0000
  H   H1739     1.0  0.42057  0.32781  0.84176  1.0000
  H   H1740     1.0  0.45520  0.33254  0.83961  1.0000
  H   H1741     1.0  0.48171  0.37693  0.81646  1.0000
  C   C2185     1.0  0.37281  0.36125  0.62529  1.0000
  C   C2186     1.0  0.43141  0.34184  0.50694  1.0000
  C   C2187     1.0  0.42553  0.47078  0.83798  1.0000
  C   C2188     1.0  0.38237  0.28530  0.96821  1.0000
  P   P72       1.0  0.39108  0.39526  0.54858  1.0000
  C   C2189     1.0  0.35012  0.41622  0.82222  1.0000
  H   H1742     1.0  0.40456  0.41499  0.78048  1.0000
  C   C2190     1.0  0.47978  0.32252  0.50352  1.0000
  C   C2191     1.0  0.58881  0.46405  0.51464  1.0000
  C   C2192     1.0  0.38205  0.27260  0.70242  1.0000
  H   H1743     1.0  0.41858  0.39224  0.94366  1.0000
  H   H1744     1.0  0.39275  0.27792  0.96384  1.0000
  C   C2193     1.0  0.48281  0.37571  0.49147  1.0000
  C   C2194     1.0  0.56091  0.47727  0.83070  1.0000
  C   C2195     1.0  0.35721  0.46142  0.88866  1.0000
  H   H1745     1.0  0.50899  0.40204  0.53640  1.0000
  C   C2196     1.0  0.41214  0.34115  0.50716  1.0000
  H   H1746     1.0  0.49293  0.40827  0.80053  1.0000
  C   C2197     1.0  0.40213  0.30811  0.69274  1.0000
  C   C2198     1.0  0.35569  0.41386  0.77546  1.0000
  C   C2199     1.0  0.44269  0.39811  0.81698  1.0000
  C   C2200     1.0  0.44724  0.41274  0.56323  1.0000
  C   C2201     1.0  0.35280  0.35058  0.97167  1.0000
  H   H1747     1.0  0.34343  0.42142  0.83840  1.0000
  C   C2202     1.0  0.60851  0.49567  0.87675  1.0000
  H   H1748     1.0  0.47165  0.32893  0.57797  1.0000
  C   C2203     1.0  0.47424  0.32739  0.55715  1.0000
  H   H1749     1.0  0.39686  0.35762  0.96818  1.0000
  C   C2204     1.0  0.33852  0.28684  0.50391  1.0000
  C   C2205     1.0  0.49563  0.40443  0.82040  1.0000
  H   H1750     1.0  0.38889  0.34413  0.60921  1.0000
  H   H1751     1.0  0.35380  0.40192  0.55117  1.0000
  C   C2206     1.0  0.39666  0.43235  0.54583  1.0000
  H   H1752     1.0  0.42067  0.41246  0.58283  1.0000
  S   S314      1.0  0.46912  0.44021  0.48635  1.0000
  C   C2207     1.0  0.40539  0.32641  0.92766  1.0000
  H   H1753     1.0  0.38583  0.43796  0.49374  1.0000
  C   C2208     1.0  0.57305  0.45570  0.50081  1.0000
  H   H1754     1.0  0.43874  0.25089  0.93278  1.0000
  C   C2209     1.0  0.40485  0.34979  0.95777  1.0000
  H   H1755     1.0  0.51171  0.34217  0.96525  1.0000
  C   C2210     1.0  0.55891  0.48479  0.85486  1.0000
  H   H1756     1.0  0.48702  0.41026  0.91758  1.0000
  H   H1757     1.0  0.39019  0.40440  0.49283  1.0000
  C   C2211     1.0  0.44630  0.38885  0.95210  1.0000
  C   C2212     1.0  0.49235  0.38058  0.51473  1.0000
  H   H1758     1.0  0.55843  0.47961  0.78871  1.0000
  C   C2213     1.0  0.46561  0.39382  0.94430  1.0000
  H   H1759     1.0  0.39804  0.31605  0.91524  1.0000
  H   H1760     1.0  0.36289  0.37806  0.95774  1.0000
  C   C2214     1.0  0.39094  0.48670  0.90775  1.0000
  H   H1761     1.0  0.41015  0.32170  0.68919  1.0000
  H   H1762     1.0  0.40723  0.46710  0.91018  1.0000
  C   C2215     1.0  0.50270  0.41123  0.49834  1.0000
  S   S315      1.0  0.43179  0.29495  0.48479  1.0000
  H   H1763     1.0  0.46428  0.42178  0.89208  1.0000
  H   H1764     1.0  0.53970  0.47240  0.53114  1.0000
  C   C2216     1.0  0.39642  0.29720  0.67168  1.0000
  H   H1765     1.0  0.35778  0.38068  0.63601  1.0000
  H   H1766     1.0  0.48094  0.26162  0.55593  1.0000
  H   H1767     1.0  0.48552  0.26946  0.69132  1.0000
  H   H1768     1.0  0.36747  0.35250  0.64229  1.0000
  H   H1769     1.0  0.40797  0.25794  0.72555  1.0000
  C   C2217     1.0  0.36718  0.37698  0.62159  1.0000
  H   H1770     1.0  0.42389  0.34106  0.56701  1.0000
  H   H1771     1.0  0.45251  0.39556  0.50372  1.0000
  H   H1772     1.0  0.34870  0.34348  0.50871  1.0000
  C   C2218     1.0  0.39536  0.33647  0.94164  1.0000
  C   C2219     1.0  0.37326  0.30325  0.47797  1.0000
  H   H1773     1.0  0.48751  0.29871  0.51610  1.0000
  H   H1774     1.0  0.34284  0.42938  0.55015  1.0000
  H   H1775     1.0  0.57068  0.45874  0.58546  1.0000
  H   H1776     1.0  0.43279  0.32225  0.91825  1.0000
  H   H1777     1.0  0.45566  0.41993  0.57845  1.0000
  H   H1778     1.0  0.41766  0.38830  0.50743  1.0000
  H   H1779     1.0  0.39957  0.30240  0.65157  1.0000
  H   H1780     1.0  0.39741  0.42905  0.83294  1.0000
  H   H1781     1.0  0.36507  0.35922  0.54546  1.0000
  C   C2220     1.0  0.47206  0.40599  0.92310  1.0000
  C   C2221     1.0  0.42747  0.40859  0.56555  1.0000
  H   H1782     1.0  0.38337  0.27883  0.74352  1.0000
  H   H1783     1.0  0.34185  0.31782  0.93267  1.0000
  H   H1784     1.0  0.35000  0.34592  0.95219  1.0000
  C   C2222     1.0  0.50259  0.39463  0.87171  1.0000
  C   C2223     1.0  0.40407  0.47855  0.91890  1.0000
  C   C2224     1.0  0.50677  0.34546  0.94637  1.0000
  H   H1785     1.0  0.34809  0.49496  0.88597  1.0000
  C   C2225     1.0  0.37302  0.38768  0.59872  1.0000
  C   C2226     1.0  0.36855  0.35385  0.88272  1.0000
  C   C2227     1.0  0.37805  0.36534  0.90124  1.0000
  C   C2228     1.0  0.38943  0.38205  0.89316  1.0000
  C   C2229     1.0  0.39165  0.38722  0.86648  1.0000
  C   C2230     1.0  0.38241  0.37567  0.84765  1.0000
  C   C2231     1.0  0.37053  0.35907  0.85599  1.0000
  P   P73       1.0  0.38499  0.38280  0.81334  1.0000
  C   C2232     1.0  0.36990  0.39745  0.80679  1.0000
  C   C2233     1.0  0.40966  0.39433  0.80680  1.0000
  C   C2234     1.0  0.39046  0.36703  0.58348  1.0000
  C   C2235     1.0  0.42378  0.38836  0.81957  1.0000
  C   C2236     1.0  0.36680  0.40205  0.78070  1.0000
  C   C2237     1.0  0.37857  0.36338  0.79370  1.0000
  C   C2238     1.0  0.36013  0.35765  0.78476  1.0000
  C   C2239     1.0  0.35492  0.34229  0.77037  1.0000
  C   C2240     1.0  0.36796  0.33239  0.76502  1.0000
  C   C2241     1.0  0.38622  0.33784  0.77417  1.0000
  C   C2242     1.0  0.39152  0.35322  0.78855  1.0000
  H   H1786     1.0  0.35904  0.34120  0.88908  1.0000
  H   H1787     1.0  0.37597  0.36168  0.92196  1.0000
  H   H1788     1.0  0.39589  0.39131  0.90763  1.0000
  H   H1789     1.0  0.42535  0.37015  0.89506  1.0000
  H   H1790     1.0  0.36250  0.35027  0.84204  1.0000
  C   C2243     1.0  0.33591  0.44332  0.92247  1.0000
  H   H1791     1.0  0.42018  0.37625  0.83181  1.0000
  H   H1792     1.0  0.37291  0.39647  0.76439  1.0000
  H   H1793     1.0  0.34966  0.36490  0.78908  1.0000
  H   H1794     1.0  0.34074  0.33803  0.76333  1.0000
  H   H1795     1.0  0.36391  0.32051  0.75381  1.0000
  H   H1796     1.0  0.39627  0.33008  0.77017  1.0000
  H   H1797     1.0  0.40567  0.35699  0.79570  1.0000
  C   C2244     1.0  0.55255  0.48870  0.61816  1.0000
  H   H1798     1.0  0.35406  0.28954  0.53941  1.0000
  H   H1799     1.0  0.58571  0.47960  0.94620  1.0000
  C   C2245     1.0  0.37100  0.44685  0.54696  1.0000
  C   C2246     1.0  0.42450  0.35299  0.96017  1.0000
  C   C2247     1.0  0.34742  0.42102  0.79622  1.0000
  H   H1800     1.0  0.43803  0.43165  0.77547  1.0000
  H   H1801     1.0  0.35312  0.41713  0.75527  1.0000
  H   H1802     1.0  0.40058  0.46070  0.54260  1.0000
  H   H1803     1.0  0.44968  0.34574  0.94665  1.0000
  H   H1804     1.0  0.60533  0.46792  0.86984  1.0000
  C   C2248     1.0  0.41984  0.45313  0.83077  1.0000
  H   H1805     1.0  0.43737  0.25011  0.65486  1.0000
  C   C2249     1.0  0.36763  0.36564  0.52603  1.0000
  H   H1806     1.0  0.36619  0.45891  0.54611  1.0000
  Fe  Fe161     1.0  0.40519  0.25415  0.56731  1.0000
  C   C2250     1.0  0.35809  0.35665  0.50521  1.0000
  C   C2251     1.0  0.44002  0.40779  0.91643  1.0000
  C   C2252     1.0  0.55543  0.45878  0.50698  1.0000
  C   C2253     1.0  0.47057  0.33949  0.53840  1.0000
  P   P74       1.0  0.37893  0.47776  0.87881  1.0000
  C   C2254     1.0  0.51298  0.36017  0.90303  1.0000
  H   H1807     1.0  0.35952  0.26641  0.95120  1.0000
  H   H1808     1.0  0.38231  0.27129  0.65983  1.0000
  C   C2255     1.0  0.54824  0.47948  0.64256  1.0000
  H   H1809     1.0  0.54874  0.45578  0.66525  1.0000
  C   C2256     1.0  0.48047  0.31277  0.54912  1.0000
  H   H1810     1.0  0.33564  0.28272  0.96220  1.0000
  C   C2257     1.0  0.39472  0.46793  0.85982  1.0000
  C   C2258     1.0  0.38444  0.38259  0.57927  1.0000
  C   C2259     1.0  0.39749  0.30146  0.71857  1.0000
  P   P75       1.0  0.46901  0.35312  0.48696  1.0000
  S   S316      1.0  0.47644  0.47932  0.51336  1.0000
  H   H1811     1.0  0.56205  0.47854  0.87289  1.0000
  C   C2260     1.0  0.44778  0.41374  0.80118  1.0000
  H   H1812     1.0  0.56280  0.44252  0.62853  1.0000
  C   C2261     1.0  0.55204  0.46290  0.64630  1.0000
  C   C2262     1.0  0.34349  0.45566  0.87000  1.0000
  C   C2263     1.0  0.38146  0.39098  0.49636  1.0000
  C   C2264     1.0  0.48311  0.31028  0.52233  1.0000
  C   C2265     1.0  0.50538  0.41724  0.83690  1.0000
  H   H1813     1.0  0.56563  0.46518  0.82988  1.0000
  H   H1814     1.0  0.46499  0.35031  0.54502  1.0000
  S   S317      1.0  0.43766  0.25822  0.80806  1.0000
  H   H1815     1.0  0.51549  0.42257  0.87579  1.0000
  C   C2266     1.0  0.35017  0.28812  0.96732  1.0000
  H   H1816     1.0  0.39026  0.34968  0.48766  1.0000
  C   C2267     1.0  0.37217  0.29996  0.50521  1.0000
  H   H1817     1.0  0.43971  0.47870  0.83233  1.0000
  H   H1818     1.0  0.34623  0.46033  0.84961  1.0000
  Fe  Fe162     1.0  0.33444  0.39680  0.90989  1.0000
  C   C2268     1.0  0.36366  0.27881  0.96110  1.0000
  H   H1819     1.0  0.60246  0.46157  0.51002  1.0000
  H   H1820     1.0  0.52605  0.48171  0.57257  1.0000
  H   H1821     1.0  0.50034  0.49482  0.55954  1.0000
  C   C2269     1.0  0.38722  0.28381  0.72340  1.0000
  H   H1822     1.0  0.50999  0.42498  0.50124  1.0000
  H   H1823     1.0  0.36813  0.39958  0.59626  1.0000
  C   C2270     1.0  0.52957  0.49506  0.56373  1.0000
  C   C2271     1.0  0.59443  0.47166  0.90855  1.0000
  C   C2272     1.0  0.60291  0.47749  0.88368  1.0000
  C   C2273     1.0  0.36011  0.36884  0.97472  1.0000
  C   C2274     1.0  0.38475  0.35646  0.60649  1.0000
  H   H1824     1.0  0.48283  0.30319  0.56373  1.0000
  H   H1825     1.0  0.48167  0.32007  0.48292  1.0000
  C   C2275     1.0  0.44414  0.35282  0.48834  1.0000
  C   C2276     1.0  0.39037  0.44788  0.54528  1.0000
  C   C2277     1.0  0.37963  0.38283  0.52168  1.0000
  H   H1826     1.0  0.59932  0.48172  0.54523  1.0000
  H   H1827     1.0  0.46705  0.33626  0.91139  1.0000
  C   C2278     1.0  0.40169  0.44280  0.83819  1.0000
  H   H1828     1.0  0.40191  0.30996  0.73484  1.0000
  C   C2279     1.0  0.43448  0.34303  0.94569  1.0000
  H   H1829     1.0  0.33858  0.42994  0.79211  1.0000
  C   C2280     1.0  0.38658  0.27944  0.67647  1.0000
  C   C2281     1.0  0.36412  0.41471  0.54964  1.0000
  C   C2282     1.0  0.35787  0.43026  0.54910  1.0000
  H   H1830     1.0  0.47155  0.41161  0.53905  1.0000
  H   H1831     1.0  0.41170  0.43360  0.54338  1.0000
  H   H1832     1.0  0.51039  0.43089  0.82958  1.0000
  H   H1833     1.0  0.33984  0.26960  0.69915  1.0000
  C   C2283     1.0  0.42452  0.33212  0.60731  1.0000
  C   C2284     1.0  0.42757  0.34499  0.58676  1.0000
  C   C2285     1.0  0.43499  0.36289  0.59187  1.0000
  C   C2286     1.0  0.43889  0.36795  0.61765  1.0000
  C   C2287     1.0  0.43581  0.35501  0.63841  1.0000
  C   C2288     1.0  0.42892  0.33706  0.63286  1.0000
  P   P76       1.0  0.44003  0.36092  0.67214  1.0000
  C   C2289     1.0  0.45075  0.34480  0.68732  1.0000
  C   C2290     1.0  0.45569  0.38284  0.67321  1.0000
  C   C2291     1.0  0.47431  0.38536  0.68135  1.0000
  C   C2292     1.0  0.48598  0.40253  0.68271  1.0000
  C   C2293     1.0  0.47911  0.41720  0.67616  1.0000
  C   C2294     1.0  0.46058  0.41484  0.66835  1.0000
  C   C2295     1.0  0.44884  0.39772  0.66704  1.0000
  C   C2296     1.0  0.44541  0.33801  0.71313  1.0000
  C   C2297     1.0  0.45380  0.32544  0.72441  1.0000
  C   C2298     1.0  0.46781  0.31987  0.71032  1.0000
  C   C2299     1.0  0.47307  0.32642  0.68454  1.0000
  C   C2300     1.0  0.46460  0.33883  0.67305  1.0000
  C   C2301     1.0  0.41835  0.36170  0.68971  1.0000
  C   C2302     1.0  0.40055  0.35313  0.68059  1.0000
  C   C2303     1.0  0.38399  0.35429  0.69427  1.0000
  C   C2304     1.0  0.38506  0.36449  0.71651  1.0000
  C   C2305     1.0  0.40269  0.37301  0.72575  1.0000
  C   C2306     1.0  0.41926  0.37150  0.71256  1.0000
  H   H1834     1.0  0.41853  0.31825  0.60360  1.0000
  H   H1835     1.0  0.43735  0.37289  0.57593  1.0000
  H   H1836     1.0  0.44438  0.38190  0.62106  1.0000
  H   H1837     1.0  0.42705  0.32681  0.64826  1.0000
  H   H1838     1.0  0.47985  0.37425  0.68715  1.0000
  H   H1839     1.0  0.50027  0.40449  0.68934  1.0000
  H   H1840     1.0  0.48803  0.43045  0.67745  1.0000
  H   H1841     1.0  0.45534  0.42636  0.66355  1.0000
  H   H1842     1.0  0.43439  0.39610  0.66130  1.0000
  H   H1843     1.0  0.43484  0.34233  0.72469  1.0000
  H   H1844     1.0  0.44958  0.32007  0.74422  1.0000
  H   H1845     1.0  0.47436  0.31022  0.71927  1.0000
  H   H1846     1.0  0.48354  0.32164  0.67337  1.0000
  H   H1847     1.0  0.46887  0.34377  0.65304  1.0000
  H   H1848     1.0  0.39937  0.34551  0.66304  1.0000
  H   H1849     1.0  0.37024  0.34735  0.68763  1.0000
  H   H1850     1.0  0.37218  0.36569  0.72664  1.0000
  H   H1851     1.0  0.40356  0.38074  0.74318  1.0000
  H   H1852     1.0  0.43284  0.37815  0.72003  1.0000
  H   H1853     1.0  0.41303  0.25615  0.48918  1.0000
  C   C2307     1.0  0.45924  0.41272  0.90890  1.0000
  C   C2308     1.0  0.55680  0.48536  0.80750  1.0000
  C   C2309     1.0  0.58698  0.47557  0.53452  1.0000
  C   C2310     1.0  0.56940  0.47912  0.54039  1.0000
  C   C2311     1.0  0.55356  0.47038  0.52671  1.0000
  C   C2312     1.0  0.43396  0.41951  0.78774  1.0000
  S   S318      1.0  0.47421  0.47630  0.95192  1.0000
  C   C2313     1.0  0.41314  0.48501  0.94164  1.0000
  C   C2314     1.0  0.56442  0.46468  0.60119  1.0000
  C   C2315     1.0  0.56002  0.45546  0.62561  1.0000
  H   H1854     1.0  0.42968  0.44748  0.81974  1.0000
  H   H1855     1.0  0.40015  0.40042  0.86063  1.0000
  H   H1856     1.0  0.40248  0.33277  0.52180  1.0000
  H   H1857     1.0  0.46007  0.37493  0.89361  1.0000
  H   H1858     1.0  0.38017  0.33375  0.94024  1.0000
  C   C2316     1.0  0.43354  0.39596  0.93803  1.0000
  C   C2317     1.0  0.50852  0.41244  0.86272  1.0000
  C   C2318     1.0  0.44548  0.39905  0.52105  1.0000
  H   H1859     1.0  0.50489  0.39130  0.89188  1.0000
  C   C2319     1.0  0.42496  0.32975  0.92961  1.0000
  H   H1860     1.0  0.36292  0.40089  0.84787  1.0000
  C   C2320     1.0  0.51937  0.35618  0.92755  1.0000
  H   H1861     1.0  0.53414  0.36116  0.93180  1.0000
  C   C2321     1.0  0.35482  0.29193  0.51822  1.0000
  C   C2322     1.0  0.48148  0.34247  0.91604  1.0000
  C   C2323     1.0  0.41656  0.39997  0.54533  1.0000
  H   H1862     1.0  0.45340  0.39348  0.82713  1.0000
  C   C2324     1.0  0.38912  0.45016  0.85261  1.0000
  H   H1863     1.0  0.47575  0.38824  0.95422  1.0000
  H   H1864     1.0  0.37525  0.44182  0.85848  1.0000
  C   C2325     1.0  0.48787  0.33851  0.94054  1.0000
  H   H1865     1.0  0.49259  0.37096  0.53030  1.0000
  C   C2326     1.0  0.40526  0.35086  0.48813  1.0000
  C   C2327     1.0  0.37208  0.49497  0.85970  1.0000
  S   S319      1.0  0.32797  0.35367  0.66532  1.0000
  H   H1866     1.0  0.36383  0.45883  0.92964  1.0000
  C   C2328     1.0  0.33682  0.26332  0.71871  1.0000
  P   P77       1.0  0.56715  0.49389  0.56636  1.0000
  S   S320      1.0  0.51105  0.46743  0.48137  1.0000
  H   H1867     1.0  0.54189  0.48515  0.65862  1.0000
  H   H1868     1.0  0.41798  0.49166  0.85880  1.0000
  C   C2329     1.0  0.32698  0.31569  0.93808  1.0000
  C   C2330     1.0  0.32955  0.24887  0.77016  1.0000
  H   H1869     1.0  0.42809  0.25190  0.86657  1.0000
  H   H1870     1.0  0.50849  0.24976  0.56583  1.0000
  S   S321      1.0  0.42484  0.45789  0.48773  1.0000
  Fe  Fe163     1.0  0.45710  0.46398  0.48349  1.0000
  H   H1871     1.0  0.54314  0.45213  0.49653  1.0000
  C   C2331     1.0  0.32606  0.44393  0.87761  1.0000
  P   P78       1.0  0.36825  0.25012  0.70926  1.0000
  C   C2332     1.0  0.36003  0.36485  0.48008  1.0000
  C   C2333     1.0  0.48402  0.25115  0.54434  1.0000
  H   H1872     1.0  0.46038  0.24955  0.52023  1.0000
  Fe  Fe164     1.0  0.49733  0.49000  0.47923  1.0000
  H   H1873     1.0  0.45348  0.25382  0.97603  1.0000
  Fe  Fe165     1.0  0.59928  0.59059  0.23172  1.0000
  S   S322      1.0  0.62645  0.58225  0.23114  1.0000
  S   S323      1.0  0.56992  0.57117  0.23696  1.0000
  Fe  Fe166     1.0  0.62077  0.63052  0.22347  1.0000
  S   S324      1.0  0.64902  0.62442  0.22269  1.0000
  S   S325      1.0  0.61826  0.65897  0.21830  1.0000
  Fe  Fe167     1.0  0.63527  0.60226  0.19698  1.0000
  H   H1874     1.0  0.63239  0.73776  0.38346  1.0000
  Fe  Fe168     1.0  0.63712  0.60536  0.25706  1.0000
  H   H1875     1.0  0.64354  0.66346  0.40290  1.0000
  S   S326      1.0  0.60751  0.60925  0.19608  1.0000
  S   S327      1.0  0.60954  0.61274  0.25949  1.0000
  H   H1876     1.0  0.61284  0.58663  0.39707  1.0000
  C   C2334     1.0  0.57092  0.56926  0.05727  1.0000
  H   H1877     1.0  0.54127  0.62323  0.36680  1.0000
  Fe  Fe169     1.0  0.62816  0.60651  0.01062  1.0000
  S   S328      1.0  0.62215  0.61933  0.04847  1.0000
  Fe  Fe170     1.0  0.63671  0.60627  0.44644  1.0000
  S   S329      1.0  0.63102  0.62129  0.40941  1.0000
  S   S330      1.0  0.63945  0.58229  0.01201  1.0000
  S   S331      1.0  0.64757  0.58182  0.44527  1.0000
  H   H1878     1.0  0.47806  0.58281  0.31928  1.0000
  C   C2335     1.0  0.59693  0.53591  0.38697  1.0000
  H   H1879     1.0  0.55324  0.56882  0.09200  1.0000
  H   H1880     1.0  0.59251  0.55048  0.29203  1.0000
  C   C2336     1.0  0.54387  0.49916  0.06579  1.0000
  C   C2337     1.0  0.64959  0.69276  0.28249  1.0000
  H   H1881     1.0  0.61235  0.57930  0.30599  1.0000
  H   H1882     1.0  0.55761  0.54487  0.29379  1.0000
  C   C2338     1.0  0.52453  0.60198  0.30284  1.0000
  H   H1883     1.0  0.54181  0.54020  0.04269  1.0000
  C   C2339     1.0  0.56618  0.55716  0.30089  1.0000
  C   C2340     1.0  0.54602  0.51268  0.98219  1.0000
  C   C2341     1.0  0.50488  0.59684  0.30065  1.0000
  C   C2342     1.0  0.49329  0.58677  0.32101  1.0000
  H   H1884     1.0  0.59503  0.56643  0.43280  1.0000
  S   S332      1.0  0.65380  0.60265  0.29339  1.0000
  C   C2343     1.0  0.63702  0.67641  0.20408  1.0000
  C   C2344     1.0  0.63432  0.69358  0.20130  1.0000
  C   C2345     1.0  0.59651  0.50936  0.08165  1.0000
  Fe  Fe171     1.0  0.62486  0.57017  0.47688  1.0000
  H   H1885     1.0  0.63299  0.66850  0.97865  1.0000
  C   C2346     1.0  0.62876  0.50271  0.43517  1.0000
  H   H1886     1.0  0.62076  0.69574  0.20696  1.0000
  C   C2347     1.0  0.64616  0.69888  0.11414  1.0000
  H   H1887     1.0  0.65685  0.66057  0.19770  1.0000
  C   C2348     1.0  0.63537  0.66259  0.29971  1.0000
  C   C2349     1.0  0.64744  0.60809  0.32550  1.0000
  S   S333      1.0  0.64890  0.62141  0.97875  1.0000
  C   C2350     1.0  0.54381  0.54295  0.98520  1.0000
  C   C2351     1.0  0.63789  0.61632  0.37729  1.0000
  C   C2352     1.0  0.62921  0.62184  0.35547  1.0000
  C   C2353     1.0  0.63389  0.61766  0.32976  1.0000
  C   C2354     1.0  0.55004  0.51725  0.05790  1.0000
  S   S334      1.0  0.51545  0.51864  0.47362  1.0000
  C   C2355     1.0  0.52097  0.58697  0.34585  1.0000
  H   H1888     1.0  0.62700  0.62184  0.31321  1.0000
  C   C2356     1.0  0.64079  0.60221  0.12867  1.0000
  C   C2357     1.0  0.51295  0.49908  0.33407  1.0000
  C   C2358     1.0  0.63994  0.59980  0.08093  1.0000
  C   C2359     1.0  0.62933  0.61239  0.07915  1.0000
  C   C2360     1.0  0.62455  0.61992  0.10231  1.0000
  C   C2361     1.0  0.63021  0.61484  0.12695  1.0000
  H   H1889     1.0  0.52695  0.58316  0.36355  1.0000
  C   C2362     1.0  0.51800  0.51777  0.12654  1.0000
  H   H1890     1.0  0.61655  0.62983  0.10115  1.0000
  H   H1891     1.0  0.62673  0.62102  0.14449  1.0000
  C   C2363     1.0  0.55749  0.50996  0.23416  1.0000
  C   C2364     1.0  0.57599  0.52066  0.22901  1.0000
  C   C2365     1.0  0.58004  0.53937  0.22968  1.0000
  C   C2366     1.0  0.56558  0.54766  0.23538  1.0000
  C   C2367     1.0  0.54705  0.53697  0.24035  1.0000
  C   C2368     1.0  0.54301  0.51827  0.23985  1.0000
  H   H1892     1.0  0.58730  0.51445  0.22444  1.0000
  H   H1893     1.0  0.59435  0.54737  0.22569  1.0000
  H   H1894     1.0  0.53577  0.54323  0.24477  1.0000
  H   H1895     1.0  0.52871  0.51031  0.24387  1.0000
  C   C2369     1.0  0.58453  0.65495  0.30359  1.0000
  C   C2370     1.0  0.65455  0.67372  0.19598  1.0000
  C   C2371     1.0  0.65600  0.67162  0.41149  1.0000
  H   H1896     1.0  0.54682  0.62991  0.41341  1.0000
  H   H1897     1.0  0.52349  0.50804  0.19094  1.0000
  H   H1898     1.0  0.48716  0.50389  0.39278  1.0000
  C   C2372     1.0  0.54055  0.52477  0.47577  1.0000
  H   H1899     1.0  0.50817  0.51378  0.11107  1.0000
  C   C2373     1.0  0.58976  0.49995  0.03734  1.0000
  S   S335      1.0  0.50949  0.51773  0.98406  1.0000
  C   C2374     1.0  0.64184  0.67217  0.04376  1.0000
  C   C2375     1.0  0.63295  0.66565  0.02091  1.0000
  C   C2376     1.0  0.60804  0.50561  0.30770  1.0000
  H   H1900     1.0  0.50090  0.49915  0.15558  1.0000
  H   H1901     1.0  0.61896  0.72791  0.12402  1.0000
  C   C2377     1.0  0.65630  0.60279  0.34728  1.0000
  C   C2378     1.0  0.63352  0.70710  0.12670  1.0000
  C   C2379     1.0  0.62843  0.72130  0.11407  1.0000
  C   C2380     1.0  0.63561  0.72704  0.08860  1.0000
  C   C2381     1.0  0.64804  0.71873  0.07583  1.0000
  H   H1902     1.0  0.64654  0.72105  0.18919  1.0000
  C   C2382     1.0  0.64894  0.70795  0.19099  1.0000
  H   H1903     1.0  0.65822  0.60239  0.38967  1.0000
  C   C2383     1.0  0.65081  0.71552  0.33716  1.0000
  H   H1904     1.0  0.64434  0.64183  0.27985  1.0000
  C   C2384     1.0  0.59803  0.56119  0.41415  1.0000
  H   H1905     1.0  0.59220  0.50991  0.10207  1.0000
  C   C2385     1.0  0.60814  0.57260  0.39400  1.0000
  H   H1906     1.0  0.55775  0.52637  0.39666  1.0000
  C   C2386     1.0  0.65498  0.68695  0.42439  1.0000
  H   H1907     1.0  0.61431  0.52294  0.42866  1.0000
  H   H1908     1.0  0.63590  0.66607  0.06266  1.0000
  H   H1909     1.0  0.62065  0.65434  0.02232  1.0000
  C   C2387     1.0  0.65560  0.68831  0.99463  1.0000
  H   H1910     1.0  0.54228  0.55283  0.47293  1.0000
  H   H1911     1.0  0.62577  0.65350  0.31359  1.0000
  C   C2388     1.0  0.64609  0.72069  0.36201  1.0000
  H   H1912     1.0  0.62773  0.70250  0.14629  1.0000
  C   C2389     1.0  0.63573  0.73342  0.36425  1.0000
  S   S336      1.0  0.61290  0.59393  0.47610  1.0000
  C   C2390     1.0  0.61639  0.51055  0.42177  1.0000
  H   H1913     1.0  0.58501  0.53417  0.42666  1.0000
  H   H1914     1.0  0.59319  0.50623  0.27196  1.0000
  H   H1915     1.0  0.62076  0.50397  0.29763  1.0000
  H   H1916     1.0  0.63371  0.52808  0.03892  1.0000
  C   C2391     1.0  0.63721  0.68089  0.30055  1.0000
  H   H1917     1.0  0.50776  0.52483  0.04245  1.0000
  H   H1918     1.0  0.61055  0.55421  0.05406  1.0000
  H   H1919     1.0  0.59288  0.66505  0.26373  1.0000
  H   H1920     1.0  0.60141  0.54698  0.10108  1.0000
  C   C2392     1.0  0.51156  0.49981  0.05731  1.0000
  H   H1921     1.0  0.59027  0.66763  0.31222  1.0000
  H   H1922     1.0  0.49236  0.57409  0.35948  1.0000
  C   C2393     1.0  0.59073  0.50865  0.34826  1.0000
  H   H1923     1.0  0.64181  0.69090  0.42547  1.0000
  C   C2394     1.0  0.55483  0.62197  0.40327  1.0000
  C   C2395     1.0  0.56221  0.60801  0.36352  1.0000
  H   H1924     1.0  0.54973  0.56245  0.18094  1.0000
  H   H1925     1.0  0.54793  0.56538  0.40280  1.0000
  H   H1926     1.0  0.60516  0.57178  0.15872  1.0000
  C   C2396     1.0  0.54640  0.54989  0.36821  1.0000
  H   H1927     1.0  0.59717  0.60214  0.32219  1.0000
  C   C2397     1.0  0.62002  0.51987  0.04606  1.0000
  H   H1928     1.0  0.62760  0.52899  0.18612  1.0000
  H   H1929     1.0  0.53766  0.53705  0.10175  1.0000
  H   H1930     1.0  0.57550  0.51729  0.14612  1.0000
  C   C2398     1.0  0.58726  0.52704  0.15366  1.0000
  H   H1931     1.0  0.58412  0.59387  0.36767  1.0000
  C   C2399     1.0  0.57888  0.60567  0.40349  1.0000
  C   C2400     1.0  0.55726  0.57448  0.17008  1.0000
  H   H1932     1.0  0.56542  0.60945  0.27222  1.0000
  H   H1933     1.0  0.58017  0.63616  0.24402  1.0000
  H   H1934     1.0  0.64401  0.59409  0.06336  1.0000
  C   C2401     1.0  0.56375  0.54894  0.98530  1.0000
  P   P79       1.0  0.56999  0.55277  0.13475  1.0000
  C   C2402     1.0  0.63038  0.74121  0.34165  1.0000
  C   C2403     1.0  0.56547  0.56505  0.08382  1.0000
  C   C2404     1.0  0.59704  0.57656  0.30760  1.0000
  H   H1935     1.0  0.56285  0.57600  0.04500  1.0000
  H   H1936     1.0  0.52596  0.51272  0.41610  1.0000
  C   C2405     1.0  0.59259  0.50701  0.29319  1.0000
  C   C2406     1.0  0.59245  0.54292  0.41066  1.0000
  C   C2407     1.0  0.63510  0.73610  0.31678  1.0000
  C   C2408     1.0  0.64495  0.72288  0.31436  1.0000
  C   C2409     1.0  0.53483  0.53101  0.12132  1.0000
  C   C2410     1.0  0.60726  0.50670  0.33508  1.0000
  C   C2411     1.0  0.63355  0.72007  0.26007  1.0000
  H   H1937     1.0  0.61972  0.50645  0.34580  1.0000
  C   C2412     1.0  0.53874  0.55647  0.39004  1.0000
  H   H1938     1.0  0.53534  0.55246  0.98636  1.0000
  H   H1939     1.0  0.51322  0.55664  0.41239  1.0000
  H   H1940     1.0  0.60026  0.50708  0.16881  1.0000
  H   H1941     1.0  0.65095  0.71523  0.37951  1.0000
  C   C2413     1.0  0.61584  0.70765  0.25991  1.0000
  C   C2414     1.0  0.60178  0.71069  0.24380  1.0000
  C   C2415     1.0  0.60531  0.72613  0.22765  1.0000
  H   H1942     1.0  0.50967  0.55310  0.31641  1.0000
  C   C2416     1.0  0.60759  0.51028  0.02838  1.0000
  C   C2417     1.0  0.57495  0.53681  0.98359  1.0000
  P   P80       1.0  0.59039  0.51214  0.38317  1.0000
  C   C2418     1.0  0.61452  0.51933  0.07272  1.0000
  P   P81       1.0  0.55813  0.60367  0.32914  1.0000
  H   H1943     1.0  0.63129  0.74274  0.29956  1.0000
  H   H1944     1.0  0.61159  0.51126  0.00754  1.0000
  H   H1945     1.0  0.62075  0.57480  0.35483  1.0000
  C   C2419     1.0  0.64562  0.59474  0.10553  1.0000
  H   H1946     1.0  0.49218  0.53684  0.38324  1.0000
  C   C2420     1.0  0.52657  0.51457  0.17155  1.0000
  H   H1947     1.0  0.48600  0.50071  0.28846  1.0000
  C   C2421     1.0  0.58700  0.56507  0.04656  1.0000
  C   C2422     1.0  0.46050  0.50495  0.33932  1.0000
  H   H1948     1.0  0.59131  0.56839  0.02605  1.0000
  C   C2423     1.0  0.63680  0.73576  0.24424  1.0000
  H   H1949     1.0  0.48432  0.51385  0.24416  1.0000
  H   H1950     1.0  0.61284  0.69559  0.27217  1.0000
  H   H1951     1.0  0.58826  0.70096  0.24355  1.0000
  H   H1952     1.0  0.59451  0.72848  0.21497  1.0000
  H   H1953     1.0  0.57115  0.61901  0.43687  1.0000
  H   H1954     1.0  0.49566  0.54649  0.23557  1.0000
  P   P82       1.0  0.65111  0.71634  0.28221  1.0000
  H   H1955     1.0  0.62992  0.56123  0.18076  1.0000
  C   C2424     1.0  0.65143  0.60672  0.37306  1.0000
  C   C2425     1.0  0.54338  0.52781  0.16641  1.0000
  C   C2426     1.0  0.60690  0.50236  0.40011  1.0000
  C   C2427     1.0  0.57757  0.60619  0.14413  1.0000
  C   C2428     1.0  0.56608  0.60669  0.16647  1.0000
  C   C2429     1.0  0.56837  0.57384  0.14724  1.0000
  C   C2430     1.0  0.57894  0.58987  0.13475  1.0000
  H   H1956     1.0  0.58581  0.61847  0.13442  1.0000
  H   H1957     1.0  0.56543  0.61937  0.17409  1.0000
  H   H1958     1.0  0.58841  0.58989  0.11786  1.0000
  C   C2431     1.0  0.47490  0.50252  0.38094  1.0000
  C   C2432     1.0  0.57576  0.60169  0.37714  1.0000
  C   C2433     1.0  0.60136  0.52118  0.16633  1.0000
  C   C2434     1.0  0.57600  0.63993  0.31975  1.0000
  H   H1959     1.0  0.63168  0.73808  0.07882  1.0000
  C   C2435     1.0  0.60383  0.55761  0.16079  1.0000
  C   C2436     1.0  0.61670  0.53350  0.17617  1.0000
  C   C2437     1.0  0.55172  0.61812  0.37689  1.0000
  C   C2438     1.0  0.57031  0.62216  0.28123  1.0000
  C   C2439     1.0  0.61259  0.56585  0.37023  1.0000
  H   H1960     1.0  0.61866  0.62920  0.35853  1.0000
  H   H1961     1.0  0.56487  0.52423  0.05744  1.0000
  C   C2440     1.0  0.55611  0.59085  0.17958  1.0000
  C   C2441     1.0  0.58588  0.56033  0.29981  1.0000
  H   H1962     1.0  0.54242  0.56769  0.30951  1.0000
  C   C2442     1.0  0.51776  0.51778  0.04953  1.0000
  C   C2443     1.0  0.56872  0.62340  0.30866  1.0000
  C   C2444     1.0  0.58827  0.54531  0.15111  1.0000
  H   H1963     1.0  0.61104  0.54266  0.34826  1.0000
  C   C2445     1.0  0.56871  0.58641  0.31804  1.0000
  C   C2446     1.0  0.57867  0.63723  0.26516  1.0000
  C   C2447     1.0  0.57607  0.55654  0.09986  1.0000
  C   C2448     1.0  0.54771  0.53616  0.14121  1.0000
  C   C2449     1.0  0.55761  0.57021  0.30969  1.0000
  C   C2450     1.0  0.53699  0.52645  0.04968  1.0000
  H   H1964     1.0  0.57541  0.64133  0.34081  1.0000
  C   C2451     1.0  0.50729  0.54000  0.37904  1.0000
  C   C2452     1.0  0.51499  0.53248  0.35797  1.0000
  H   H1965     1.0  0.54085  0.53209  0.33641  1.0000
  C   C2453     1.0  0.61797  0.55167  0.17326  1.0000
  H   H1966     1.0  0.49862  0.60072  0.28314  1.0000
  C   C2454     1.0  0.50134  0.58185  0.34363  1.0000
  S   S337      1.0  0.60584  0.59574  0.98157  1.0000
  C   C2455     1.0  0.58590  0.65357  0.27632  1.0000
  C   C2456     1.0  0.59245  0.55273  0.08901  1.0000
  H   H1967     1.0  0.56158  0.55379  0.36395  1.0000
  H   H1968     1.0  0.62404  0.52711  0.08630  1.0000
  H   H1969     1.0  0.54786  0.59120  0.19757  1.0000
  C   C2457     1.0  0.58846  0.58952  0.31664  1.0000
  C   C2458     1.0  0.60705  0.54756  0.36667  1.0000
  H   H1970     1.0  0.50845  0.56599  0.27174  1.0000
  C   C2459     1.0  0.56847  0.61581  0.41653  1.0000
  C   C2460     1.0  0.51918  0.55156  0.39541  1.0000
  H   H1971     1.0  0.64995  0.68799  0.12446  1.0000
  C   C2461     1.0  0.53276  0.59712  0.32554  1.0000
  H   H1972     1.0  0.55311  0.53142  0.18209  1.0000
  H   H1973     1.0  0.53308  0.60979  0.28679  1.0000
  C   C2462     1.0  0.53463  0.53765  0.35260  1.0000
  H   H1974     1.0  0.58966  0.60120  0.41383  1.0000
  C   C2463     1.0  0.50335  0.55178  0.27560  1.0000
  C   C2464     1.0  0.49616  0.54080  0.25518  1.0000
  C   C2465     1.0  0.48983  0.52243  0.25998  1.0000
  C   C2466     1.0  0.49078  0.51503  0.28513  1.0000
  C   C2467     1.0  0.49819  0.52594  0.30573  1.0000
  C   C2468     1.0  0.50419  0.54440  0.30085  1.0000
  P   P83       1.0  0.50026  0.51611  0.33791  1.0000
  C   C2469     1.0  0.47693  0.50706  0.35379  1.0000
  C   C2470     1.0  0.57530  0.51017  0.33351  1.0000
  S   S338      1.0  0.64895  0.59603  0.15908  1.0000
  C   C2471     1.0  0.59781  0.55692  0.06242  1.0000
  H   H1975     1.0  0.62866  0.68568  0.31493  1.0000
  C   C2472     1.0  0.55393  0.51237  0.40166  1.0000
  C   C2473     1.0  0.53582  0.50464  0.41264  1.0000
  C   C2474     1.0  0.64575  0.65599  0.28074  1.0000
  C   C2475     1.0  0.51387  0.50954  0.15163  1.0000
  C   C2476     1.0  0.57637  0.50959  0.30603  1.0000
  C   C2477     1.0  0.62277  0.73864  0.22790  1.0000
  C   C2478     1.0  0.53476  0.52475  0.98374  1.0000
  C   C2479     1.0  0.63989  0.67363  0.99633  1.0000
  H   H1976     1.0  0.63599  0.50920  0.45184  1.0000
  C   C2480     1.0  0.56699  0.50214  0.39778  1.0000
  H   H1977     1.0  0.64999  0.74591  0.24464  1.0000
  C   C2481     1.0  0.56591  0.51866  0.98211  1.0000
  H   H1978     1.0  0.57044  0.56297  0.98629  1.0000
  H   H1979     1.0  0.46129  0.50805  0.31844  1.0000
  C   C2482     1.0  0.58413  0.49922  0.06412  1.0000
  H   H1980     1.0  0.56260  0.51212  0.34317  1.0000
  H   H1981     1.0  0.65385  0.58502  0.10653  1.0000
  H   H1982     1.0  0.56470  0.51120  0.29450  1.0000
  C   C2483     1.0  0.55023  0.54291  0.47481  1.0000
  C   C2484     1.0  0.65832  0.68625  0.04213  1.0000
  C   C2485     1.0  0.65798  0.66765  0.26268  1.0000
  C   C2486     1.0  0.65364  0.70476  0.08866  1.0000
  H   H1983     1.0  0.52246  0.50625  0.29320  1.0000
  H   H1984     1.0  0.65924  0.70599  0.33573  1.0000
  H   H1985     1.0  0.57722  0.56234  0.47601  1.0000
  H   H1986     1.0  0.53947  0.49872  0.98085  1.0000
  C   C2487     1.0  0.44254  0.49859  0.35171  1.0000
  S   S339      1.0  0.60016  0.54351  0.98292  1.0000
  C   C2488     1.0  0.57007  0.54835  0.47660  1.0000
  H   H1987     1.0  0.57436  0.50915  0.98063  1.0000
  Fe  Fe172     1.0  0.61829  0.57227  0.98121  1.0000
  H   H1988     1.0  0.65353  0.72343  0.05610  1.0000
  Fe  Fe173     1.0  0.59640  0.59543  0.72612  1.0000
  S   S340      1.0  0.62309  0.58669  0.72981  1.0000
  S   S341      1.0  0.56748  0.57517  0.72939  1.0000
  Fe  Fe174     1.0  0.61908  0.63513  0.71687  1.0000
  C   C2489     1.0  0.59721  0.54355  0.90079  1.0000
  S   S342      1.0  0.61807  0.66389  0.70794  1.0000
  Fe  Fe175     1.0  0.63412  0.60562  0.69494  1.0000
  S   S343      1.0  0.64893  0.59797  0.65874  1.0000
  Fe  Fe176     1.0  0.63236  0.61029  0.75527  1.0000
  S   S344      1.0  0.64624  0.60677  0.79408  1.0000
  S   S345      1.0  0.60687  0.61312  0.68996  1.0000
  S   S346      1.0  0.60515  0.61840  0.75302  1.0000
  C   C2490     1.0  0.63435  0.72230  0.78020  1.0000
  C   C2491     1.0  0.65763  0.73686  0.74591  1.0000
  H   H1989     1.0  0.54519  0.56519  0.67541  1.0000
  Fe  Fe177     1.0  0.63365  0.60386  0.50735  1.0000
  S   S347      1.0  0.62398  0.61541  0.54413  1.0000
  Fe  Fe178     1.0  0.62811  0.60770  0.94954  1.0000
  S   S348      1.0  0.62051  0.62050  0.91167  1.0000
  S   S349      1.0  0.64461  0.57949  0.50957  1.0000
  S   S350      1.0  0.63961  0.58377  0.94797  1.0000
  H   H1990     1.0  0.64828  0.66370  0.62324  1.0000
  C   C2492     1.0  0.63700  0.68169  0.69466  1.0000
  H   H1991     1.0  0.64605  0.59126  0.56322  1.0000
  C   C2493     1.0  0.61430  0.68618  0.80086  1.0000
  H   H1992     1.0  0.50034  0.50231  0.91345  1.0000
  H   H1993     1.0  0.54735  0.50690  0.79020  1.0000
  C   C2494     1.0  0.50792  0.51446  0.90280  1.0000
  C   C2495     1.0  0.58969  0.51008  0.56840  1.0000
  H   H1994     1.0  0.56375  0.56965  0.93221  1.0000
  P   P84       1.0  0.62797  0.70796  0.80952  1.0000
  C   C2496     1.0  0.60728  0.68330  0.77557  1.0000
  H   H1995     1.0  0.54281  0.59385  0.69172  1.0000
  H   H1996     1.0  0.35617  0.53145  0.81896  1.0000
  H   H1997     1.0  0.65153  0.53580  0.86320  1.0000
  C   C2497     1.0  0.65629  0.69139  0.82371  1.0000
  C   C2498     1.0  0.38701  0.50143  0.91978  1.0000
  H   H1998     1.0  0.59608  0.51167  0.93450  1.0000
  C   C2499     1.0  0.63433  0.69896  0.69305  1.0000
  C   C2500     1.0  0.59759  0.50222  0.91987  1.0000
  H   H1999     1.0  0.50772  0.52505  0.53798  1.0000
  H   H2000     1.0  0.64342  0.65603  0.57654  1.0000
  C   C2501     1.0  0.56633  0.54420  0.91953  1.0000
  H   H2001     1.0  0.62071  0.70102  0.69890  1.0000
  C   C2502     1.0  0.59184  0.65267  0.78849  1.0000
  H   H2002     1.0  0.48400  0.52636  0.75774  1.0000
  H   H2003     1.0  0.60649  0.72679  0.77660  1.0000
  C   C2503     1.0  0.63828  0.61011  0.82662  1.0000
  C   C2504     1.0  0.64632  0.60351  0.84826  1.0000
  C   C2505     1.0  0.64078  0.60621  0.87437  1.0000
  C   C2506     1.0  0.62728  0.61578  0.87919  1.0000
  H   H2004     1.0  0.61043  0.69372  0.76026  1.0000
  C   C2507     1.0  0.62452  0.61939  0.83145  1.0000
  H   H2005     1.0  0.37690  0.50794  0.91182  1.0000
  H   H2006     1.0  0.59094  0.51444  0.84230  1.0000
  H   H2007     1.0  0.39299  0.51918  0.95187  1.0000
  H   H2008     1.0  0.59141  0.50677  0.61066  1.0000
  C   C2508     1.0  0.64069  0.60186  0.62724  1.0000
  C   C2509     1.0  0.64624  0.59348  0.60541  1.0000
  C   C2510     1.0  0.64111  0.59734  0.57987  1.0000
  C   C2511     1.0  0.62997  0.60932  0.57598  1.0000
  C   C2512     1.0  0.62380  0.61715  0.59793  1.0000
  C   C2513     1.0  0.62931  0.61362  0.62335  1.0000
  C   C2514     1.0  0.65250  0.53937  0.88358  1.0000
  C   C2515     1.0  0.60803  0.74463  0.84989  1.0000
  H   H2009     1.0  0.61525  0.62649  0.59515  1.0000
  H   H2010     1.0  0.62528  0.62052  0.63973  1.0000
  C   C2516     1.0  0.55825  0.51412  0.73287  1.0000
  C   C2517     1.0  0.57664  0.52537  0.72963  1.0000
  C   C2518     1.0  0.57971  0.54404  0.72825  1.0000
  C   C2519     1.0  0.56440  0.55172  0.73008  1.0000
  C   C2520     1.0  0.54601  0.54048  0.73336  1.0000
  C   C2521     1.0  0.54295  0.52182  0.73500  1.0000
  H   H2011     1.0  0.58861  0.51963  0.72807  1.0000
  H   H2012     1.0  0.59394  0.55245  0.72571  1.0000
  H   H2013     1.0  0.53407  0.54625  0.73476  1.0000
  H   H2014     1.0  0.52873  0.51346  0.73791  1.0000
  C   C2522     1.0  0.64927  0.70655  0.82558  1.0000
  H   H2015     1.0  0.63896  0.66086  0.76122  1.0000
  C   C2523     1.0  0.55262  0.52178  0.54731  1.0000
  C   C2524     1.0  0.53789  0.52923  0.54028  1.0000
  C   C2525     1.0  0.62080  0.72952  0.76822  1.0000
  C   C2526     1.0  0.65478  0.67933  0.68703  1.0000
  C   C2527     1.0  0.51755  0.51827  0.62258  1.0000
  H   H2016     1.0  0.50069  0.49985  0.65200  1.0000
  C   C2528     1.0  0.65356  0.66868  0.76100  1.0000
  H   H2017     1.0  0.65701  0.55112  0.95701  1.0000
  H   H2018     1.0  0.51846  0.55932  0.90778  1.0000
  H   H2019     1.0  0.62540  0.54165  0.93864  1.0000
  C   C2529     1.0  0.61398  0.71803  0.83136  1.0000
  H   H2020     1.0  0.59074  0.66448  0.74994  1.0000
  H   H2021     1.0  0.58312  0.63978  0.78370  1.0000
  H   H2022     1.0  0.59282  0.52154  0.79452  1.0000
  S   S351      1.0  0.64680  0.62823  0.72066  1.0000
  H   H2023     1.0  0.61619  0.54844  0.77573  1.0000
  C   C2530     1.0  0.50917  0.51155  0.80449  1.0000
  H   H2024     1.0  0.59820  0.51111  0.66901  1.0000
  H   H2025     1.0  0.59559  0.69330  0.84783  1.0000
  C   C2531     1.0  0.54855  0.50451  0.55884  1.0000
  H   H2026     1.0  0.63953  0.54296  0.57151  1.0000
  C   C2532     1.0  0.58059  0.53568  0.47875  1.0000
  H   H2027     1.0  0.50959  0.49928  0.81484  1.0000
  P   P85       1.0  0.53972  0.52820  0.83378  1.0000
  C   C2533     1.0  0.56022  0.54670  0.82665  1.0000
  C   C2534     1.0  0.52215  0.52766  0.80956  1.0000
  C   C2535     1.0  0.52074  0.54341  0.79648  1.0000
  C   C2536     1.0  0.62735  0.55658  0.81327  1.0000
  H   H2028     1.0  0.62273  0.52787  0.61249  1.0000
  C   C2537     1.0  0.50703  0.54293  0.77784  1.0000
  H   H2029     1.0  0.50631  0.55508  0.76739  1.0000
  C   C2538     1.0  0.57000  0.55645  0.84687  1.0000
  C   C2539     1.0  0.58546  0.57105  0.84090  1.0000
  C   C2540     1.0  0.59146  0.57580  0.81472  1.0000
  C   C2541     1.0  0.58226  0.56580  0.79457  1.0000
  C   C2542     1.0  0.56685  0.55119  0.80048  1.0000
  C   C2543     1.0  0.52740  0.52933  0.86487  1.0000
  C   C2544     1.0  0.51692  0.51366  0.87835  1.0000
  C   C2545     1.0  0.59930  0.70760  0.84802  1.0000
  H   H2030     1.0  0.56703  0.52945  0.54312  1.0000
  C   C2546     1.0  0.51817  0.54658  0.89960  1.0000
  C   C2547     1.0  0.52729  0.54583  0.87518  1.0000
  C   C2548     1.0  0.55042  0.50082  0.80844  1.0000
  C   C2549     1.0  0.58907  0.71566  0.86534  1.0000
  H   H2031     1.0  0.57779  0.70754  0.87815  1.0000
  H   H2032     1.0  0.55195  0.53730  0.92590  1.0000
  H   H2033     1.0  0.41612  0.50450  0.97126  1.0000
  H   H2034     1.0  0.53026  0.55609  0.80048  1.0000
  S   S352      1.0  0.65611  0.61905  0.47774  1.0000
  C   C2550     1.0  0.64924  0.71371  0.68451  1.0000
  S   S353      1.0  0.60580  0.54174  0.47846  1.0000
  C   C2551     1.0  0.57296  0.56242  0.92310  1.0000
  H   H2035     1.0  0.56569  0.55291  0.86718  1.0000
  H   H2036     1.0  0.59287  0.57871  0.85650  1.0000
  H   H2037     1.0  0.60349  0.58701  0.80998  1.0000
  H   H2038     1.0  0.58727  0.56930  0.77435  1.0000
  H   H2039     1.0  0.56006  0.54346  0.78461  1.0000
  C   C2552     1.0  0.51327  0.51066  0.64801  1.0000
  H   H2040     1.0  0.62966  0.74502  0.82025  1.0000
  H   H2041     1.0  0.59672  0.58535  0.91824  1.0000
  H   H2042     1.0  0.64732  0.60126  0.89071  1.0000
  H   H2043     1.0  0.53422  0.55813  0.86442  1.0000
  H   H2044     1.0  0.61825  0.62457  0.81505  1.0000
  H   H2045     1.0  0.52204  0.51086  0.68793  1.0000
  C   C2553     1.0  0.61034  0.67192  0.81964  1.0000
  C   C2554     1.0  0.60367  0.56189  0.90416  1.0000
  H   H2046     1.0  0.55133  0.50598  0.87468  1.0000
  C   C2555     1.0  0.64402  0.74379  0.73394  1.0000
  C   C2556     1.0  0.59904  0.65530  0.81350  1.0000
  C   C2557     1.0  0.51907  0.51951  0.54448  1.0000
  C   C2558     1.0  0.63785  0.54250  0.92599  1.0000
  C   C2559     1.0  0.62572  0.53368  0.57066  1.0000
  H   H2047     1.0  0.50178  0.53145  0.93260  1.0000
  H   H2048     1.0  0.58565  0.74043  0.87985  1.0000
  C   C2560     1.0  0.59605  0.66663  0.76952  1.0000
  C   C2561     1.0  0.51492  0.50246  0.55635  1.0000
  C   C2562     1.0  0.63612  0.53868  0.89930  1.0000
  H   H2049     1.0  0.57280  0.52081  0.90537  1.0000
  P   P86       1.0  0.61294  0.53168  0.88608  1.0000
  H   H2050     1.0  0.48559  0.49865  0.78191  1.0000
  H   H2051     1.0  0.54106  0.54232  0.53064  1.0000
  H   H2052     1.0  0.60870  0.62962  0.86118  1.0000
  C   C2563     1.0  0.62567  0.74026  0.74517  1.0000
  H   H2053     1.0  0.59312  0.51621  0.52640  1.0000
  C   C2564     1.0  0.61555  0.54520  0.79670  1.0000
  C   C2565     1.0  0.65835  0.68619  0.75082  1.0000
  H   H2054     1.0  0.59581  0.64441  0.82811  1.0000
  C   C2566     1.0  0.59158  0.57125  0.91535  1.0000
  C   C2567     1.0  0.49546  0.51114  0.78589  1.0000
  H   H2055     1.0  0.65485  0.58423  0.60822  1.0000
  C   C2568     1.0  0.61373  0.53702  0.85109  1.0000
  H   H2056     1.0  0.63525  0.56191  0.85293  1.0000
  H   H2057     1.0  0.61805  0.56899  0.89823  1.0000
  C   C2569     1.0  0.61827  0.73662  0.83256  1.0000
  H   H2058     1.0  0.63713  0.56865  0.80512  1.0000
  C   C2570     1.0  0.60137  0.52605  0.83443  1.0000
  C   C2571     1.0  0.61622  0.52520  0.59372  1.0000
  C   C2572     1.0  0.50868  0.53090  0.91355  1.0000
  C   C2573     1.0  0.60240  0.53004  0.80732  1.0000
  C   C2574     1.0  0.57833  0.53483  0.90817  1.0000
  C   C2575     1.0  0.62628  0.55267  0.84039  1.0000
  H   H2059     1.0  0.61587  0.67366  0.83913  1.0000
  C   C2576     1.0  0.61915  0.62226  0.85758  1.0000
  H   H2060     1.0  0.38405  0.52126  0.80351  1.0000
  C   C2577     1.0  0.35049  0.51381  0.85350  1.0000
  C   C2578     1.0  0.36058  0.52128  0.83029  1.0000
  C   C2579     1.0  0.61525  0.55584  0.67233  1.0000
  C   C2580     1.0  0.61416  0.53775  0.67601  1.0000
  C   C2581     1.0  0.59923  0.52516  0.66584  1.0000
  C   C2582     1.0  0.58539  0.53069  0.65205  1.0000
  C   C2583     1.0  0.58612  0.54885  0.64883  1.0000
  C   C2584     1.0  0.60134  0.56144  0.65874  1.0000
  P   P87       1.0  0.56791  0.55575  0.63132  1.0000
  C   C2585     1.0  0.57465  0.56006  0.59673  1.0000
  C   C2586     1.0  0.54601  0.53858  0.63758  1.0000
  C   C2587     1.0  0.53393  0.53205  0.61727  1.0000
  H   H2061     1.0  0.50820  0.51331  0.60697  1.0000
  H   H2062     1.0  0.62460  0.53698  0.52855  1.0000
  C   C2588     1.0  0.52527  0.51690  0.66825  1.0000
  C   C2589     1.0  0.54151  0.53081  0.66311  1.0000
  C   C2590     1.0  0.56281  0.56645  0.57988  1.0000
  C   C2591     1.0  0.56867  0.57154  0.55368  1.0000
  C   C2592     1.0  0.58657  0.57071  0.54428  1.0000
  C   C2593     1.0  0.59868  0.56497  0.56111  1.0000
  C   C2594     1.0  0.59278  0.55964  0.58722  1.0000
  C   C2595     1.0  0.56561  0.57669  0.64358  1.0000
  C   C2596     1.0  0.57655  0.59279  0.63168  1.0000
  C   C2597     1.0  0.57491  0.60907  0.64091  1.0000
  C   C2598     1.0  0.56258  0.60947  0.66233  1.0000
  C   C2599     1.0  0.55183  0.59357  0.67447  1.0000
  C   C2600     1.0  0.55330  0.57724  0.66516  1.0000
  H   H2063     1.0  0.62683  0.56556  0.68027  1.0000
  H   H2064     1.0  0.62483  0.53354  0.68691  1.0000
  C   C2601     1.0  0.59937  0.51865  0.54535  1.0000
  H   H2065     1.0  0.57394  0.52072  0.64437  1.0000
  H   H2066     1.0  0.60253  0.57556  0.65621  1.0000
  H   H2067     1.0  0.53711  0.53722  0.59726  1.0000
  C   C2602     1.0  0.61732  0.53035  0.54648  1.0000
  C   C2603     1.0  0.39611  0.50787  0.94257  1.0000
  C   C2604     1.0  0.49449  0.52678  0.77239  1.0000
  H   H2068     1.0  0.55077  0.53532  0.67901  1.0000
  H   H2069     1.0  0.54928  0.56805  0.58724  1.0000
  H   H2070     1.0  0.55959  0.57662  0.54083  1.0000
  H   H2071     1.0  0.59135  0.57505  0.52420  1.0000
  H   H2072     1.0  0.61290  0.56529  0.55409  1.0000
  H   H2073     1.0  0.60273  0.55598  0.60013  1.0000
  H   H2074     1.0  0.58663  0.59287  0.61553  1.0000
  H   H2075     1.0  0.58365  0.62138  0.63190  1.0000
  H   H2076     1.0  0.56176  0.62209  0.66999  1.0000
  C   C2605     1.0  0.37630  0.51556  0.82162  1.0000
  C   C2606     1.0  0.59344  0.73417  0.86629  1.0000
  C   C2607     1.0  0.54786  0.50817  0.83270  1.0000
  H   H2077     1.0  0.64507  0.67634  0.89690  1.0000
  H   H2078     1.0  0.64688  0.72685  0.68367  1.0000
  H   H2079     1.0  0.57885  0.50758  0.48103  1.0000
  H   H2080     1.0  0.64741  0.69195  0.74353  1.0000
  C   C2608     1.0  0.59831  0.51339  0.59262  1.0000
  H   H2081     1.0  0.54957  0.50155  0.61557  1.0000
  H   H2082     1.0  0.64898  0.68011  0.81297  1.0000
  C   C2609     1.0  0.40915  0.49964  0.95351  1.0000
  C   C2610     1.0  0.65574  0.54774  0.93652  1.0000
  C   C2611     1.0  0.35616  0.50069  0.86810  1.0000
  H   H2083     1.0  0.61533  0.74602  0.73602  1.0000
  H   H2084     1.0  0.33822  0.51816  0.86016  1.0000
  H   H2085     1.0  0.51572  0.50077  0.87013  1.0000
  C   C2612     1.0  0.65282  0.72623  0.76904  1.0000
  C   C2613     1.0  0.55263  0.50030  0.85583  1.0000
  C   C2614     1.0  0.60517  0.50814  0.89442  1.0000
  C   C2615     1.0  0.38201  0.50242  0.83617  1.0000
  H   H2086     1.0  0.65461  0.65016  0.91511  1.0000
  H   H2087     1.0  0.65706  0.59642  0.84482  1.0000
  C   C2616     1.0  0.65589  0.65430  0.58609  1.0000
  H   H2088     1.0  0.65713  0.66616  0.68823  1.0000
  C   C2617     1.0  0.65774  0.67824  0.90804  1.0000
  H   H2089     1.0  0.65496  0.73328  0.83993  1.0000
  C   C2618     1.0  0.57092  0.51754  0.47961  1.0000
  H   H2090     1.0  0.61559  0.49995  0.85772  1.0000
  C   C2619     1.0  0.55105  0.51212  0.47834  1.0000
  H   H2091     1.0  0.54393  0.49814  0.47908  1.0000
  C   C2620     1.0  0.65861  0.65855  0.61237  1.0000
  H   H2092     1.0  0.39405  0.49813  0.82872  1.0000
  S   S354      1.0  0.35750  0.92553  0.16579  1.0000
  C   C2621     1.0  0.57705  0.98069  0.23671  1.0000
  C   C2622     1.0  0.33971  0.97296  0.08667  1.0000
  S   S355      1.0  0.65010  0.77502  0.08972  1.0000
  C   C2623     1.0  0.41371  0.97538  0.00725  1.0000
  C   C2624     1.0  0.59009  0.97148  0.24535  1.0000
  S   S356      1.0  0.46197  0.97534  0.03468  1.0000
  Fe  Fe179     1.0  0.48111  0.97600  0.24380  1.0000
  C   C2625     1.0  0.38510  0.94663  0.45876  1.0000
  S   S357      1.0  0.48508  0.96188  0.28246  1.0000
  Fe  Fe180     1.0  0.48886  0.98216  0.18342  1.0000
  H   H2093     1.0  0.54322  0.95982  0.25187  1.0000
  S   S358      1.0  0.50237  0.97701  0.14443  1.0000
  H   H2094     1.0  0.37731  0.93420  0.45107  1.0000
  C   C2626     1.0  0.35162  0.90772  0.07510  1.0000
  C   C2627     1.0  0.33382  0.99656  0.43756  1.0000
  C   C2628     1.0  0.51361  0.94624  0.19069  1.0000
  S   S359      1.0  0.46447  0.96504  0.20853  1.0000
  S   S360      1.0  0.65300  0.75580  0.16299  1.0000
  H   H2095     1.0  0.65667  0.82699  0.98009  1.0000
  H   H2096     1.0  0.64908  0.97189  0.37781  1.0000
  H   H2097     1.0  0.40361  0.97446  0.26443  1.0000
  H   H2098     1.0  0.32993  0.97560  0.46758  1.0000
  H   H2099     1.0  0.33785  0.97930  0.25456  1.0000
  H   H2100     1.0  0.35391  0.95620  0.32205  1.0000
  H   H2101     1.0  0.62829  0.97326  0.09613  1.0000
  H   H2102     1.0  0.38559  0.91922  0.37631  1.0000
  C   C2629     1.0  0.40822  0.97496  0.45244  1.0000
  C   C2630     1.0  0.33753  0.98145  0.44944  1.0000
  C   C2631     1.0  0.33091  0.98556  0.98188  1.0000
  C   C2632     1.0  0.53068  0.98577  0.29106  1.0000
  H   H2103     1.0  0.57350  0.97640  0.44726  1.0000
  H   H2104     1.0  0.42845  0.97285  0.34771  1.0000
  C   C2633     1.0  0.36064  0.92260  0.27236  1.0000
  C   C2634     1.0  0.35587  0.92360  0.24595  1.0000
  C   C2635     1.0  0.63842  0.79070  0.27514  1.0000
  C   C2636     1.0  0.63942  0.79098  0.30257  1.0000
  C   C2637     1.0  0.35682  0.98070  0.07257  1.0000
  H   H2105     1.0  0.62731  0.79524  0.26583  1.0000
  H   H2106     1.0  0.62909  0.79572  0.31401  1.0000
  H   H2107     1.0  0.53732  0.99043  0.17718  1.0000
  C   C2638     1.0  0.47310  0.98313  0.36332  1.0000
  H   H2108     1.0  0.55398  0.98099  0.34632  1.0000
  C   C2639     1.0  0.47031  0.98317  0.31551  1.0000
  C   C2640     1.0  0.48152  0.97114  0.31325  1.0000
  C   C2641     1.0  0.48897  0.96552  0.33621  1.0000
  C   C2642     1.0  0.48487  0.97156  0.36114  1.0000
  H   H2109     1.0  0.36372  0.93498  0.39736  1.0000
  H   H2110     1.0  0.62311  0.75168  0.34340  1.0000
  H   H2111     1.0  0.49760  0.95615  0.33480  1.0000
  H   H2112     1.0  0.49015  0.96665  0.37871  1.0000
  H   H2113     1.0  0.42634  0.92824  0.22491  1.0000
  C   C2643     1.0  0.33507  0.89389  0.25060  1.0000
  C   C2644     1.0  0.47144  0.96962  0.11262  1.0000
  C   C2645     1.0  0.49081  0.97753  0.11433  1.0000
  C   C2646     1.0  0.50145  0.98496  0.09125  1.0000
  C   C2647     1.0  0.34318  0.90929  0.23518  1.0000
  H   H2114     1.0  0.44577  0.94773  0.29960  1.0000
  H   H2115     1.0  0.46313  0.96357  0.13009  1.0000
  C   C2648     1.0  0.37383  0.96142  0.27222  1.0000
  C   C2649     1.0  0.46292  0.96897  0.08808  1.0000
  C   C2650     1.0  0.37542  0.94377  0.17654  1.0000
  C   C2651     1.0  0.39375  0.94159  0.17983  1.0000
  C   C2652     1.0  0.40839  0.95556  0.18850  1.0000
  C   C2653     1.0  0.40491  0.97194  0.19409  1.0000
  C   C2654     1.0  0.38660  0.97416  0.19070  1.0000
  C   C2655     1.0  0.37193  0.96018  0.18207  1.0000
  H   H2116     1.0  0.39667  0.92900  0.17555  1.0000
  H   H2117     1.0  0.42240  0.95365  0.19069  1.0000
  C   C2656     1.0  0.38601  0.99120  0.25248  1.0000
  H   H2118     1.0  0.35795  0.96211  0.17965  1.0000
  C   C2657     1.0  0.35784  0.94674  0.36080  1.0000
  C   C2658     1.0  0.65184  0.77460  0.03540  1.0000
  H   H2119     1.0  0.59549  0.98434  0.40790  1.0000
  C   C2659     1.0  0.36138  0.94846  0.33352  1.0000
  H   H2120     1.0  0.51048  0.94149  0.25748  1.0000
  H   H2121     1.0  0.50511  0.94276  0.17367  1.0000
  C   C2660     1.0  0.33897  0.98774  0.34444  1.0000
  H   H2122     1.0  0.39415  0.92996  0.23759  1.0000
  H   H2123     1.0  0.62182  0.95508  0.05662  1.0000
  H   H2124     1.0  0.53783  0.96112  0.16751  1.0000
  H   H2125     1.0  0.60507  0.95836  0.97961  1.0000
  H   H2126     1.0  0.33672  0.95951  0.09501  1.0000
  C   C2661     1.0  0.40837  0.99674  0.12421  1.0000
  P   P88       1.0  0.37761  0.94092  0.28588  1.0000
  H   H2127     1.0  0.41389  0.95005  0.31246  1.0000
  H   H2128     1.0  0.40813  0.97903  0.31240  1.0000
  H   H2129     1.0  0.52433  0.97828  0.27469  1.0000
  S   S361      1.0  0.46416  0.98858  0.39404  1.0000
  H   H2130     1.0  0.36920  0.97371  0.40408  1.0000
  H   H2131     1.0  0.38373  0.98680  0.19463  1.0000
  H   H2132     1.0  0.53984  0.96405  0.30869  1.0000
  H   H2133     1.0  0.60880  0.96832  0.27601  1.0000
  H   H2134     1.0  0.58258  0.93041  0.15040  1.0000
  Fe  Fe181     1.0  0.47318  0.99306  0.99795  1.0000
  H   H2135     1.0  0.60598  0.98876  0.05867  1.0000
  C   C2662     1.0  0.50579  0.94077  0.21597  1.0000
  H   H2136     1.0  0.33352  0.88078  0.28885  1.0000
  H   H2137     1.0  0.65299  0.81616  0.19226  1.0000
  C   C2663     1.0  0.54309  0.96211  0.20923  1.0000
  H   H2138     1.0  0.59285  0.97046  0.09913  1.0000
  C   C2664     1.0  0.35259  0.90697  0.28770  1.0000
  C   C2665     1.0  0.41542  0.98555  0.37726  1.0000
  C   C2666     1.0  0.39824  0.95894  0.44245  1.0000
  H   H2139     1.0  0.57727  0.98337  0.13474  1.0000
  C   C2667     1.0  0.40333  0.97803  0.98561  1.0000
  Fe  Fe182     1.0  0.47564  0.99273  0.43531  1.0000
  H   H2140     1.0  0.34768  0.95292  0.36987  1.0000
  H   H2141     1.0  0.33973  0.91017  0.21475  1.0000
  H   H2142     1.0  0.56132  0.94248  0.17850  1.0000
  H   H2143     1.0  0.60639  0.98989  0.18670  1.0000
  C   C2668     1.0  0.41620  0.94499  0.29347  1.0000
  Fe  Fe183     1.0  0.45408  0.98982  0.20945  1.0000
  H   H2144     1.0  0.61584  0.94762  0.14076  1.0000
  C   C2669     1.0  0.37375  0.93966  0.32138  1.0000
  C   C2670     1.0  0.60639  0.95315  0.15275  1.0000
  C   C2671     1.0  0.35221  0.97849  0.25756  1.0000
  C   C2672     1.0  0.40545  0.97357  0.03264  1.0000
  H   H2145     1.0  0.35598  0.90575  0.30807  1.0000
  C   C2673     1.0  0.65132  0.95923  0.04518  1.0000
  S   S362      1.0  0.50057  0.98838  0.45695  1.0000
  C   C2674     1.0  0.39491  0.99182  0.10514  1.0000
  H   H2146     1.0  0.36199  0.93539  0.23352  1.0000
  C   C2675     1.0  0.42345  0.93270  0.24421  1.0000
  H   H2147     1.0  0.55141  0.98573  0.01054  1.0000
  C   C2676     1.0  0.65772  0.97762  0.33681  1.0000
  C   C2677     1.0  0.43805  0.93765  0.26161  1.0000
  H   H2148     1.0  0.64807  0.84474  0.17546  1.0000
  H   H2149     1.0  0.41379  0.97120  0.04890  1.0000
  C   C2678     1.0  0.35043  0.97342  0.43729  1.0000
  C   C2679     1.0  0.63989  0.97146  0.08365  1.0000
  C   C2680     1.0  0.43441  0.94381  0.28619  1.0000
  H   H2150     1.0  0.42944  0.98886  0.14694  1.0000
  C   C2681     1.0  0.61300  0.96985  0.16320  1.0000
  H   H2151     1.0  0.63722  0.77518  0.03677  1.0000
  H   H2152     1.0  0.60057  0.99105  0.30382  1.0000
  C   C2682     1.0  0.37896  0.92751  0.36440  1.0000
  C   C2683     1.0  0.33978  0.89272  0.27687  1.0000
  H   H2153     1.0  0.59393  0.96158  0.23341  1.0000
  C   C2684     1.0  0.59219  0.98418  0.09730  1.0000
  C   C2685     1.0  0.56978  0.98352  0.43040  1.0000
  C   C2686     1.0  0.35674  0.99623  0.40178  1.0000
  H   H2154     1.0  0.42809  0.97424  0.00453  1.0000
  C   C2687     1.0  0.53944  0.97779  0.31023  1.0000
  H   H2155     1.0  0.34328  0.95226  0.27547  1.0000
  P   P89       1.0  0.56670  0.97682  0.20497  1.0000
  H   H2156     1.0  0.35267  0.96130  0.44611  1.0000
  H   H2157     1.0  0.64857  0.95163  0.02762  1.0000
  H   H2158     1.0  0.64463  0.98070  0.33163  1.0000
  C   C2688     1.0  0.53523  0.95617  0.23455  1.0000
  H   H2159     1.0  0.34666  0.89336  0.07670  1.0000
  C   C2689     1.0  0.41638  0.96859  0.12082  1.0000
  C   C2690     1.0  0.65852  0.97982  0.08943  1.0000
  C   C2691     1.0  0.54743  0.98746  0.33155  1.0000
  C   C2692     1.0  0.57221  0.99328  0.25289  1.0000
  C   C2693     1.0  0.39194  0.97512  0.09393  1.0000
  C   C2694     1.0  0.40299  0.96364  0.10170  1.0000
  P   P90       1.0  0.37489  0.96877  0.06874  1.0000
  C   C2695     1.0  0.38653  0.97407  0.03661  1.0000
  C   C2696     1.0  0.36471  0.94498  0.07122  1.0000
  C   C2697     1.0  0.36128  0.93509  0.04844  1.0000
  C   C2698     1.0  0.35480  0.91656  0.05042  1.0000
  C   C2699     1.0  0.46625  0.98919  0.34028  1.0000
  H   H2160     1.0  0.40083  0.95602  0.42218  1.0000
  C   C2700     1.0  0.36118  0.93598  0.09596  1.0000
  H   H2161     1.0  0.65327  0.77524  0.99269  1.0000
  H   H2162     1.0  0.35253  0.91049  0.11690  1.0000
  H   H2163     1.0  0.49124  0.93296  0.21862  1.0000
  C   C2701     1.0  0.51664  0.94561  0.23786  1.0000
  C   C2702     1.0  0.47349  0.97664  0.06508  1.0000
  H   H2164     1.0  0.44805  0.96248  0.08686  1.0000
  C   C2703     1.0  0.49278  0.98483  0.06684  1.0000
  S   S363      1.0  0.50686  0.98981  0.21852  1.0000
  C   C2704     1.0  0.35983  0.98060  0.41342  1.0000
  H   H2165     1.0  0.33667  0.97793  0.36042  1.0000
  C   C2705     1.0  0.40514  0.93367  0.25155  1.0000
  H   H2166     1.0  0.42464  0.95956  0.12709  1.0000
  H   H2167     1.0  0.36122  0.97620  0.01734  1.0000
  H   H2168     1.0  0.62763  0.97726  0.15965  1.0000
  C   C2706     1.0  0.36673  0.93642  0.37627  1.0000
  H   H2169     1.0  0.40131  0.95084  0.09303  1.0000
  H   H2170     1.0  0.36365  0.94152  0.02903  1.0000
  C   C2707     1.0  0.41908  0.98512  0.13204  1.0000
  C   C2708     1.0  0.37608  0.97662  0.01479  1.0000
  C   C2709     1.0  0.59848  0.97518  0.26954  1.0000
  H   H2171     1.0  0.36364  0.94327  0.11384  1.0000
  H   H2172     1.0  0.42470  0.98327  0.39237  1.0000
  C   C2710     1.0  0.63627  0.96119  0.06150  1.0000
  C   C2711     1.0  0.59960  0.99449  0.07454  1.0000
  C   C2712     1.0  0.60084  0.97703  0.17864  1.0000
  S   S364      1.0  0.65316  0.78588  0.35040  1.0000
  H   H2173     1.0  0.41869  0.98447  0.44011  1.0000
  C   C2713     1.0  0.35488  0.91742  0.09780  1.0000
  C   C2714     1.0  0.65353  0.78520  0.31538  1.0000
  H   H2174     1.0  0.64802  0.82937  0.45856  1.0000
  C   C2715     1.0  0.65143  0.78456  0.25967  1.0000
  C   C2716     1.0  0.41765  0.97979  0.35195  1.0000
  H   H2175     1.0  0.39115  0.92131  0.32815  1.0000
  C   C2717     1.0  0.53219  0.95676  0.18730  1.0000
  H   H2176     1.0  0.45227  0.93691  0.25599  1.0000
  C   C2718     1.0  0.38450  0.97869  0.98939  1.0000
  C   C2719     1.0  0.58767  0.94348  0.15819  1.0000
  C   C2720     1.0  0.55277  0.98857  0.43114  1.0000
  C   C2721     1.0  0.57554  0.95050  0.17401  1.0000
  C   C2722     1.0  0.38223  0.92889  0.33706  1.0000
  C   C2723     1.0  0.40128  0.93957  0.27644  1.0000
  C   C2724     1.0  0.35533  0.96305  0.26920  1.0000
  H   H2177     1.0  0.54327  0.98518  0.44842  1.0000
  C   C2725     1.0  0.38918  0.97557  0.26349  1.0000
  C   C2726     1.0  0.59384  0.98798  0.28528  1.0000
  H   H2178     1.0  0.35228  0.90906  0.03275  1.0000
  S   S365      1.0  0.64836  0.78455  0.22505  1.0000
  C   C2727     1.0  0.58194  0.96750  0.18405  1.0000
  S   S366      1.0  0.42300  0.99003  0.20496  1.0000
  C   C2728     1.0  0.58218  0.98805  0.40827  1.0000
  H   H2179     1.0  0.46403  0.98724  0.29834  1.0000
  H   H2180     1.0  0.51649  0.99080  0.09223  1.0000
  C   C2729     1.0  0.36754  0.99264  0.24941  1.0000
  C   C2730     1.0  0.40127  0.99415  0.38306  1.0000
  H   H2181     1.0  0.32937  0.97435  0.99575  1.0000
  H   H2182     1.0  0.38264  0.99339  0.32235  1.0000
  C   C2731     1.0  0.40607  0.98308  0.33217  1.0000
  H   H2183     1.0  0.62538  0.75068  0.21554  1.0000
  H   H2184     1.0  0.32750  0.92448  0.01624  1.0000
  C   C2732     1.0  0.58071  0.99701  0.27695  1.0000
  S   S367      1.0  0.45618  0.98522  0.47155  1.0000
  H   H2185     1.0  0.50115  0.99060  0.04928  1.0000
  S   S368      1.0  0.59188  0.99410  0.00701  1.0000
  C   C2733     1.0  0.39168  0.99140  0.33795  1.0000
  C   C2734     1.0  0.58343  0.99143  0.11738  1.0000
  C   C2735     1.0  0.38891  0.99669  0.36363  1.0000
  C   C2736     1.0  0.32968  0.99737  0.30242  1.0000
  C   C2737     1.0  0.32704  0.98479  0.32331  1.0000
  Fe  Fe184     1.0  0.32637  0.92406  0.15810  1.0000
  S   S369      1.0  0.63937  0.99736  0.46900  1.0000
  H   H2186     1.0  0.63024  0.99786  0.36692  1.0000
  C   C2738     1.0  0.32618  0.98266  0.09024  1.0000
  C   C2739     1.0  0.57764  0.99780  0.38699  1.0000
  S   S370      1.0  0.36476  0.92703  0.65457  1.0000
  H   H2187     1.0  0.34844  0.94498  0.86308  1.0000
  H   H2188     1.0  0.35688  0.92607  0.73474  1.0000
  H   H2189     1.0  0.35762  0.98625  0.76442  1.0000
  S   S371      1.0  0.47218  0.97825  0.90115  1.0000
  Fe  Fe185     1.0  0.48177  0.98408  0.49419  1.0000
  S   S372      1.0  0.48014  0.96221  0.52549  1.0000
  Fe  Fe186     1.0  0.48510  0.98348  0.73961  1.0000
  C   C2740     1.0  0.34224  0.99504  0.82989  1.0000
  S   S373      1.0  0.48751  0.96883  0.77841  1.0000
  Fe  Fe187     1.0  0.49091  0.98299  0.67886  1.0000
  H   H2190     1.0  0.58589  0.95725  0.82024  1.0000
  S   S374      1.0  0.50149  0.96855  0.64596  1.0000
  C   C2741     1.0  0.40513  0.97864  0.47867  1.0000
  C   C2742     1.0  0.38206  0.95025  0.48510  1.0000
  H   H2191     1.0  0.36468  0.96586  0.89570  1.0000
  H   H2192     1.0  0.37625  0.98024  0.97261  1.0000
  S   S375      1.0  0.46724  0.96925  0.70769  1.0000
  H   H2193     1.0  0.64084  0.86759  0.59152  1.0000
  C   C2743     1.0  0.59808  0.97695  0.92037  1.0000
  H   H2194     1.0  0.46503  0.84813  0.64192  1.0000
  S   S376      1.0  0.64787  0.78900  0.72394  1.0000
  H   H2195     1.0  0.32951  0.98673  0.56012  1.0000
  H   H2196     1.0  0.40693  0.95659  0.57227  1.0000
  H   H2197     1.0  0.64081  0.96769  0.90911  1.0000
  C   C2744     1.0  0.38111  0.95153  0.55057  1.0000
  C   C2745     1.0  0.33165  0.98352  0.81234  1.0000
  H   H2198     1.0  0.64397  0.83769  0.78242  1.0000
  C   C2746     1.0  0.38027  0.97383  0.82140  1.0000
  C   C2747     1.0  0.36553  0.95909  0.82993  1.0000
  H   H2199     1.0  0.50502  0.95356  0.93839  1.0000
  C   C2748     1.0  0.38729  0.97687  0.61743  1.0000
  H   H2200     1.0  0.39688  0.96833  0.61684  1.0000
  H   H2201     1.0  0.34068  0.97534  0.61219  1.0000
  H   H2202     1.0  0.54914  0.96263  0.87813  1.0000
  C   C2749     1.0  0.35779  0.97320  0.75805  1.0000
  C   C2750     1.0  0.34392  0.96463  0.74130  1.0000
  H   H2203     1.0  0.47780  0.87602  0.61487  1.0000
  H   H2204     1.0  0.39599  0.93064  0.60272  1.0000
  C   C2751     1.0  0.35561  0.98076  0.61527  1.0000
  H   H2205     1.0  0.36431  0.91021  0.59903  1.0000
  C   C2752     1.0  0.47736  0.97752  0.86673  1.0000
  Fe  Fe188     1.0  0.33310  0.92492  0.65386  1.0000
  H   H2206     1.0  0.38054  0.94030  0.76589  1.0000
  C   C2753     1.0  0.48363  0.97325  0.81206  1.0000
  C   C2754     1.0  0.47869  0.95857  0.82985  1.0000
  C   C2755     1.0  0.47532  0.96065  0.85669  1.0000
  C   C2756     1.0  0.44442  0.99053  0.54375  1.0000
  C   C2757     1.0  0.55727  0.97557  0.91468  1.0000
  H   H2207     1.0  0.47720  0.94534  0.82279  1.0000
  H   H2208     1.0  0.47118  0.94899  0.86988  1.0000
  C   C2758     1.0  0.48697  0.96554  0.55852  1.0000
  C   C2759     1.0  0.48823  0.98155  0.57127  1.0000
  C   C2760     1.0  0.49220  0.98272  0.59832  1.0000
  C   C2761     1.0  0.49559  0.96809  0.61241  1.0000
  C   C2762     1.0  0.49489  0.95241  0.59934  1.0000
  C   C2763     1.0  0.49028  0.95105  0.57285  1.0000
  C   C2764     1.0  0.43881  0.94858  0.78341  1.0000
  S   S377      1.0  0.65211  0.77755  0.84865  1.0000
  H   H2209     1.0  0.49764  0.94111  0.60987  1.0000
  H   H2210     1.0  0.48939  0.93867  0.56330  1.0000
  C   C2765     1.0  0.38144  0.94559  0.66667  1.0000
  C   C2766     1.0  0.40090  0.94686  0.66305  1.0000
  C   C2767     1.0  0.41452  0.96103  0.67323  1.0000
  C   C2768     1.0  0.40886  0.97418  0.68697  1.0000
  C   C2769     1.0  0.38942  0.97303  0.69042  1.0000
  C   C2770     1.0  0.37579  0.95893  0.68008  1.0000
  H   H2211     1.0  0.40549  0.93675  0.65250  1.0000
  H   H2212     1.0  0.42940  0.96187  0.67046  1.0000
  H   H2213     1.0  0.33014  0.96930  0.81468  1.0000
  H   H2214     1.0  0.36092  0.95836  0.68256  1.0000
  H   H2215     1.0  0.48604  0.99297  0.56046  1.0000
  S   S378      1.0  0.42560  0.99233  0.69987  1.0000
  Fe  Fe189     1.0  0.45712  0.99390  0.70266  1.0000
  C   C2771     1.0  0.62781  0.96824  0.91945  1.0000
  C   C2772     1.0  0.62417  0.96167  0.94550  1.0000
  C   C2773     1.0  0.58761  0.96983  0.82958  1.0000
  H   H2216     1.0  0.57927  0.95773  0.86817  1.0000
  H   H2217     1.0  0.35271  0.96894  0.56099  1.0000
  H   H2218     1.0  0.54989  0.98712  0.51402  1.0000
  C   C2774     1.0  0.54482  0.96465  0.89801  1.0000
  H   H2219     1.0  0.36262  0.95571  0.61094  1.0000
  H   H2220     1.0  0.52689  0.97270  0.96805  1.0000
  C   C2775     1.0  0.35729  0.92475  0.56570  1.0000
  H   H2221     1.0  0.65223  0.98568  0.73240  1.0000
  C   C2776     1.0  0.43143  0.95180  0.80788  1.0000
  H   H2222     1.0  0.44128  0.98557  0.83950  1.0000
  C   C2777     1.0  0.55744  0.99219  0.75402  1.0000
  P   P91       1.0  0.38844  0.97150  0.52931  1.0000
  H   H2223     1.0  0.41104  0.96590  0.74366  1.0000
  C   C2778     1.0  0.48585  0.99036  0.82182  1.0000
  C   C2779     1.0  0.36900  0.96818  0.87500  1.0000
  H   H2224     1.0  0.65814  0.80256  0.53145  1.0000
  H   H2225     1.0  0.55876  0.98253  0.73970  1.0000
  P   P92       1.0  0.38975  0.97594  0.78790  1.0000
  C   C2780     1.0  0.65258  0.78051  0.81368  1.0000
  C   C2781     1.0  0.38815  0.89161  0.68536  1.0000
  C   C2782     1.0  0.38404  0.90363  0.70302  1.0000
  C   C2783     1.0  0.39850  0.91776  0.71083  1.0000
  C   C2784     1.0  0.41705  0.91989  0.70092  1.0000
  C   C2785     1.0  0.42141  0.90756  0.68381  1.0000
  C   C2786     1.0  0.40674  0.89362  0.67561  1.0000
  P   P93       1.0  0.44494  0.91152  0.66895  1.0000
  C   C2787     1.0  0.46282  0.92114  0.69161  1.0000
  C   C2788     1.0  0.45065  0.89126  0.65983  1.0000
  C   C2789     1.0  0.46315  0.89139  0.63817  1.0000
  C   C2790     1.0  0.46817  0.87583  0.63164  1.0000
  C   C2791     1.0  0.46101  0.86014  0.64692  1.0000
  C   C2792     1.0  0.44893  0.86003  0.66888  1.0000
  C   C2793     1.0  0.44387  0.87557  0.67546  1.0000
  C   C2794     1.0  0.48093  0.93043  0.68187  1.0000
  C   C2795     1.0  0.49489  0.93806  0.69916  1.0000
  C   C2796     1.0  0.49096  0.93621  0.72632  1.0000
  C   C2797     1.0  0.47322  0.92631  0.73624  1.0000
  C   C2798     1.0  0.45925  0.91858  0.71899  1.0000
  C   C2799     1.0  0.44505  0.92582  0.64024  1.0000
  C   C2800     1.0  0.45109  0.94434  0.64169  1.0000
  C   C2801     1.0  0.44992  0.95542  0.61997  1.0000
  C   C2802     1.0  0.44331  0.94811  0.59634  1.0000
  C   C2803     1.0  0.43716  0.92967  0.59472  1.0000
  C   C2804     1.0  0.43770  0.91855  0.61672  1.0000
  H   H2226     1.0  0.37678  0.88108  0.67859  1.0000
  H   H2227     1.0  0.36953  0.90244  0.70972  1.0000
  H   H2228     1.0  0.39519  0.92761  0.72343  1.0000
  H   H2229     1.0  0.42783  0.93156  0.70574  1.0000
  H   H2230     1.0  0.40954  0.88460  0.66117  1.0000
  H   H2231     1.0  0.46922  0.90354  0.62649  1.0000
  C   C2805     1.0  0.41039  0.98499  0.54068  1.0000
  H   H2232     1.0  0.44366  0.84794  0.68099  1.0000
  H   H2233     1.0  0.43486  0.87539  0.69288  1.0000
  H   H2234     1.0  0.48420  0.93204  0.66086  1.0000
  H   H2235     1.0  0.50863  0.94577  0.69138  1.0000
  H   H2236     1.0  0.50161  0.94255  0.73970  1.0000
  H   H2237     1.0  0.47033  0.92479  0.75734  1.0000
  H   H2238     1.0  0.44574  0.91070  0.72712  1.0000
  H   H2239     1.0  0.45674  0.95029  0.65954  1.0000
  H   H2240     1.0  0.45474  0.96972  0.62126  1.0000
  H   H2241     1.0  0.44333  0.95675  0.57917  1.0000
  H   H2242     1.0  0.43213  0.92404  0.57631  1.0000
  H   H2243     1.0  0.43252  0.90431  0.61529  1.0000
  H   H2244     1.0  0.65012  0.83904  0.59468  1.0000
  C   C2806     1.0  0.54838  0.96423  0.58855  1.0000
  C   C2807     1.0  0.54510  0.97060  0.61315  1.0000
  C   C2808     1.0  0.58370  0.97016  0.85666  1.0000
  C   C2809     1.0  0.42743  0.98056  0.53445  1.0000
  H   H2245     1.0  0.40982  0.97919  0.96593  1.0000
  C   C2810     1.0  0.39307  0.94786  0.56989  1.0000
  H   H2246     1.0  0.64777  0.75211  0.71611  1.0000
  H   H2247     1.0  0.33354  0.94158  0.71872  1.0000
  C   C2811     1.0  0.36316  0.93979  0.54864  1.0000
  H   H2248     1.0  0.39134  0.99157  0.88096  1.0000
  H   H2249     1.0  0.35355  0.94247  0.53430  1.0000
  Fe  Fe190     1.0  0.47681  0.99621  0.93638  1.0000
  H   H2250     1.0  0.61827  0.98129  0.88697  1.0000
  C   C2812     1.0  0.53993  0.99117  0.76669  1.0000
  H   H2251     1.0  0.58225  0.97153  0.95794  1.0000
  C   C2813     1.0  0.35510  0.98008  0.54699  1.0000
  C   C2814     1.0  0.51962  0.95950  0.93187  1.0000
  H   H2252     1.0  0.43693  0.95097  0.74149  1.0000
  C   C2815     1.0  0.64963  0.83280  0.74196  1.0000
  H   H2253     1.0  0.43733  0.94798  0.82574  1.0000
  C   C2816     1.0  0.55048  0.97851  0.93986  1.0000
  H   H2254     1.0  0.63448  0.95625  0.95544  1.0000
  C   C2817     1.0  0.55829  0.97596  0.56851  1.0000
  C   C2818     1.0  0.63579  0.78686  0.77546  1.0000
  H   H2255     1.0  0.56121  0.97102  0.54954  1.0000
  H   H2256     1.0  0.54324  0.95023  0.58499  1.0000
  H   H2257     1.0  0.53739  0.96152  0.62871  1.0000
  H   H2258     1.0  0.42764  0.96938  0.52240  1.0000
  H   H2259     1.0  0.62516  0.78592  0.81555  1.0000
  H   H2260     1.0  0.41104  0.96217  0.82862  1.0000
  C   C2819     1.0  0.48283  0.99251  0.84919  1.0000
  H   H2261     1.0  0.33294  0.97074  0.73533  1.0000
  H   H2262     1.0  0.63799  0.82096  0.74164  1.0000
  C   C2820     1.0  0.38700  0.93301  0.58722  1.0000
  C   C2821     1.0  0.37102  0.98438  0.52941  1.0000
  H   H2263     1.0  0.49284  0.99492  0.60813  1.0000
  C   C2822     1.0  0.60763  0.96283  0.95910  1.0000
  H   H2264     1.0  0.59749  0.98557  0.79373  1.0000
  C   C2823     1.0  0.36799  0.96976  0.61416  1.0000
  P   P94       1.0  0.58140  0.98685  0.90404  1.0000
  H   H2265     1.0  0.51645  0.94841  0.89364  1.0000
  H   H2266     1.0  0.45049  0.94239  0.78230  1.0000
  H   H2267     1.0  0.62343  0.79006  0.76764  1.0000
  C   C2824     1.0  0.41657  0.96006  0.80936  1.0000
  C   C2825     1.0  0.38384  0.98275  0.86667  1.0000
  C   C2826     1.0  0.35983  0.95640  0.85661  1.0000
  S   S379      1.0  0.65534  0.76358  0.65835  1.0000
  C   C2827     1.0  0.59465  0.97044  0.94664  1.0000
  C   C2828     1.0  0.37154  0.96481  0.76659  1.0000
  S   S380      1.0  0.58958  0.99068  0.50596  1.0000
  C   C2829     1.0  0.65045  0.78503  0.75822  1.0000
  H   H2268     1.0  0.52001  0.98442  0.87643  1.0000
  H   H2269     1.0  0.34344  0.91576  0.56417  1.0000
  C   C2830     1.0  0.61491  0.97594  0.90696  1.0000
  H   H2270     1.0  0.35850  0.94950  0.81617  1.0000
  C   C2831     1.0  0.37074  0.94749  0.75871  1.0000
  C   C2832     1.0  0.35720  0.93922  0.74131  1.0000
  C   C2833     1.0  0.34396  0.94790  0.73237  1.0000
  C   C2834     1.0  0.58579  0.98644  0.86885  1.0000
  C   C2835     1.0  0.59412  0.98575  0.81462  1.0000
  C   C2836     1.0  0.40921  0.96551  0.78627  1.0000
  C   C2837     1.0  0.52611  0.95659  0.90668  1.0000
  H   H2271     1.0  0.42222  0.99735  0.75467  1.0000
  C   C2838     1.0  0.43129  0.95357  0.76040  1.0000
  C   C2839     1.0  0.41664  0.96208  0.76175  1.0000
  C   C2840     1.0  0.63678  0.78451  0.80276  1.0000
  H   H2272     1.0  0.37186  0.94045  0.49715  1.0000
  H   H2273     1.0  0.65439  0.83408  0.50575  1.0000
  H   H2274     1.0  0.61163  0.75899  0.85079  1.0000
  C   C2841     1.0  0.38937  0.98566  0.83997  1.0000
  C   C2842     1.0  0.39217  0.96627  0.49539  1.0000
  C   C2843     1.0  0.65305  0.84222  0.76494  1.0000
  C   C2844     1.0  0.36911  0.92149  0.58517  1.0000
  C   C2845     1.0  0.53186  0.97037  0.94850  1.0000
  H   H2275     1.0  0.38486  0.98297  0.70137  1.0000
  H   H2276     1.0  0.52769  0.98064  0.76235  1.0000
  H   H2277     1.0  0.41312  0.99113  0.48594  1.0000
  H   H2278     1.0  0.34881  0.98978  0.84592  1.0000
  H   H2279     1.0  0.45747  0.98711  0.53850  1.0000
  H   H2280     1.0  0.55956  0.98736  0.95273  1.0000
  C   C2846     1.0  0.34190  0.99030  0.54673  1.0000
  S   S381      1.0  0.49603  0.99145  0.96801  1.0000
  C   C2847     1.0  0.65426  0.86671  0.58272  1.0000
  S   S382      1.0  0.51007  0.99415  0.71127  1.0000
  H   H2281     1.0  0.33733  0.99435  0.69089  1.0000
  H   H2282     1.0  0.40114  0.99679  0.83389  1.0000
  H   H2283     1.0  0.45224  0.99481  0.79330  1.0000
  C   C2848     1.0  0.55142  0.98874  0.61761  1.0000
  H   H2284     1.0  0.54871  0.99346  0.63681  1.0000
  H   H2285     1.0  0.53830  0.99700  0.83587  1.0000
  S   S383      1.0  0.45299  0.99504  0.96613  1.0000
  H   H2286     1.0  0.65858  0.83108  0.70162  1.0000
  C   C2849     1.0  0.39425  0.99490  0.62203  1.0000
  C   C2850     1.0  0.56454  0.99413  0.57280  1.0000
  H   H2287     1.0  0.79634  0.19045  0.28010  1.0000
  H   H2288     1.0  0.89748  0.14601  0.21452  1.0000
  C   C2851     1.0  0.74528  0.09674  0.37664  1.0000
  H   H2289     1.0  0.91621  0.18096  0.45444  1.0000
  P   P95       1.0  0.80672  0.00492  0.99282  1.0000
  H   H2290     1.0  0.76712  0.02325  0.23430  1.0000
  S   S384      1.0  0.70107  0.07753  0.24253  1.0000
  C   C2852     1.0  0.70630  0.00123  0.02988  1.0000
  Fe  Fe191     1.0  0.81779  0.12200  0.35396  1.0000
  S   S385      1.0  0.80639  0.14609  0.35019  1.0000
  S   S386      1.0  0.82565  0.11056  0.39268  1.0000
  Fe  Fe192     1.0  0.82006  0.11905  0.29364  1.0000
  S   S387      1.0  0.80945  0.14316  0.28651  1.0000
  S   S388      1.0  0.82750  0.10479  0.25834  1.0000
  Fe  Fe193     1.0  0.82914  0.15539  0.31785  1.0000
  S   S389      1.0  0.84805  0.18379  0.31259  1.0000
  Fe  Fe194     1.0  0.78810  0.13114  0.31910  1.0000
  S   S390      1.0  0.75648  0.12881  0.31760  1.0000
  S   S391      1.0  0.84122  0.13188  0.32284  1.0000
  S   S392      1.0  0.79797  0.10635  0.32510  1.0000
  H   H2291     1.0  0.91572  0.17836  0.12813  1.0000
  H   H2292     1.0  0.71287  0.01256  0.99044  1.0000
  P   P96       1.0  0.88632  0.15925  0.42261  1.0000
  H   H2293     1.0  0.86889  0.21548  0.42934  1.0000
  Fe  Fe195     1.0  0.95685  0.23407  0.32162  1.0000
  S   S393      1.0  0.93780  0.20570  0.32539  1.0000
  H   H2294     1.0  0.70858  0.02652  0.07235  1.0000
  C   C2853     1.0  0.73321  0.99948  0.05533  1.0000
  S   S394      1.0  0.90047  0.23961  0.06603  1.0000
  Fe  Fe196     1.0  0.81799  0.11768  0.10823  1.0000
  S   S395      1.0  0.84639  0.11215  0.11177  1.0000
  S   S396      1.0  0.80068  0.12150  0.14467  1.0000
  Fe  Fe197     1.0  0.82035  0.11546  0.04771  1.0000
  S   S397      1.0  0.84887  0.10963  0.04851  1.0000
  S   S398      1.0  0.80465  0.11745  0.01023  1.0000
  Fe  Fe198     1.0  0.83579  0.09073  0.08303  1.0000
  S   S399      1.0  0.83768  0.06199  0.09101  1.0000
  Fe  Fe199     1.0  0.85574  0.13191  0.07731  1.0000
  S   S400      1.0  0.88348  0.15422  0.07882  1.0000
  S   S401      1.0  0.80710  0.09570  0.08072  1.0000
  S   S402      1.0  0.82759  0.13830  0.07505  1.0000
  C   C2854     1.0  0.78962  0.00993  0.10389  1.0000
  C   C2855     1.0  0.78526  0.02609  0.09711  1.0000
  C   C2856     1.0  0.79967  0.04210  0.09300  1.0000
  C   C2857     1.0  0.81874  0.04219  0.09547  1.0000
  C   C2858     1.0  0.82306  0.02600  0.10204  1.0000
  C   C2859     1.0  0.80866  0.01006  0.10631  1.0000
  H   H2295     1.0  0.77063  0.02628  0.09526  1.0000
  H   H2296     1.0  0.79601  0.05438  0.08800  1.0000
  H   H2297     1.0  0.83768  0.02583  0.10418  1.0000
  H   H2298     1.0  0.86731  0.16195  0.18997  1.0000
  C   C2860     1.0  0.89616  0.21589  0.06986  1.0000
  C   C2861     1.0  0.87763  0.20518  0.06745  1.0000
  C   C2862     1.0  0.87348  0.18641  0.07012  1.0000
  C   C2863     1.0  0.88783  0.17796  0.07527  1.0000
  C   C2864     1.0  0.90636  0.18867  0.07764  1.0000
  C   C2865     1.0  0.91049  0.20746  0.07522  1.0000
  H   H2299     1.0  0.86635  0.21145  0.06344  1.0000
  H   H2300     1.0  0.85919  0.17848  0.06794  1.0000
  H   H2301     1.0  0.91770  0.18239  0.08110  1.0000
  H   H2302     1.0  0.92480  0.21539  0.07722  1.0000
  C   C2866     1.0  0.84303  0.17490  0.38853  1.0000
  C   C2867     1.0  0.90313  0.15322  0.14809  1.0000
  H   H2303     1.0  0.83408  0.02979  0.02392  1.0000
  H   H2304     1.0  0.90547  0.17827  0.26747  1.0000
  C   C2868     1.0  0.70643  0.06489  0.00287  1.0000
  H   H2305     1.0  0.75035  0.03218  0.27243  1.0000
  C   C2869     1.0  0.73952  0.12940  0.16000  1.0000
  C   C2870     1.0  0.73264  0.10331  0.11654  1.0000
  C   C2871     1.0  0.87295  0.18962  0.31677  1.0000
  C   C2872     1.0  0.88272  0.17696  0.32365  1.0000
  C   C2873     1.0  0.90252  0.18209  0.32620  1.0000
  C   C2874     1.0  0.91280  0.19996  0.32223  1.0000
  C   C2875     1.0  0.90298  0.21267  0.31569  1.0000
  C   C2876     1.0  0.88320  0.20752  0.31307  1.0000
  H   H2306     1.0  0.87507  0.16317  0.32660  1.0000
  H   H2307     1.0  0.90994  0.17212  0.33091  1.0000
  H   H2308     1.0  0.91060  0.22645  0.31252  1.0000
  H   H2309     1.0  0.87578  0.21748  0.30826  1.0000
  C   C2877     1.0  0.82199  0.11783  0.42475  1.0000
  C   C2878     1.0  0.80808  0.12677  0.43055  1.0000
  C   C2879     1.0  0.80452  0.13085  0.45676  1.0000
  H   H2310     1.0  0.84594  0.16573  0.11336  1.0000
  H   H2311     1.0  0.90399  0.14885  0.46971  1.0000
  C   C2880     1.0  0.83280  0.11376  0.44526  1.0000
  H   H2312     1.0  0.79963  0.12998  0.41500  1.0000
  C   C2881     1.0  0.69884  0.00584  0.10304  1.0000
  C   C2882     1.0  0.89104  0.15214  0.47598  1.0000
  H   H2313     1.0  0.84351  0.10679  0.44103  1.0000
  C   C2883     1.0  0.82076  0.11115  0.22714  1.0000
  C   C2884     1.0  0.80467  0.11757  0.22425  1.0000
  C   C2885     1.0  0.79870  0.12078  0.19891  1.0000
  C   C2886     1.0  0.80880  0.11772  0.17629  1.0000
  C   C2887     1.0  0.82491  0.11143  0.17935  1.0000
  C   C2888     1.0  0.83088  0.10825  0.20457  1.0000
  H   H2314     1.0  0.79650  0.11958  0.24147  1.0000
  H   H2315     1.0  0.78612  0.12549  0.19680  1.0000
  H   H2316     1.0  0.83267  0.10868  0.16239  1.0000
  H   H2317     1.0  0.84334  0.10337  0.20656  1.0000
  C   C2889     1.0  0.71615  0.09061  0.26508  1.0000
  C   C2890     1.0  0.70909  0.09760  0.28707  1.0000
  C   C2891     1.0  0.72162  0.10904  0.30322  1.0000
  C   C2892     1.0  0.74132  0.11327  0.29799  1.0000
  C   C2893     1.0  0.74841  0.10573  0.27656  1.0000
  C   C2894     1.0  0.73587  0.09464  0.26007  1.0000
  H   H2318     1.0  0.69397  0.09467  0.29117  1.0000
  H   H2319     1.0  0.71599  0.11486  0.31965  1.0000
  H   H2320     1.0  0.76351  0.10896  0.27216  1.0000
  H   H2321     1.0  0.74150  0.08937  0.24311  1.0000
  C   C2895     1.0  0.79659  0.06140  0.34780  1.0000
  C   C2896     1.0  0.82328  0.03617  0.01791  1.0000
  C   C2897     1.0  0.84488  0.20102  0.45301  1.0000
  H   H2322     1.0  0.69845  0.11688  0.11521  1.0000
  C   C2898     1.0  0.78203  0.05364  0.33152  1.0000
  H   H2323     1.0  0.80056  0.07732  0.22225  1.0000
  H   H2324     1.0  0.96456  0.19273  0.40057  1.0000
  C   C2899     1.0  0.81176  0.06273  0.01619  1.0000
  H   H2325     1.0  0.81119  0.06220  0.34191  1.0000
  H   H2326     1.0  0.75770  0.06393  0.28428  1.0000
  C   C2900     1.0  0.71935  0.08579  0.46685  1.0000
  H   H2327     1.0  0.71398  0.05022  0.19949  1.0000
  H   H2328     1.0  0.79854  0.03601  0.46204  1.0000
  H   H2329     1.0  0.94798  0.23120  0.12818  1.0000
  H   H2330     1.0  0.90030  0.14625  0.12993  1.0000
  C   C2901     1.0  0.69141  0.02367  0.33942  1.0000
  C   C2902     1.0  0.69050  0.03163  0.31469  1.0000
  C   C2903     1.0  0.70348  0.04768  0.30700  1.0000
  C   C2904     1.0  0.71727  0.05586  0.32416  1.0000
  C   C2905     1.0  0.71818  0.04794  0.34914  1.0000
  C   C2906     1.0  0.70521  0.03170  0.35658  1.0000
  P   P97       1.0  0.73467  0.05958  0.37217  1.0000
  C   C2907     1.0  0.72921  0.04795  0.40393  1.0000
  C   C2908     1.0  0.75891  0.06048  0.36225  1.0000
  C   C2909     1.0  0.76323  0.05307  0.33877  1.0000
  C   C2910     1.0  0.79236  0.06844  0.37147  1.0000
  C   C2911     1.0  0.77361  0.06793  0.37872  1.0000
  C   C2912     1.0  0.71409  0.05024  0.41993  1.0000
  P   P98       1.0  0.72651  0.10791  0.14981  1.0000
  H   H2331     1.0  0.83426  0.10106  0.99061  1.0000
  C   C2913     1.0  0.73371  0.02547  0.43569  1.0000
  C   C2914     1.0  0.73886  0.03530  0.41185  1.0000
  C   C2915     1.0  0.73039  0.08143  0.37447  1.0000
  H   H2332     1.0  0.93095  0.24243  0.16419  1.0000
  C   C2916     1.0  0.71175  0.08321  0.37370  1.0000
  C   C2917     1.0  0.69398  0.01659  0.14638  1.0000
  H   H2333     1.0  0.67940  0.02555  0.30180  1.0000
  H   H2334     1.0  0.70245  0.05405  0.28806  1.0000
  H   H2335     1.0  0.72679  0.06865  0.31830  1.0000
  H   H2336     1.0  0.70520  0.02536  0.37584  1.0000
  H   H2337     1.0  0.76201  0.02347  0.17254  1.0000
  H   H2338     1.0  0.80369  0.07472  0.38390  1.0000
  H   H2339     1.0  0.77064  0.07369  0.39694  1.0000
  C   C2918     1.0  0.87471  0.10360  0.38794  1.0000
  C   C2919     1.0  0.69176  0.11295  0.13456  1.0000
  H   H2340     1.0  0.74076  0.01531  0.44128  1.0000
  H   H2341     1.0  0.75012  0.03273  0.39954  1.0000
  H   H2342     1.0  0.70004  0.07170  0.37145  1.0000
  C   C2920     1.0  0.72387  0.08872  0.07563  1.0000
  C   C2921     1.0  0.74258  0.09471  0.06570  1.0000
  C   C2922     1.0  0.75645  0.10449  0.08144  1.0000
  C   C2923     1.0  0.71900  0.09267  0.10113  1.0000
  C   C2924     1.0  0.75145  0.09364  0.17755  1.0000
  C   C2925     1.0  0.75654  0.08074  0.19324  1.0000
  C   C2926     1.0  0.74311  0.06498  0.20094  1.0000
  C   C2927     1.0  0.72453  0.06218  0.19299  1.0000
  H   H2343     1.0  0.71307  0.08106  0.06359  1.0000
  H   H2344     1.0  0.74641  0.09173  0.04589  1.0000
  H   H2345     1.0  0.77103  0.10895  0.07388  1.0000
  H   H2346     1.0  0.70457  0.08736  0.10872  1.0000
  H   H2347     1.0  0.76217  0.10558  0.17126  1.0000
  H   H2348     1.0  0.77098  0.08307  0.19918  1.0000
  H   H2349     1.0  0.74704  0.05502  0.21320  1.0000
  C   C2928     1.0  0.95765  0.19631  0.00530  1.0000
  C   C2929     1.0  0.78769  0.16983  0.25258  1.0000
  C   C2930     1.0  0.92235  0.22337  0.24173  1.0000
  C   C2931     1.0  0.88196  0.20655  0.99417  1.0000
  H   H2350     1.0  0.67206  0.07661  0.45704  1.0000
  C   C2932     1.0  0.70256  0.08491  0.45398  1.0000
  H   H2351     1.0  0.77412  0.00727  0.39574  1.0000
  H   H2352     1.0  0.91296  0.17814  0.21290  1.0000
  H   H2353     1.0  0.89101  0.12995  0.17311  1.0000
  C   C2933     1.0  0.73274  0.09110  0.17004  1.0000
  H   H2354     1.0  0.78355  0.08612  0.26005  1.0000
  C   C2934     1.0  0.73812  0.01213  0.01072  1.0000
  C   C2935     1.0  0.70803  0.09987  0.37570  1.0000
  C   C2936     1.0  0.96625  0.21468  0.00354  1.0000
  C   C2937     1.0  0.68508  0.07748  0.46710  1.0000
  C   C2938     1.0  0.78727  0.02337  0.42716  1.0000
  C   C2939     1.0  0.79049  0.02380  0.45414  1.0000
  H   H2355     1.0  0.92867  0.21788  0.44058  1.0000
  C   C2940     1.0  0.71933  0.07518  0.17751  1.0000
  H   H2356     1.0  0.86335  0.21634  0.18099  1.0000
  C   C2941     1.0  0.80068  0.18385  0.26347  1.0000
  C   C2942     1.0  0.75157  0.10858  0.10690  1.0000
  C   C2943     1.0  0.86330  0.21189  0.44922  1.0000
  H   H2357     1.0  0.79407  0.01789  0.15573  1.0000
  H   H2358     1.0  0.69271  0.06706  0.00814  1.0000
  H   H2359     1.0  0.79293  0.03511  0.41446  1.0000
  P   P99       1.0  0.99120  0.22300  0.99448  1.0000
  C   C2944     1.0  0.87116  0.19900  0.38075  1.0000
  C   C2945     1.0  0.85181  0.19190  0.37801  1.0000
  C   C2946     1.0  0.85361  0.16489  0.40149  1.0000
  C   C2947     1.0  0.87299  0.17208  0.40484  1.0000
  C   C2948     1.0  0.88171  0.18925  0.39436  1.0000
  H   H2360     1.0  0.84666  0.15154  0.40897  1.0000
  H   H2361     1.0  0.78689  0.06122  0.99446  1.0000
  C   C2949     1.0  0.91967  0.16847  0.39131  1.0000
  C   C2950     1.0  0.93876  0.17689  0.38568  1.0000
  H   H2362     1.0  0.87805  0.21191  0.37172  1.0000
  H   H2363     1.0  0.70039  0.04497  0.14907  1.0000
  H   H2364     1.0  0.89667  0.19503  0.39612  1.0000
  C   C2951     1.0  0.74148  0.05868  0.98917  1.0000
  H   H2365     1.0  0.91135  0.16155  0.37590  1.0000
  H   H2366     1.0  0.74114  0.04884  0.02935  1.0000
  C   C2952     1.0  0.84857  0.06837  0.16246  1.0000
  C   C2953     1.0  0.85938  0.07398  0.18415  1.0000
  C   C2954     1.0  0.85107  0.07057  0.20960  1.0000
  C   C2955     1.0  0.83187  0.06181  0.21333  1.0000
  C   C2956     1.0  0.82081  0.05656  0.19157  1.0000
  C   C2957     1.0  0.82943  0.05947  0.16615  1.0000
  P   P100      1.0  0.79647  0.04394  0.19623  1.0000
  C   C2958     1.0  0.78254  0.04909  0.16983  1.0000
  C   C2959     1.0  0.79753  0.02107  0.19743  1.0000
  P   P101      1.0  0.89846  0.23112  0.46654  1.0000
  C   C2960     1.0  0.80160  0.01311  0.22094  1.0000
  Fe  Fe200     1.0  0.66973  0.06280  0.24683  1.0000
  C   C2961     1.0  0.88156  0.13738  0.40923  1.0000
  H   H2367     1.0  0.87991  0.09427  0.42656  1.0000
  C   C2962     1.0  0.78726  0.06610  0.15731  1.0000
  C   C2963     1.0  0.77598  0.07035  0.13774  1.0000
  C   C2964     1.0  0.75985  0.05773  0.13063  1.0000
  C   C2965     1.0  0.75491  0.04084  0.14320  1.0000
  C   C2966     1.0  0.76612  0.03656  0.16287  1.0000
  C   C2967     1.0  0.78543  0.04963  0.22583  1.0000
  C   C2968     1.0  0.78987  0.06731  0.23334  1.0000
  C   C2969     1.0  0.78005  0.07235  0.25455  1.0000
  C   C2970     1.0  0.76559  0.05977  0.26836  1.0000
  C   C2971     1.0  0.76135  0.04198  0.26146  1.0000
  C   C2972     1.0  0.77108  0.03693  0.24006  1.0000
  H   H2368     1.0  0.85498  0.07078  0.14268  1.0000
  H   H2369     1.0  0.87420  0.08088  0.18121  1.0000
  H   H2370     1.0  0.85941  0.07493  0.22646  1.0000
  H   H2371     1.0  0.82574  0.05924  0.23320  1.0000
  H   H2372     1.0  0.82143  0.05484  0.14909  1.0000
  C   C2973     1.0  0.72291  0.11496  0.37828  1.0000
  H   H2373     1.0  0.95008  0.19474  0.44489  1.0000
  C   C2974     1.0  0.77676  0.00775  0.41656  1.0000
  H   H2374     1.0  0.93997  0.21883  0.39413  1.0000
  H   H2375     1.0  0.70306  0.08997  0.43381  1.0000
  H   H2376     1.0  0.79946  0.07626  0.16286  1.0000
  H   H2377     1.0  0.77969  0.08356  0.12837  1.0000
  H   H2378     1.0  0.75118  0.06110  0.11543  1.0000
  H   H2379     1.0  0.70481  0.07293  0.17187  1.0000
  H   H2380     1.0  0.75987  0.09621  0.37593  1.0000
  C   C2975     1.0  0.91505  0.18076  0.17034  1.0000
  C   C2976     1.0  0.89792  0.14406  0.17239  1.0000
  C   C2977     1.0  0.79483  0.03629  0.99498  1.0000
  C   C2978     1.0  0.95870  0.19340  0.15118  1.0000
  C   C2979     1.0  0.97537  0.19488  0.13594  1.0000
  H   H2381     1.0  0.77912  0.01293  0.34104  1.0000
  H   H2382     1.0  0.76262  0.11583  0.11900  1.0000
  H   H2383     1.0  0.71012  0.05115  0.10188  1.0000
  C   C2980     1.0  0.88545  0.22457  0.99941  1.0000
  H   H2384     1.0  0.87167  0.09053  0.37984  1.0000
  C   C2981     1.0  0.87897  0.24572  0.22799  1.0000
  C   C2982     1.0  0.91173  0.17146  0.14708  1.0000
  H   H2385     1.0  0.75216  0.04676  0.32610  1.0000
  H   H2386     1.0  0.86493  0.15302  0.14381  1.0000
  C   C2983     1.0  0.74878  0.00822  0.34474  1.0000
  C   C2984     1.0  0.97196  0.22229  0.11551  1.0000
  C   C2985     1.0  0.90630  0.24141  0.38689  1.0000
  C   C2986     1.0  0.94847  0.20637  0.14862  1.0000
  H   H2387     1.0  0.84373  0.19931  0.36692  1.0000
  H   H2388     1.0  0.74648  0.14133  0.12063  1.0000
  C   C2987     1.0  0.70194  0.10791  0.15507  1.0000
  C   C2988     1.0  0.67281  0.11313  0.13898  1.0000
  H   H2389     1.0  0.71886  0.01594  0.28807  1.0000
  C   C2989     1.0  0.89960  0.24076  0.41309  1.0000
  H   H2390     1.0  0.80318  0.02032  0.23891  1.0000
  C   C2990     1.0  0.70584  0.03757  0.10979  1.0000
  H   H2391     1.0  0.78536  0.04819  0.31316  1.0000
  H   H2392     1.0  0.83692  0.06074  0.03536  1.0000
  C   C2991     1.0  0.70039  0.03410  0.13641  1.0000
  C   C2992     1.0  0.90151  0.15313  0.19568  1.0000
  H   H2393     1.0  0.77330  0.16550  0.26085  1.0000
  C   C2993     1.0  0.74770  0.14325  0.14152  1.0000
  H   H2394     1.0  0.82841  0.18709  0.12907  1.0000
  C   C2994     1.0  0.79353  0.16081  0.23192  1.0000
  S   S403      1.0  0.97686  0.24545  0.35320  1.0000
  H   H2395     1.0  0.71443  0.02018  0.46977  1.0000
  C   C2995     1.0  0.67441  0.10465  0.18484  1.0000
  C   C2996     1.0  0.86584  0.22111  0.20053  1.0000
  C   C2997     1.0  0.85910  0.16786  0.17688  1.0000
  H   H2396     1.0  0.75099  0.15160  0.21623  1.0000
  H   H2397     1.0  0.87714  0.23950  0.26969  1.0000
  C   C2998     1.0  0.91009  0.17141  0.19469  1.0000
  H   H2398     1.0  0.80212  0.06954  0.44864  1.0000
  C   C2999     1.0  0.74073  0.13257  0.18699  1.0000
  H   H2399     1.0  0.73422  0.12215  0.20163  1.0000
  C   C3000     1.0  0.95257  0.21611  0.23851  1.0000
  H   H2400     1.0  0.70564  0.05909  0.41392  1.0000
  H   H2401     1.0  0.76420  0.17039  0.13565  1.0000
  C   C3001     1.0  0.69325  0.10421  0.18040  1.0000
  H   H2402     1.0  0.95987  0.20642  0.20169  1.0000
  S   S404      1.0  0.66582  0.03319  0.24763  1.0000
  C   C3002     1.0  0.75760  0.15984  0.14999  1.0000
  C   C3003     1.0  0.70490  0.02351  0.09307  1.0000
  H   H2403     1.0  0.94146  0.22580  0.27326  1.0000
  C   C3004     1.0  0.94926  0.21109  0.21259  1.0000
  C   C3005     1.0  0.81949  0.18892  0.25365  1.0000
  H   H2404     1.0  0.82807  0.16935  0.38624  1.0000
  S   S405      1.0  0.67661  0.02787  0.98955  1.0000
  H   H2405     1.0  0.81324  0.07647  0.02110  1.0000
  C   C3006     1.0  0.66460  0.04928  0.11466  1.0000
  C   C3007     1.0  0.86476  0.21647  0.24788  1.0000
  H   H2406     1.0  0.70103  0.10109  0.19685  1.0000
  C   C3008     1.0  0.71883  0.02812  0.45168  1.0000
  H   H2407     1.0  0.78338  0.02996  0.98289  1.0000
  H   H2408     1.0  0.66785  0.10177  0.20449  1.0000
  P   P102      1.0  0.92698  0.20418  0.16858  1.0000
  C   C3009     1.0  0.93232  0.21200  0.20117  1.0000
  C   C3010     1.0  0.93905  0.22212  0.25310  1.0000
  H   H2409     1.0  0.95377  0.18211  0.16494  1.0000
  H   H2410     1.0  0.73276  0.09195  0.45658  1.0000
  C   C3011     1.0  0.75894  0.16283  0.17689  1.0000
  C   C3012     1.0  0.75031  0.14925  0.19536  1.0000
  C   C3013     1.0  0.70904  0.04048  0.44369  1.0000
  H   H2411     1.0  0.91223  0.19720  0.02065  1.0000
  H   H2412     1.0  0.89051  0.19489  0.14153  1.0000
  C   C3014     1.0  0.87957  0.15756  0.45745  1.0000
  H   H2413     1.0  0.92714  0.22963  0.01793  1.0000
  H   H2414     1.0  0.78370  0.14949  0.22420  1.0000
  C   C3015     1.0  0.70861  0.01990  0.24997  1.0000
  H   H2415     1.0  0.76657  0.17568  0.18342  1.0000
  C   C3016     1.0  0.92055  0.23315  0.38013  1.0000
  C   C3017     1.0  0.91894  0.21830  0.21589  1.0000
  H   H2416     1.0  0.90574  0.21907  0.20760  1.0000
  C   C3018     1.0  0.82507  0.05385  0.02428  1.0000
  H   H2417     1.0  0.74756  0.01814  0.99418  1.0000
  C   C3019     1.0  0.91238  0.21724  0.15414  1.0000
  C   C3020     1.0  0.89532  0.20915  0.14261  1.0000
  C   C3021     1.0  0.90718  0.23184  0.43270  1.0000
  C   C3022     1.0  0.91133  0.16942  0.41632  1.0000
  C   C3023     1.0  0.84692  0.16981  0.13353  1.0000
  H   H2418     1.0  0.97713  0.23364  0.10199  1.0000
  H   H2419     1.0  0.82924  0.19944  0.26306  1.0000
  C   C3024     1.0  0.69339  0.00249  0.12985  1.0000
  C   C3025     1.0  0.88426  0.21957  0.13176  1.0000
  C   C3026     1.0  0.81501  0.12634  0.47737  1.0000
  H   H2420     1.0  0.87141  0.21329  0.12218  1.0000
  C   C3027     1.0  0.92723  0.20207  0.01567  1.0000
  C   C3028     1.0  0.84943  0.18011  0.18595  1.0000
  H   H2421     1.0  0.93162  0.17591  0.01300  1.0000
  H   H2422     1.0  0.79328  0.13719  0.46116  1.0000
  C   C3029     1.0  0.81230  0.16584  0.22203  1.0000
  C   C3030     1.0  0.80800  0.02715  0.00344  1.0000
  C   C3031     1.0  0.82545  0.18011  0.23259  1.0000
  S   S406      1.0  0.66834  0.04552  0.06106  1.0000
  H   H2423     1.0  0.86142  0.20779  0.26541  1.0000
  C   C3032     1.0  0.87492  0.23908  0.20310  1.0000
  C   C3033     1.0  0.74149  0.11337  0.37880  1.0000
  H   H2424     1.0  0.81656  0.15829  0.20649  1.0000
  C   C3034     1.0  0.71601  0.05739  0.02152  1.0000
  H   H2425     1.0  0.84104  0.14869  0.23971  1.0000
  C   C3035     1.0  0.86261  0.16126  0.46635  1.0000
  C   C3036     1.0  0.93822  0.19007  0.01138  1.0000
  H   H2426     1.0  0.87605  0.14630  0.37012  1.0000
  H   H2427     1.0  0.85925  0.13175  0.26519  1.0000
  C   C3037     1.0  0.87423  0.21776  0.47091  1.0000
  C   C3038     1.0  0.86539  0.14563  0.25986  1.0000
  C   C3039     1.0  0.85511  0.15532  0.24550  1.0000
  C   C3040     1.0  0.93566  0.22033  0.01416  1.0000
  P   P103      1.0  0.84988  0.18602  0.22010  1.0000
  C   C3041     1.0  0.98201  0.20935  0.11810  1.0000
  C   C3042     1.0  0.86300  0.17340  0.23884  1.0000
  C   C3043     1.0  0.92858  0.22476  0.39957  1.0000
  H   H2428     1.0  0.70961  0.05363  0.04109  1.0000
  H   H2429     1.0  0.68891  0.01393  0.16672  1.0000
  C   C3044     1.0  0.85778  0.16272  0.15077  1.0000
  H   H2430     1.0  0.83659  0.19647  0.43617  1.0000
  H   H2431     1.0  0.74245  0.03102  0.13759  1.0000
  H   H2432     1.0  0.72013  0.12796  0.37909  1.0000
  C   C3045     1.0  0.86055  0.20962  0.22295  1.0000
  H   H2433     1.0  0.85314  0.16506  0.45289  1.0000
  H   H2434     1.0  0.89116  0.14641  0.27954  1.0000
  H   H2435     1.0  0.94491  0.17654  0.36604  1.0000
  C   C3046     1.0  0.88348  0.15386  0.26783  1.0000
  C   C3047     1.0  0.79645  0.01174  0.17421  1.0000
  C   C3048     1.0  0.87386  0.23441  0.25037  1.0000
  H   H2436     1.0  0.87683  0.19657  0.00992  1.0000
  C   C3049     1.0  0.83709  0.18187  0.14242  1.0000
  C   C3050     1.0  0.94979  0.18611  0.40509  1.0000
  C   C3051     1.0  0.87710  0.13513  0.38270  1.0000
  H   H2437     1.0  0.66492  0.11674  0.12299  1.0000
  H   H2438     1.0  0.83014  0.19592  0.17539  1.0000
  H   H2439     1.0  0.98422  0.23118  0.04923  1.0000
  C   C3052     1.0  0.88140  0.18143  0.24643  1.0000
  H   H2440     1.0  0.88800  0.19520  0.24140  1.0000
  H   H2441     1.0  0.86986  0.11661  0.35187  1.0000
  C   C3053     1.0  0.92239  0.17920  0.43547  1.0000
  H   H2442     1.0  0.69715  0.04233  0.45542  1.0000
  C   C3054     1.0  0.71857  0.00893  0.00857  1.0000
  H   H2443     1.0  0.66615  0.06024  0.37676  1.0000
  C   C3055     1.0  0.89152  0.17176  0.26102  1.0000
  C   C3056     1.0  0.83819  0.18688  0.16859  1.0000
  C   C3057     1.0  0.78319  0.00855  0.47058  1.0000
  C   C3058     1.0  0.91792  0.23587  0.15517  1.0000
  C   C3059     1.0  0.77174  0.06448  0.45313  1.0000
  C   C3060     1.0  0.87371  0.11831  0.37215  1.0000
  C   C3061     1.0  0.95508  0.22661  0.00816  1.0000
  H   H2444     1.0  0.88286  0.22856  0.01907  1.0000
  H   H2445     1.0  0.68092  0.01161  0.34578  1.0000
  C   C3062     1.0  0.82963  0.11831  0.47131  1.0000
  H   H2446     1.0  0.69364  0.10110  0.37479  1.0000
  C   C3063     1.0  0.92200  0.22416  0.42580  1.0000
  C   C3064     1.0  0.71157  0.00947  0.27151  1.0000
  H   H2447     1.0  0.96579  0.18672  0.00206  1.0000
  H   H2448     1.0  0.96559  0.21532  0.24741  1.0000
  H   H2449     1.0  0.88604  0.12374  0.44535  1.0000
  C   C3065     1.0  0.87930  0.10571  0.41426  1.0000
  H   H2450     1.0  0.91200  0.22815  0.25310  1.0000
  H   H2451     1.0  0.74893  0.01565  0.36232  1.0000
  H   H2452     1.0  0.67344  0.06259  0.11075  1.0000
  H   H2453     1.0  0.76918  0.05601  0.43656  1.0000
  C   C3066     1.0  0.73364  0.05450  0.01479  1.0000
  H   H2454     1.0  0.98314  0.18481  0.13798  1.0000
  C   C3067     1.0  0.94162  0.18724  0.43001  1.0000
  H   H2455     1.0  0.75309  0.12519  0.37962  1.0000
  H   H2456     1.0  0.76063  0.01019  0.03602  1.0000
  C   C3068     1.0  0.95530  0.22088  0.13069  1.0000
  C   C3069     1.0  0.79674  0.05401  0.00137  1.0000
  C   C3070     1.0  0.88274  0.12253  0.42489  1.0000
  S   S407      1.0  0.97904  0.24473  0.28902  1.0000
  C   C3071     1.0  0.79028  0.07185  0.46014  1.0000
  H   H2457     1.0  0.96134  0.24078  0.00691  1.0000
  C   C3072     1.0  0.74545  0.00758  0.03419  1.0000
  H   H2458     1.0  0.92551  0.23327  0.35985  1.0000
  C   C3073     1.0  0.75655  0.06784  0.46774  1.0000
  C   C3074     1.0  0.73148  0.99961  0.33465  1.0000
  H   H2459     1.0  0.71363  0.03428  0.24994  1.0000
  H   H2460     1.0  0.74230  0.06181  0.46230  1.0000
  C   C3075     1.0  0.76573  0.00664  0.33280  1.0000
  C   C3076     1.0  0.69855  0.01185  0.22886  1.0000
  S   S408      1.0  0.66103  0.04318  0.42836  1.0000
  H   H2461     1.0  0.71862  0.00101  0.34444  1.0000
  C   C3077     1.0  0.89016  0.23809  0.13216  1.0000
  H   H2462     1.0  0.81065  0.00299  0.05001  1.0000
  H   H2463     1.0  0.97713  0.24518  0.45164  1.0000
  H   H2464     1.0  0.69577  0.01996  0.21255  1.0000
  C   C3078     1.0  0.66410  0.10887  0.16408  1.0000
  H   H2465     1.0  0.69124  0.99949  0.02802  1.0000
  H   H2466     1.0  0.66356  0.05182  0.15694  1.0000
  C   C3079     1.0  0.90694  0.24623  0.14400  1.0000
  H   H2467     1.0  0.81233  0.99793  0.11204  1.0000
  Fe  Fe201     1.0  0.66023  0.99934  0.98950  1.0000
  H   H2468     1.0  0.87896  0.24786  0.18575  1.0000
  H   H2469     1.0  0.88199  0.24614  0.12264  1.0000
  H   H2470     1.0  0.88859  0.24728  0.41812  1.0000
  C   C3080     1.0  0.65935  0.03806  0.09356  1.0000
  C   C3081     1.0  0.89239  0.23748  0.97932  1.0000
  H   H2471     1.0  0.75505  0.05626  0.98424  1.0000
  C   C3082     1.0  0.81347  0.11445  0.97811  1.0000
  C   C3083     1.0  0.72800  0.04725  0.53316  1.0000
  C   C3084     1.0  0.72822  0.02589  0.83865  1.0000
  C   C3085     1.0  0.79884  0.99865  0.67958  1.0000
  H   H2472     1.0  0.69396  0.00797  0.69720  1.0000
  S   S409      1.0  0.89676  0.24007  0.56139  1.0000
  C   C3086     1.0  0.70806  0.06424  0.87292  1.0000
  S   S410      1.0  0.69884  0.09840  0.74728  1.0000
  S   S411      1.0  0.67519  0.04767  0.75094  1.0000
  Fe  Fe202     1.0  0.82469  0.11738  0.85688  1.0000
  S   S412      1.0  0.81150  0.14029  0.85921  1.0000
  S   S413      1.0  0.83220  0.10364  0.89392  1.0000
  Fe  Fe203     1.0  0.82517  0.11951  0.79574  1.0000
  S   S414      1.0  0.81193  0.14245  0.79501  1.0000
  S   S415      1.0  0.83300  0.10833  0.75741  1.0000
  Fe  Fe204     1.0  0.83256  0.15310  0.82630  1.0000
  S   S416      1.0  0.84986  0.18201  0.82679  1.0000
  Fe  Fe205     1.0  0.79259  0.12683  0.82769  1.0000
  S   S417      1.0  0.76050  0.11931  0.83401  1.0000
  S   S418      1.0  0.84674  0.13081  0.82546  1.0000
  S   S419      1.0  0.80492  0.10328  0.82695  1.0000
  C   C3087     1.0  0.92576  0.23113  0.65054  1.0000
  H   H2473     1.0  0.75842  0.05869  0.59427  1.0000
  H   H2474     1.0  0.70624  0.07423  0.96268  1.0000
  H   H2475     1.0  0.83797  0.11493  0.48686  1.0000
  Fe  Fe206     1.0  0.95558  0.23917  0.81344  1.0000
  S   S420      1.0  0.93991  0.21000  0.80989  1.0000
  H   H2476     1.0  0.92181  0.21394  0.70387  1.0000
  H   H2477     1.0  0.67077  0.06554  0.50349  1.0000
  C   C3088     1.0  0.85739  0.15981  0.49315  1.0000
  Fe  Fe207     1.0  0.82081  0.12297  0.60804  1.0000
  S   S421      1.0  0.84818  0.11536  0.61064  1.0000
  S   S422      1.0  0.80551  0.12825  0.64537  1.0000
  Fe  Fe208     1.0  0.82267  0.12271  0.54706  1.0000
  S   S423      1.0  0.84992  0.11441  0.54676  1.0000
  S   S424      1.0  0.80860  0.12997  0.51040  1.0000
  Fe  Fe209     1.0  0.83604  0.09537  0.58072  1.0000
  S   S425      1.0  0.83748  0.06644  0.58663  1.0000
  Fe  Fe210     1.0  0.85851  0.13536  0.57697  1.0000
  S   S426      1.0  0.88700  0.15615  0.57728  1.0000
  S   S427      1.0  0.80821  0.10243  0.57899  1.0000
  S   S428      1.0  0.83170  0.14413  0.57608  1.0000
  C   C3089     1.0  0.78882  0.01619  0.60824  1.0000
  C   C3090     1.0  0.78506  0.03301  0.60591  1.0000
  C   C3091     1.0  0.79969  0.04849  0.59941  1.0000
  C   C3092     1.0  0.81841  0.04741  0.59541  1.0000
  C   C3093     1.0  0.82221  0.03063  0.59831  1.0000
  C   C3094     1.0  0.80758  0.01517  0.60483  1.0000
  H   H2478     1.0  0.77074  0.03404  0.60925  1.0000
  H   H2479     1.0  0.79648  0.06125  0.59738  1.0000
  H   H2480     1.0  0.83660  0.02957  0.59540  1.0000
  H   H2481     1.0  0.84406  0.16221  0.49984  1.0000
  C   C3095     1.0  0.89438  0.21679  0.56594  1.0000
  C   C3096     1.0  0.87630  0.20497  0.56551  1.0000
  C   C3097     1.0  0.87380  0.18645  0.56895  1.0000
  C   C3098     1.0  0.88937  0.17945  0.57305  1.0000
  C   C3099     1.0  0.90742  0.19127  0.57374  1.0000
  C   C3100     1.0  0.90990  0.20979  0.57032  1.0000
  H   H2482     1.0  0.86413  0.21020  0.56252  1.0000
  H   H2483     1.0  0.85982  0.17765  0.56837  1.0000
  H   H2484     1.0  0.91962  0.18611  0.57665  1.0000
  H   H2485     1.0  0.92385  0.21859  0.57101  1.0000
  C   C3101     1.0  0.94211  0.22386  0.51013  1.0000
  H   H2486     1.0  0.70663  0.07144  0.85487  1.0000
  C   C3102     1.0  0.90365  0.23962  0.88416  1.0000
  H   H2487     1.0  0.81086  0.00245  0.60683  1.0000
  H   H2488     1.0  0.96983  0.19991  0.90112  1.0000
  C   C3103     1.0  0.89528  0.23239  0.95372  1.0000
  H   H2489     1.0  0.87696  0.21084  0.62201  1.0000
  C   C3104     1.0  0.93037  0.23169  0.49535  1.0000
  C   C3105     1.0  0.87494  0.18921  0.82248  1.0000
  C   C3106     1.0  0.88629  0.17744  0.81836  1.0000
  C   C3107     1.0  0.90615  0.18393  0.81486  1.0000
  C   C3108     1.0  0.91488  0.20224  0.81530  1.0000
  C   C3109     1.0  0.90350  0.21392  0.81976  1.0000
  C   C3110     1.0  0.88371  0.20745  0.82301  1.0000
  H   H2490     1.0  0.87979  0.16335  0.81780  1.0000
  H   H2491     1.0  0.91476  0.17471  0.81176  1.0000
  H   H2492     1.0  0.90984  0.22797  0.82054  1.0000
  H   H2493     1.0  0.87507  0.21668  0.82558  1.0000
  C   C3111     1.0  0.82532  0.10859  0.92614  1.0000
  C   C3112     1.0  0.83353  0.10265  0.94812  1.0000
  C   C3113     1.0  0.91899  0.20632  0.91078  1.0000
  H   H2494     1.0  0.87993  0.24679  0.50889  1.0000
  C   C3114     1.0  0.80532  0.12043  0.95612  1.0000
  C   C3115     1.0  0.81135  0.11770  0.93031  1.0000
  H   H2495     1.0  0.84439  0.09563  0.94514  1.0000
  C   C3116     1.0  0.95567  0.20167  0.90386  1.0000
  H   H2496     1.0  0.79427  0.12720  0.95908  1.0000
  H   H2497     1.0  0.80493  0.12234  0.91365  1.0000
  C   C3117     1.0  0.82542  0.11454  0.72661  1.0000
  C   C3118     1.0  0.81205  0.12454  0.72451  1.0000
  C   C3119     1.0  0.80614  0.12878  0.69954  1.0000
  C   C3120     1.0  0.81360  0.12316  0.67649  1.0000
  C   C3121     1.0  0.82699  0.11324  0.67871  1.0000
  C   C3122     1.0  0.83280  0.10890  0.70358  1.0000
  H   H2498     1.0  0.80604  0.12876  0.74207  1.0000
  H   H2499     1.0  0.79565  0.13633  0.69812  1.0000
  H   H2500     1.0  0.83263  0.10852  0.66138  1.0000
  H   H2501     1.0  0.84300  0.10104  0.70497  1.0000
  C   C3123     1.0  0.71620  0.10262  0.77139  1.0000
  C   C3124     1.0  0.71170  0.09760  0.79795  1.0000
  C   C3125     1.0  0.72551  0.10276  0.81680  1.0000
  C   C3126     1.0  0.74411  0.11223  0.80924  1.0000
  C   C3127     1.0  0.74882  0.11660  0.78255  1.0000
  C   C3128     1.0  0.73480  0.11217  0.76382  1.0000
  H   H2502     1.0  0.69738  0.09054  0.80411  1.0000
  H   H2503     1.0  0.72168  0.09981  0.83746  1.0000
  H   H2504     1.0  0.76303  0.12404  0.77647  1.0000
  H   H2505     1.0  0.73837  0.11623  0.74335  1.0000
  C   C3129     1.0  0.71915  0.02184  0.81486  1.0000
  H   H2506     1.0  0.97854  0.23012  0.58377  1.0000
  C   C3130     1.0  0.84079  0.19386  0.76278  1.0000
  C   C3131     1.0  0.87735  0.17158  0.74200  1.0000
  C   C3132     1.0  0.88459  0.22130  0.70544  1.0000
  H   H2507     1.0  0.85062  0.16443  0.62045  1.0000
  C   C3133     1.0  0.89709  0.17600  0.74409  1.0000
  P   P104      1.0  0.89480  0.20784  0.91485  1.0000
  C   C3134     1.0  0.87116  0.22202  0.88358  1.0000
  H   H2508     1.0  0.80886  0.06942  0.93299  1.0000
  C   C3135     1.0  0.84904  0.16440  0.91583  1.0000
  Fe  Fe211     1.0  0.67220  0.07558  0.74835  1.0000
  C   C3136     1.0  0.70900  0.01260  0.70038  1.0000
  C   C3137     1.0  0.76075  0.10238  0.90890  1.0000
  C   C3138     1.0  0.73127  0.07570  0.72832  1.0000
  C   C3139     1.0  0.75063  0.08223  0.73178  1.0000
  C   C3140     1.0  0.76232  0.09210  0.71137  1.0000
  C   C3141     1.0  0.75464  0.09559  0.68756  1.0000
  C   C3142     1.0  0.73517  0.08894  0.68397  1.0000
  C   C3143     1.0  0.72357  0.07904  0.70459  1.0000
  P   P105      1.0  0.72473  0.09298  0.65348  1.0000
  C   C3144     1.0  0.70426  0.10119  0.66165  1.0000
  C   C3145     1.0  0.74166  0.10993  0.63381  1.0000
  C   C3146     1.0  0.74531  0.12781  0.64049  1.0000
  C   C3147     1.0  0.75923  0.14084  0.62636  1.0000
  C   C3148     1.0  0.76957  0.13613  0.60542  1.0000
  C   C3149     1.0  0.76599  0.11840  0.59859  1.0000
  C   C3150     1.0  0.75226  0.10530  0.61287  1.0000
  C   C3151     1.0  0.68763  0.09615  0.64762  1.0000
  H   H2509     1.0  0.94551  0.19982  0.52914  1.0000
  C   C3152     1.0  0.76088  0.13455  0.52212  1.0000
  C   C3153     1.0  0.68865  0.11818  0.69008  1.0000
  C   C3154     1.0  0.70460  0.11230  0.68293  1.0000
  C   C3155     1.0  0.71755  0.07274  0.63576  1.0000
  C   C3156     1.0  0.71614  0.05602  0.64818  1.0000
  C   C3157     1.0  0.70937  0.04049  0.63468  1.0000
  C   C3158     1.0  0.70553  0.05804  0.59616  1.0000
  C   C3159     1.0  0.71236  0.07360  0.60953  1.0000
  H   H2510     1.0  0.72195  0.06865  0.74431  1.0000
  H   H2511     1.0  0.75645  0.08014  0.75056  1.0000
  H   H2512     1.0  0.77731  0.09729  0.71412  1.0000
  H   H2513     1.0  0.76400  0.10352  0.67223  1.0000
  H   H2514     1.0  0.70841  0.07427  0.70257  1.0000
  H   H2515     1.0  0.73782  0.13170  0.65704  1.0000
  H   H2516     1.0  0.76233  0.15453  0.63206  1.0000
  H   H2517     1.0  0.78066  0.14615  0.59486  1.0000
  H   H2518     1.0  0.77405  0.11485  0.58234  1.0000
  H   H2519     1.0  0.75023  0.09160  0.60779  1.0000
  H   H2520     1.0  0.68659  0.08736  0.63151  1.0000
  C   C3160     1.0  0.86259  0.18035  0.69100  1.0000
  C   C3161     1.0  0.88064  0.20917  0.72728  1.0000
  H   H2521     1.0  0.74280  0.03537  0.92064  1.0000
  H   H2522     1.0  0.71696  0.11599  0.69469  1.0000
  H   H2523     1.0  0.71973  0.05474  0.66841  1.0000
  H   H2524     1.0  0.70768  0.02763  0.64460  1.0000
  H   H2525     1.0  0.71291  0.08629  0.59978  1.0000
  C   C3162     1.0  0.90584  0.16432  0.75698  1.0000
  C   C3163     1.0  0.89500  0.14792  0.76735  1.0000
  H   H2526     1.0  0.92099  0.16814  0.75936  1.0000
  H   H2527     1.0  0.90167  0.13891  0.77767  1.0000
  H   H2528     1.0  0.86709  0.13045  0.77270  1.0000
  H   H2529     1.0  0.78290  0.08365  0.94129  1.0000
  H   H2530     1.0  0.68837  0.02485  0.90568  1.0000
  C   C3164     1.0  0.82283  0.19203  0.77471  1.0000
  C   C3165     1.0  0.93599  0.21275  0.70706  1.0000
  C   C3166     1.0  0.94666  0.19921  0.92889  1.0000
  C   C3167     1.0  0.73561  0.12279  0.55490  1.0000
  C   C3168     1.0  0.84802  0.18336  0.64940  1.0000
  C   C3169     1.0  0.72753  0.05338  0.80228  1.0000
  C   C3170     1.0  0.69673  0.04703  0.87778  1.0000
  C   C3171     1.0  0.69780  0.03790  0.90148  1.0000
  C   C3172     1.0  0.71073  0.04571  0.91993  1.0000
  C   C3173     1.0  0.72305  0.06262  0.91454  1.0000
  C   C3174     1.0  0.72137  0.07198  0.89099  1.0000
  P   P106      1.0  0.74161  0.07120  0.93693  1.0000
  H   H2531     1.0  0.84225  0.19734  0.51993  1.0000
  C   C3175     1.0  0.76077  0.06074  0.93118  1.0000
  C   C3176     1.0  0.75705  0.04303  0.92352  1.0000
  C   C3177     1.0  0.77186  0.03495  0.91923  1.0000
  C   C3178     1.0  0.79052  0.04445  0.92266  1.0000
  C   C3179     1.0  0.79436  0.06197  0.93061  1.0000
  C   C3180     1.0  0.77956  0.07007  0.93503  1.0000
  C   C3181     1.0  0.68435  0.07113  0.49321  1.0000
  H   H2532     1.0  0.75122  0.00676  0.67819  1.0000
  C   C3182     1.0  0.75043  0.09508  0.93220  1.0000
  H   H2533     1.0  0.77028  0.03528  0.53284  1.0000
  H   H2534     1.0  0.71133  0.03841  0.93821  1.0000
  H   H2535     1.0  0.73014  0.08520  0.88629  1.0000
  H   H2536     1.0  0.91489  0.18136  0.51515  1.0000
  C   C3183     1.0  0.76228  0.99995  0.52033  1.0000
  H   H2537     1.0  0.80203  0.03831  0.91890  1.0000
  C   C3184     1.0  0.65977  0.03169  0.64963  1.0000
  C   C3185     1.0  0.88516  0.20141  0.96870  1.0000
  C   C3186     1.0  0.67170  0.10206  0.65483  1.0000
  C   C3187     1.0  0.89132  0.21430  0.94809  1.0000
  H   H2538     1.0  0.76383  0.09389  0.89380  1.0000
  C   C3188     1.0  0.73688  0.04352  0.84410  1.0000
  C   C3189     1.0  0.73649  0.05727  0.82595  1.0000
  H   H2539     1.0  0.74375  0.04654  0.86254  1.0000
  H   H2540     1.0  0.74303  0.07099  0.83029  1.0000
  H   H2541     1.0  0.72711  0.06418  0.78856  1.0000
  C   C3190     1.0  0.91027  0.14891  0.68940  1.0000
  C   C3191     1.0  0.90347  0.13940  0.66742  1.0000
  C   C3192     1.0  0.90625  0.14789  0.64244  1.0000
  C   C3193     1.0  0.91566  0.16593  0.63945  1.0000
  C   C3194     1.0  0.92246  0.17564  0.66143  1.0000
  C   C3195     1.0  0.91976  0.16696  0.68645  1.0000
  P   P107      1.0  0.93513  0.19884  0.65713  1.0000
  C   C3196     1.0  0.94616  0.20631  0.68741  1.0000
  C   C3197     1.0  0.95966  0.21651  0.61555  1.0000
  C   C3198     1.0  0.97387  0.21795  0.59586  1.0000
  C   C3199     1.0  0.94389  0.21729  0.73131  1.0000
  C   C3200     1.0  0.96203  0.21557  0.73608  1.0000
  C   C3201     1.0  0.97237  0.20943  0.71653  1.0000
  C   C3202     1.0  0.96446  0.20472  0.69231  1.0000
  H   H2542     1.0  0.90799  0.14232  0.70879  1.0000
  H   H2543     1.0  0.89591  0.12547  0.66974  1.0000
  H   H2544     1.0  0.90084  0.14058  0.62535  1.0000
  H   H2545     1.0  0.82138  0.19886  0.79259  1.0000
  H   H2546     1.0  0.92502  0.17399  0.70370  1.0000
  H   H2547     1.0  0.95366  0.22770  0.61813  1.0000
  C   C3203     1.0  0.91475  0.24222  0.64171  1.0000
  H   H2548     1.0  0.96793  0.21883  0.75511  1.0000
  H   H2549     1.0  0.71622  0.01062  0.91318  1.0000
  H   H2550     1.0  0.97254  0.19962  0.67768  1.0000
  H   H2551     1.0  0.93492  0.24579  0.49016  1.0000
  H   H2552     1.0  0.75139  0.13379  0.96250  1.0000
  C   C3204     1.0  0.82900  0.02260  0.94936  1.0000
  C   C3205     1.0  0.79224  0.00988  0.72990  1.0000
  C   C3206     1.0  0.91302  0.22132  0.48726  1.0000
  H   H2553     1.0  0.78143  0.09312  0.51444  1.0000
  C   C3207     1.0  0.83642  0.02384  0.92343  1.0000
  H   H2554     1.0  0.68679  0.04096  0.86341  1.0000
  C   C3208     1.0  0.74797  0.02522  0.70803  1.0000
  H   H2555     1.0  0.90062  0.24261  0.93843  1.0000
  P   P108      1.0  0.77310  0.03462  0.71125  1.0000
  C   C3209     1.0  0.77701  0.04473  0.74283  1.0000
  C   C3210     1.0  0.78556  0.01742  0.70791  1.0000
  C   C3211     1.0  0.89627  0.23845  0.70774  1.0000
  H   H2556     1.0  0.76674  0.11620  0.49465  1.0000
  C   C3212     1.0  0.90053  0.23167  0.75342  1.0000
  C   C3213     1.0  0.92820  0.20883  0.88575  1.0000
  C   C3214     1.0  0.79358  0.08205  0.48231  1.0000
  C   C3215     1.0  0.78786  0.06233  0.74472  1.0000
  C   C3216     1.0  0.79014  0.07004  0.76926  1.0000
  C   C3217     1.0  0.78193  0.06022  0.79206  1.0000
  C   C3218     1.0  0.77129  0.04269  0.79037  1.0000
  C   C3219     1.0  0.76864  0.03509  0.76586  1.0000
  C   C3220     1.0  0.78211  0.05117  0.68518  1.0000
  C   C3221     1.0  0.76992  0.05913  0.67136  1.0000
  C   C3222     1.0  0.77731  0.07255  0.65207  1.0000
  C   C3223     1.0  0.79682  0.07819  0.64670  1.0000
  C   C3224     1.0  0.80897  0.06999  0.65983  1.0000
  C   C3225     1.0  0.80167  0.05657  0.67909  1.0000
  H   H2557     1.0  0.90684  0.23563  0.77196  1.0000
  C   C3226     1.0  0.98178  0.23998  0.92017  1.0000
  H   H2558     1.0  0.79017  0.01411  0.74952  1.0000
  H   H2559     1.0  0.92115  0.21223  0.86873  1.0000
  C   C3227     1.0  0.88876  0.21457  0.75127  1.0000
  C   C3228     1.0  0.90434  0.24360  0.73165  1.0000
  H   H2560     1.0  0.79450  0.07031  0.72748  1.0000
  H   H2561     1.0  0.79834  0.08366  0.77062  1.0000
  H   H2562     1.0  0.78387  0.06621  0.81104  1.0000
  H   H2563     1.0  0.76506  0.03501  0.80806  1.0000
  H   H2564     1.0  0.76017  0.02164  0.76487  1.0000
  H   H2565     1.0  0.75482  0.05530  0.67578  1.0000
  H   H2566     1.0  0.76798  0.07890  0.64170  1.0000
  H   H2567     1.0  0.80260  0.08899  0.63247  1.0000
  H   H2568     1.0  0.81135  0.05060  0.68950  1.0000
  H   H2569     1.0  0.85136  0.15096  0.75038  1.0000
  C   C3229     1.0  0.78527  0.04081  0.52856  1.0000
  C   C3230     1.0  0.79383  0.05783  0.53676  1.0000
  C   C3231     1.0  0.87240  0.15934  0.88424  1.0000
  H   H2570     1.0  0.75806  0.08221  0.56078  1.0000
  H   H2571     1.0  0.83517  0.15998  0.92571  1.0000
  C   C3232     1.0  0.72204  0.00568  0.68627  1.0000
  C   C3233     1.0  0.84803  0.20152  0.50015  1.0000
  H   H2572     1.0  0.76882  0.02137  0.91289  1.0000
  C   C3234     1.0  0.82416  0.05547  0.51900  1.0000
  H   H2573     1.0  0.71277  0.03294  0.77773  1.0000
  C   C3235     1.0  0.95341  0.20084  0.63141  1.0000
  H   H2574     1.0  0.68886  0.12616  0.70719  1.0000
  H   H2575     1.0  0.89631  0.19117  0.63683  1.0000
  H   H2576     1.0  0.84688  0.19979  0.68218  1.0000
  H   H2577     1.0  0.77181  0.14560  0.51338  1.0000
  C   C3236     1.0  0.74685  0.00402  0.50814  1.0000
  H   H2578     1.0  0.95339  0.20838  0.86289  1.0000
  S   S429      1.0  0.67420  0.02535  0.49742  1.0000
  C   C3237     1.0  0.67219  0.11304  0.67609  1.0000
  C   C3238     1.0  0.71095  0.99797  0.92369  1.0000
  C   C3239     1.0  0.74724  0.10657  0.95163  1.0000
  C   C3240     1.0  0.70397  0.04150  0.60877  1.0000
  C   C3241     1.0  0.92839  0.20152  0.93237  1.0000
  H   H2579     1.0  0.88274  0.18738  0.96516  1.0000
  P   P109      1.0  0.78584  0.00875  0.50567  1.0000
  C   C3242     1.0  0.96173  0.18668  0.62726  1.0000
  C   C3243     1.0  0.72827  0.03400  0.55227  1.0000
  H   H2580     1.0  0.71974  0.02058  0.55027  1.0000
  C   C3244     1.0  0.80691  0.18085  0.76430  1.0000
  H   H2581     1.0  0.69823  0.02945  0.59855  1.0000
  H   H2582     1.0  0.70083  0.05870  0.57628  1.0000
  H   H2583     1.0  0.83728  0.01018  0.88739  1.0000
  H   H2584     1.0  0.82408  0.07418  0.65521  1.0000
  C   C3245     1.0  0.87544  0.14320  0.76471  1.0000
  H   H2585     1.0  0.84612  0.03609  0.91580  1.0000
  H   H2586     1.0  0.83929  0.06101  0.51606  1.0000
  H   H2587     1.0  0.69031  0.00653  0.94791  1.0000
  H   H2588     1.0  0.95380  0.19551  0.94560  1.0000
  H   H2589     1.0  0.84532  0.14103  0.89315  1.0000
  C   C3246     1.0  0.97952  0.23501  0.94697  1.0000
  H   H2590     1.0  0.81986  0.07821  0.53868  1.0000
  C   C3247     1.0  0.81572  0.03843  0.51087  1.0000
  C   C3248     1.0  0.86658  0.15494  0.75212  1.0000
  H   H2591     1.0  0.90578  0.18855  0.73612  1.0000
  H   H2592     1.0  0.85285  0.20224  0.77174  1.0000
  C   C3249     1.0  0.76688  0.12081  0.90456  1.0000
  C   C3250     1.0  0.71918  0.03570  0.79646  1.0000
  C   C3251     1.0  0.81627  0.00681  0.95929  1.0000
  H   H2593     1.0  0.91755  0.17228  0.61996  1.0000
  H   H2594     1.0  0.68502  0.00784  0.84771  1.0000
  H   H2595     1.0  0.73985  0.10148  0.97013  1.0000
  H   H2596     1.0  0.77434  0.12631  0.88622  1.0000
  C   C3252     1.0  0.90161  0.20533  0.63876  1.0000
  C   C3253     1.0  0.78911  0.01178  0.68271  1.0000
  C   C3254     1.0  0.66489  0.00221  0.76336  1.0000
  H   H2597     1.0  0.85262  0.23306  0.86021  1.0000
  C   C3255     1.0  0.76345  0.13212  0.92378  1.0000
  C   C3256     1.0  0.75378  0.12500  0.94741  1.0000
  C   C3257     1.0  0.91954  0.21263  0.64851  1.0000
  H   H2598     1.0  0.89452  0.19460  0.48783  1.0000
  C   C3258     1.0  0.70108  0.07188  0.50611  1.0000
  C   C3259     1.0  0.89046  0.21646  0.63042  1.0000
  H   H2599     1.0  0.80235  0.00347  0.55537  1.0000
  H   H2600     1.0  0.93944  0.23704  0.65817  1.0000
  H   H2601     1.0  0.70010  0.06712  0.52648  1.0000
  H   H2602     1.0  0.71974  0.04373  0.51596  1.0000
  H   H2603     1.0  0.76844  0.14639  0.92037  1.0000
  P   P110      1.0  0.74029  0.08143  0.51012  1.0000
  C   C3260     1.0  0.73310  0.10587  0.54488  1.0000
  C   C3261     1.0  0.73474  0.03214  0.72202  1.0000
  H   H2604     1.0  0.79307  0.17916  0.77394  1.0000
  C   C3262     1.0  0.74144  0.01204  0.68990  1.0000
  C   C3263     1.0  0.73851  0.06481  0.53620  1.0000
  H   H2605     1.0  0.89463  0.14675  0.51720  1.0000
  C   C3264     1.0  0.71872  0.07893  0.49285  1.0000
  H   H2606     1.0  0.96626  0.23490  0.95714  1.0000
  C   C3265     1.0  0.86113  0.18083  0.92116  1.0000
  H   H2607     1.0  0.93592  0.22198  0.74665  1.0000
  H   H2608     1.0  0.86497  0.15390  0.53209  1.0000
  C   C3266     1.0  0.77848  0.08541  0.49703  1.0000
  H   H2609     1.0  0.87895  0.21763  0.68655  1.0000
  H   H2610     1.0  0.87537  0.15815  0.69394  1.0000
  C   C3267     1.0  0.82692  0.17292  0.73033  1.0000
  H   H2611     1.0  0.73936  0.04259  0.73562  1.0000
  H   H2612     1.0  0.78444  0.01757  0.66534  1.0000
  C   C3268     1.0  0.75983  0.07865  0.48951  1.0000
  C   C3269     1.0  0.85398  0.16893  0.64004  1.0000
  C   C3270     1.0  0.90768  0.20301  0.49407  1.0000
  H   H2613     1.0  0.79670  0.16217  0.73455  1.0000
  C   C3271     1.0  0.74462  0.10315  0.52359  1.0000
  C   C3272     1.0  0.74962  0.13710  0.54367  1.0000
  H   H2614     1.0  0.95728  0.17448  0.63930  1.0000
  C   C3273     1.0  0.71536  0.02583  0.71821  1.0000
  H   H2615     1.0  0.87477  0.21629  0.51339  1.0000
  C   C3274     1.0  0.82778  0.10570  0.97396  1.0000
  C   C3275     1.0  0.88460  0.17568  0.88968  1.0000
  H   H2616     1.0  0.86006  0.21025  0.88928  1.0000
  C   C3276     1.0  0.79621  0.03100  0.51554  1.0000
  H   H2617     1.0  0.87650  0.15115  0.86947  1.0000
  C   C3277     1.0  0.97583  0.18811  0.60740  1.0000
  C   C3278     1.0  0.86644  0.21235  0.49639  1.0000
  H   H2618     1.0  0.72678  0.12479  0.57149  1.0000
  C   C3279     1.0  0.94647  0.20655  0.88235  1.0000
  H   H2619     1.0  0.72876  0.01541  0.85297  1.0000
  H   H2620     1.0  0.72204  0.09493  0.55352  1.0000
  C   C3280     1.0  0.84300  0.18447  0.74031  1.0000
  H   H2621     1.0  0.78561  0.06528  0.54734  1.0000
  C   C3281     1.0  0.87926  0.18639  0.90867  1.0000
  C   C3282     1.0  0.74942  0.06886  0.55841  1.0000
  C   C3283     1.0  0.73948  0.03803  0.57403  1.0000
  C   C3284     1.0  0.85473  0.15366  0.89745  1.0000
  C   C3285     1.0  0.86821  0.16564  0.68155  1.0000
  H   H2622     1.0  0.83989  0.18998  0.63707  1.0000
  C   C3286     1.0  0.88581  0.15088  0.50284  1.0000
  H   H2623     1.0  0.73986  0.02763  0.58857  1.0000
  H   H2624     1.0  0.89802  0.17995  0.87869  1.0000
  P   P111      1.0  0.70989  0.99880  0.80726  1.0000
  H   H2625     1.0  0.89918  0.24779  0.69094  1.0000
  P   P112      1.0  0.86617  0.18659  0.72477  1.0000
  C   C3287     1.0  0.74988  0.05552  0.57726  1.0000
  C   C3288     1.0  0.86683  0.23501  0.86708  1.0000
  C   C3289     1.0  0.80897  0.17128  0.74214  1.0000
  H   H2626     1.0  0.92162  0.19933  0.95187  1.0000
  H   H2627     1.0  0.91791  0.24184  0.89092  1.0000
  H   H2628     1.0  0.74904  0.01297  0.49093  1.0000
  H   H2629     1.0  0.88621  0.20542  0.76829  1.0000
  H   H2630     1.0  0.82818  0.16491  0.71369  1.0000
  C   C3290     1.0  0.91936  0.19532  0.50915  1.0000
  C   C3291     1.0  0.81320  0.06516  0.53189  1.0000
  C   C3292     1.0  0.85218  0.18898  0.67485  1.0000
  H   H2631     1.0  0.70521  0.03138  0.72871  1.0000
  C   C3293     1.0  0.88962  0.22420  0.89224  1.0000
  H   H2632     1.0  0.85620  0.18921  0.93483  1.0000
  C   C3294     1.0  0.86388  0.15998  0.65618  1.0000
  H   H2633     1.0  0.86778  0.14837  0.64913  1.0000
  C   C3295     1.0  0.75817  0.11771  0.51178  1.0000
  C   C3296     1.0  0.83144  0.00927  0.90741  1.0000
  C   C3297     1.0  0.86908  0.15487  0.51137  1.0000
  C   C3298     1.0  0.93660  0.20573  0.51712  1.0000
  H   H2634     1.0  0.68008  0.01659  0.79452  1.0000
  H   H2635     1.0  0.75174  0.15017  0.55163  1.0000
  H   H2636     1.0  0.82447  0.03094  0.50129  1.0000
  H   H2637     1.0  0.95545  0.23190  0.51638  1.0000
  H   H2638     1.0  0.98196  0.17703  0.60409  1.0000
  H   H2639     1.0  0.77693  0.00273  0.95508  1.0000
  C   C3299     1.0  0.89712  0.23489  0.63151  1.0000
  H   H2640     1.0  0.71650  0.99910  0.50792  1.0000
  C   C3300     1.0  0.98188  0.20374  0.59166  1.0000
  C   C3301     1.0  0.73170  0.06579  0.97012  1.0000
  H   H2641     1.0  0.98643  0.20808  0.72036  1.0000
  H   H2642     1.0  0.97026  0.24337  0.91010  1.0000
  H   H2643     1.0  0.83323  0.03398  0.96151  1.0000
  H   H2644     1.0  0.80788  0.08718  0.48839  1.0000
  C   C3302     1.0  0.67914  0.00565  0.78159  1.0000
  H   H2645     1.0  0.88881  0.24349  0.62384  1.0000
  H   H2646     1.0  0.98899  0.23449  0.65470  1.0000
  H   H2647     1.0  0.82302  0.18730  0.48138  1.0000
  S   S430      1.0  0.65994  0.04790  0.56153  1.0000
  S   S431      1.0  0.66142  0.02549  0.68331  1.0000
  H   H2648     1.0  0.65986  0.05886  0.65616  1.0000
  H   H2649     1.0  0.65967  0.11719  0.68218  1.0000
  C   C3303     1.0  0.65939  0.04896  0.64162  1.0000
  C   C3304     1.0  0.83723  0.19586  0.47846  1.0000
  C   C3305     1.0  0.71409  0.06886  0.97714  1.0000
  C   C3306     1.0  0.97372  0.38950  0.15155  1.0000
  H   H2650     1.0  0.99137  0.31144  0.23060  1.0000
  H   H2651     1.0  0.98427  0.38514  0.41318  1.0000
  H   H2652     1.0  0.95043  0.40169  0.15151  1.0000
  C   C3307     1.0  0.94206  0.32052  0.35631  1.0000
  S   S432      1.0  0.98047  0.26759  0.13035  1.0000
  H   H2653     1.0  0.97334  0.33046  0.44006  1.0000
  S   S433      1.0  0.95705  0.28298  0.38441  1.0000
  Fe  Fe212     1.0  0.92850  0.26140  0.06599  1.0000
  Fe  Fe213     1.0  0.94981  0.30200  0.06464  1.0000
  S   S434      1.0  0.94863  0.33127  0.06360  1.0000
  Fe  Fe214     1.0  0.96542  0.27603  0.03364  1.0000
  Fe  Fe215     1.0  0.96506  0.27433  0.09461  1.0000
  H   H2654     1.0  0.96837  0.25216  0.40658  1.0000
  S   S435      1.0  0.93755  0.28288  0.03354  1.0000
  S   S436      1.0  0.93722  0.28144  0.09749  1.0000
  C   C3308     1.0  0.96428  0.27586  0.21679  1.0000
  C   C3309     1.0  0.97331  0.27028  0.16346  1.0000
  C   C3310     1.0  0.96200  0.27668  0.41665  1.0000
  H   H2655     1.0  0.98385  0.42597  0.41653  1.0000
  C   C3311     1.0  0.97750  0.35992  0.32167  1.0000
  C   C3312     1.0  0.97558  0.39002  0.29118  1.0000
  C   C3313     1.0  0.96376  0.36706  0.05055  1.0000
  C   C3314     1.0  0.96672  0.34986  0.05026  1.0000
  H   H2656     1.0  0.98646  0.33489  0.03889  1.0000
  H   H2657     1.0  0.95058  0.36879  0.05894  1.0000
  H   H2658     1.0  0.98268  0.25917  0.22650  1.0000
  C   C3315     1.0  0.96054  0.28784  0.43731  1.0000
  C   C3316     1.0  0.92566  0.30727  0.35190  1.0000
  C   C3317     1.0  0.96526  0.28381  0.46297  1.0000
  C   C3318     1.0  0.93770  0.33508  0.98803  1.0000
  H   H2659     1.0  0.95473  0.28677  0.15379  1.0000
  Fe  Fe216     1.0  0.96702  0.26846  0.28759  1.0000
  C   C3319     1.0  0.92303  0.32475  0.00454  1.0000
  H   H2660     1.0  0.94700  0.29182  0.20036  1.0000
  C   C3320     1.0  0.95168  0.36379  0.12069  1.0000
  C   C3321     1.0  0.96072  0.28058  0.16951  1.0000
  C   C3322     1.0  0.98741  0.42757  0.37403  1.0000
  C   C3323     1.0  0.96981  0.36270  0.12709  1.0000
  H   H2661     1.0  0.92429  0.29645  0.45794  1.0000
  C   C3324     1.0  0.96754  0.26105  0.42212  1.0000
  H   H2662     1.0  0.93936  0.29293  0.29380  1.0000
  H   H2663     1.0  0.96835  0.31583  0.30155  1.0000
  C   C3325     1.0  0.98211  0.37121  0.40891  1.0000
  S   S437      1.0  0.98658  0.28338  0.31726  1.0000
  H   H2664     1.0  0.91373  0.30472  0.36598  1.0000
  C   C3326     1.0  0.97617  0.33529  0.39791  1.0000
  Fe  Fe217     1.0  0.96500  0.26918  0.34865  1.0000
  H   H2665     1.0  0.97481  0.40193  0.28006  1.0000
  S   S438      1.0  0.97808  0.29577  0.06363  1.0000
  C   C3327     1.0  0.97646  0.26512  0.21077  1.0000
  H   H2666     1.0  0.92233  0.26572  0.44602  1.0000
  H   H2667     1.0  0.97056  0.31700  0.98367  1.0000
  H   H2668     1.0  0.91208  0.28691  0.32613  1.0000
  C   C3328     1.0  0.95566  0.39062  0.14496  1.0000
  H   H2669     1.0  0.91997  0.32949  0.02359  1.0000
  H   H2670     1.0  0.90050  0.24834  0.37178  1.0000
  S   S439      1.0  0.98190  0.27552  0.99504  1.0000
  C   C3329     1.0  0.94462  0.37775  0.12956  1.0000
  C   C3330     1.0  0.95789  0.32349  0.33866  1.0000
  C   C3331     1.0  0.98089  0.37550  0.14281  1.0000
  C   C3332     1.0  0.99145  0.43868  0.35106  1.0000
  S   S440      1.0  0.94400  0.25720  0.31873  1.0000
  C   C3333     1.0  0.97767  0.38208  0.04005  1.0000
  H   H2671     1.0  0.93070  0.37873  0.12421  1.0000
  C   C3334     1.0  0.92472  0.29724  0.32949  1.0000
  H   H2672     1.0  0.94696  0.35202  0.31904  1.0000
  C   C3335     1.0  0.95639  0.28346  0.19598  1.0000
  S   S441      1.0  0.95920  0.28097  0.24971  1.0000
  H   H2673     1.0  0.97558  0.36673  0.98320  1.0000
  C   C3336     1.0  0.94013  0.30055  0.31136  1.0000
  C   C3337     1.0  0.98232  0.36615  0.38278  1.0000
  C   C3338     1.0  0.95998  0.36185  0.31336  1.0000
  H   H2674     1.0  0.98447  0.37641  0.36729  1.0000
  C   C3339     1.0  0.95908  0.37682  0.29801  1.0000
  C   C3340     1.0  0.97157  0.26857  0.46819  1.0000
  C   C3341     1.0  0.98105  0.26249  0.18424  1.0000
  H   H2675     1.0  0.97516  0.35208  0.11921  1.0000
  H   H2676     1.0  0.89546  0.25144  0.98363  1.0000
  H   H2677     1.0  0.97847  0.36231  0.44977  1.0000
  H   H2678     1.0  0.94555  0.37846  0.29196  1.0000
  H   H2679     1.0  0.95593  0.29975  0.43336  1.0000
  H   H2680     1.0  0.97506  0.39514  0.04046  1.0000
  H   H2681     1.0  0.94227  0.32836  0.37350  1.0000
  H   H2682     1.0  0.94327  0.35394  0.10837  1.0000
  C   C3342     1.0  0.95666  0.31357  0.31593  1.0000
  C   C3343     1.0  0.91278  0.30809  0.99696  1.0000
  C   C3344     1.0  0.99032  0.45308  0.40150  1.0000
  S   S442      1.0  0.98724  0.46220  0.43246  1.0000
  S   S443      1.0  0.95590  0.25364  0.06434  1.0000
  C   C3345     1.0  0.97592  0.34041  0.42402  1.0000
  P   P113      1.0  0.97867  0.34138  0.34315  1.0000
  C   C3346     1.0  0.98727  0.43472  0.39911  1.0000
  H   H2683     1.0  0.88619  0.25960  0.22990  1.0000
  C   C3347     1.0  0.97234  0.25703  0.44778  1.0000
  H   H2684     1.0  0.94570  0.34764  0.99488  1.0000
  C   C3348     1.0  0.97880  0.35835  0.42952  1.0000
  H   H2685     1.0  0.97356  0.32128  0.39398  1.0000
  H   H2686     1.0  0.90170  0.29999  0.01009  1.0000
  H   H2687     1.0  0.98400  0.41331  0.37244  1.0000
  S   S444      1.0  0.98569  0.43767  0.00500  1.0000
  C   C3349     1.0  0.97936  0.34812  0.37701  1.0000
  C   C3350     1.0  0.91438  0.28555  0.46868  1.0000
  C   C3351     1.0  0.91315  0.26802  0.46195  1.0000
  H   H2688     1.0  0.97998  0.37173  0.19732  1.0000
  S   S445      1.0  0.99040  0.42882  0.31989  1.0000
  C   C3352     1.0  0.98389  0.34795  0.03934  1.0000
  H   H2689     1.0  0.98669  0.37643  0.24390  1.0000
  C   C3353     1.0  0.99095  0.47081  0.12270  1.0000
  H   H2690     1.0  0.91162  0.26060  0.14411  1.0000
  H   H2691     1.0  0.99067  0.47054  0.16531  1.0000
  H   H2692     1.0  0.98222  0.39972  0.16316  1.0000
  H   H2693     1.0  0.97822  0.39874  0.98653  1.0000
  C   C3354     1.0  0.90040  0.25375  0.47587  1.0000
  S   S446      1.0  0.98929  0.47053  0.06851  1.0000
  H   H2694     1.0  0.98853  0.48392  0.12074  1.0000
  H   H2695     1.0  0.99073  0.25446  0.17979  1.0000
  H   H2696     1.0  0.94276  0.27029  0.97988  1.0000
  H   H2697     1.0  0.99077  0.34066  0.17601  1.0000
  C   C3355     1.0  0.99228  0.46128  0.09998  1.0000
  C   C3356     1.0  0.99239  0.46334  0.14798  1.0000
  H   H2698     1.0  0.92007  0.25653  0.64239  1.0000
  C   C3357     1.0  0.99044  0.36302  0.76149  1.0000
  H   H2699     1.0  0.95939  0.33725  0.73992  1.0000
  C   C3358     1.0  0.94413  0.27378  0.93749  1.0000
  H   H2700     1.0  0.91360  0.25682  0.73332  1.0000
  S   S447      1.0  0.93901  0.25963  0.81412  1.0000
  C   C3359     1.0  0.96236  0.34132  0.71930  1.0000
  S   S448      1.0  0.94540  0.27879  0.88378  1.0000
  Fe  Fe218     1.0  0.92518  0.26090  0.56186  1.0000
  Fe  Fe219     1.0  0.94853  0.30055  0.55778  1.0000
  S   S449      1.0  0.94895  0.33001  0.55257  1.0000
  Fe  Fe220     1.0  0.96412  0.27198  0.53416  1.0000
  Fe  Fe221     1.0  0.95975  0.27348  0.59462  1.0000
  S   S450      1.0  0.97123  0.26513  0.63274  1.0000
  S   S451      1.0  0.93748  0.28020  0.52782  1.0000
  S   S452      1.0  0.93293  0.28222  0.59162  1.0000
  C   C3360     1.0  0.95701  0.28124  0.71593  1.0000
  C   C3361     1.0  0.97539  0.28065  0.91633  1.0000
  C   C3362     1.0  0.95579  0.27745  0.91441  1.0000
  C   C3363     1.0  0.97153  0.27654  0.96429  1.0000
  C   C3364     1.0  0.96535  0.49095  0.89904  1.0000
  C   C3365     1.0  0.90318  0.28900  0.48965  1.0000
  C   C3366     1.0  0.96417  0.36491  0.53531  1.0000
  C   C3367     1.0  0.96638  0.34746  0.53534  1.0000
  C   C3368     1.0  0.96498  0.47489  0.76910  1.0000
  H   H2701     1.0  0.95171  0.36735  0.54497  1.0000
  H   H2702     1.0  0.98448  0.32606  0.90486  1.0000
  C   C3369     1.0  0.98144  0.43193  0.86899  1.0000
  H   H2703     1.0  0.92896  0.27130  0.93614  1.0000
  C   C3370     1.0  0.93816  0.32848  0.87198  1.0000
  Fe  Fe222     1.0  0.95840  0.27156  0.84589  1.0000
  C   C3371     1.0  0.97293  0.46862  0.79082  1.0000
  C   C3372     1.0  0.95108  0.34232  0.67522  1.0000
  C   C3373     1.0  0.96087  0.39326  0.92544  1.0000
  C   C3374     1.0  0.95756  0.28602  0.66798  1.0000
  C   C3375     1.0  0.99039  0.36488  0.58669  1.0000
  C   C3376     1.0  0.96470  0.27117  0.66444  1.0000
  C   C3377     1.0  0.89079  0.27490  0.50397  1.0000
  H   H2704     1.0  0.97242  0.24932  0.68440  1.0000
  C   C3378     1.0  0.95193  0.27331  0.96232  1.0000
  C   C3379     1.0  0.96878  0.49329  0.63624  1.0000
  C   C3380     1.0  0.96355  0.26606  0.71229  1.0000
  H   H2705     1.0  0.97104  0.43338  0.90888  1.0000
  H   H2706     1.0  0.94850  0.30263  0.69618  1.0000
  S   S453      1.0  0.97582  0.29293  0.56281  1.0000
  S   S454      1.0  0.95333  0.28867  0.74790  1.0000
  C   C3381     1.0  0.98365  0.33776  0.95418  1.0000
  Fe  Fe223     1.0  0.96128  0.27520  0.78482  1.0000
  H   H2707     1.0  0.96351  0.46889  0.65994  1.0000
  H   H2708     1.0  0.98843  0.39878  0.85732  1.0000
  H   H2709     1.0  0.94900  0.31667  0.83912  1.0000
  H   H2710     1.0  0.93042  0.33898  0.90803  1.0000
  C   C3382     1.0  0.95836  0.33438  0.90937  1.0000
  H   H2711     1.0  0.98440  0.33123  0.52202  1.0000
  C   C3383     1.0  0.97316  0.48181  0.65535  1.0000
  H   H2712     1.0  0.97661  0.35631  0.59268  1.0000
  H   H2713     1.0  0.98765  0.42491  0.58973  1.0000
  H   H2714     1.0  0.97646  0.39273  0.52454  1.0000
  H   H2715     1.0  0.99019  0.48882  0.87724  1.0000
  C   C3384     1.0  0.98211  0.48047  0.80911  1.0000
  S   S455      1.0  0.98601  0.43246  0.50306  1.0000
  H   H2716     1.0  0.98155  0.36696  0.87192  1.0000
  H   H2717     1.0  0.97216  0.35413  0.64486  1.0000
  H   H2718     1.0  0.93334  0.33100  0.70940  1.0000
  C   C3385     1.0  0.96773  0.40180  0.94816  1.0000
  C   C3386     1.0  0.88092  0.25018  0.85883  1.0000
  H   H2719     1.0  0.98086  0.38889  0.58739  1.0000
  H   H2720     1.0  0.97879  0.31591  0.86018  1.0000
  C   C3387     1.0  0.98435  0.35419  0.68288  1.0000
  C   C3388     1.0  0.98084  0.34990  0.70997  1.0000
  H   H2721     1.0  0.97209  0.45456  0.79345  1.0000
  C   C3389     1.0  0.88938  0.25737  0.49713  1.0000
  C   C3390     1.0  0.97645  0.35875  0.80614  1.0000
  H   H2722     1.0  0.98509  0.33845  0.78547  1.0000
  C   C3391     1.0  0.98429  0.35215  0.78441  1.0000
  C   C3392     1.0  0.94754  0.33769  0.70202  1.0000
  C   C3393     1.0  0.95897  0.37500  0.92357  1.0000
  C   C3394     1.0  0.98783  0.38028  0.76049  1.0000
  S   S456      1.0  0.97397  0.25022  0.84688  1.0000
  C   C3395     1.0  0.98254  0.34457  0.52249  1.0000
  H   H2723     1.0  0.92485  0.32825  0.86310  1.0000
  C   C3396     1.0  0.94208  0.32890  0.96355  1.0000
  C   C3397     1.0  0.94137  0.33453  0.89741  1.0000
  C   C3398     1.0  0.98365  0.32492  0.97421  1.0000
  C   C3399     1.0  0.97183  0.32757  0.89571  1.0000
  H   H2724     1.0  0.90810  0.49734  0.58991  1.0000
  C   C3400     1.0  0.97881  0.49540  0.87807  1.0000
  H   H2725     1.0  0.96966  0.42100  0.86456  1.0000
  H   H2726     1.0  0.87763  0.26012  0.84572  1.0000
  S   S457      1.0  0.95139  0.25161  0.56627  1.0000
  H   H2727     1.0  0.97183  0.35035  0.82372  1.0000
  S   S458      1.0  0.98007  0.26452  0.49934  1.0000
  C   C3401     1.0  0.97120  0.37392  0.96702  1.0000
  C   C3402     1.0  0.96394  0.36510  0.94452  1.0000
  C   C3403     1.0  0.96577  0.49297  0.76605  1.0000
  H   H2728     1.0  0.90449  0.30256  0.49527  1.0000
  H   H2729     1.0  0.96911  0.41593  0.94980  1.0000
  S   S459      1.0  0.97877  0.28984  0.81676  1.0000
  H   H2730     1.0  0.96811  0.38121  0.82173  1.0000
  H   H2731     1.0  0.95684  0.40078  0.90934  1.0000
  P   P114      1.0  0.96187  0.34148  0.94278  1.0000
  H   H2732     1.0  0.93539  0.30658  0.93803  1.0000
  H   H2733     1.0  0.95530  0.29387  0.65104  1.0000
  C   C3404     1.0  0.95377  0.29102  0.69362  1.0000
  H   H2734     1.0  0.93958  0.33941  0.66183  1.0000
  H   H2735     1.0  0.96660  0.48124  0.91420  1.0000
  H   H2736     1.0  0.95362  0.36883  0.90577  1.0000
  C   C3405     1.0  0.95179  0.32205  0.85839  1.0000
  C   C3406     1.0  0.93188  0.31199  0.95631  1.0000
  C   C3407     1.0  0.96740  0.26110  0.68675  1.0000
  C   C3408     1.0  0.97822  0.37938  0.52368  1.0000
  H   H2737     1.0  0.96579  0.25819  0.72916  1.0000
  C   C3409     1.0  0.98322  0.28019  0.94119  1.0000
  C   C3410     1.0  0.97285  0.39211  0.96893  1.0000
  H   H2738     1.0  0.91018  0.26427  0.86103  1.0000
  C   C3411     1.0  0.96865  0.32169  0.87021  1.0000
  H   H2739     1.0  0.88254  0.27751  0.52078  1.0000
  H   H2740     1.0  0.98864  0.31789  0.71345  1.0000
  C   C3412     1.0  0.96948  0.35055  0.66566  1.0000
  C   C3413     1.0  0.98232  0.43876  0.89432  1.0000
  S   S460      1.0  0.97726  0.25427  0.78267  1.0000
  H   H2741     1.0  0.98450  0.28350  0.89869  1.0000
  H   H2742     1.0  0.95811  0.46568  0.75477  1.0000
  H   H2743     1.0  0.95565  0.48901  0.62635  1.0000
  H   H2744     1.0  0.98808  0.47530  0.82589  1.0000
  H   H2745     1.0  0.93982  0.49533  0.91667  1.0000
  C   C3414     1.0  0.89929  0.25248  0.86738  1.0000
  H   H2746     1.0  0.97826  0.40026  0.78135  1.0000
  C   C3415     1.0  0.97433  0.37608  0.80506  1.0000
  H   H2747     1.0  0.98931  0.41140  0.63425  1.0000
  C   C3416     1.0  0.98001  0.38682  0.78225  1.0000
  H   H2748     1.0  0.90959  0.28861  0.96724  1.0000
  C   C3417     1.0  0.91724  0.30170  0.97287  1.0000
  H   H2749     1.0  0.96456  0.29280  0.47852  1.0000
  H   H2750     1.0  0.99147  0.38870  0.74286  1.0000
  C   C3418     1.0  0.99009  0.48684  0.66829  1.0000
  H   H2751     1.0  0.95938  0.49780  0.74939  1.0000
  H   H2752     1.0  0.95220  0.67001  0.34214  1.0000
  H   H2753     1.0  0.69959  0.69908  0.44618  1.0000
  C   C3419     1.0  0.88796  0.72743  0.46573  1.0000
  S   S461      1.0  0.97766  0.71303  0.10888  1.0000
  H   H2754     1.0  0.95930  0.63089  0.29467  1.0000
  Fe  Fe224     1.0  0.95932  0.70637  0.07390  1.0000
  S   S462      1.0  0.93674  0.68045  0.07000  1.0000
  Fe  Fe225     1.0  0.77803  0.66075  0.04517  1.0000
  S   S463      1.0  0.77354  0.68821  0.04225  1.0000
  S   S464      1.0  0.75210  0.63767  0.05499  1.0000
  Fe  Fe226     1.0  0.82179  0.67545  0.04206  1.0000
  S   S465      1.0  0.81972  0.70371  0.03853  1.0000
  S   S466      1.0  0.84925  0.66632  0.04252  1.0000
  Fe  Fe227     1.0  0.79681  0.69555  0.07073  1.0000
  S   S467      1.0  0.79516  0.71274  0.10575  1.0000
  Fe  Fe228     1.0  0.79663  0.69344  0.01027  1.0000
  C   C3420     1.0  0.87141  0.68410  0.46150  1.0000
  S   S468      1.0  0.80008  0.66789  0.07566  1.0000
  S   S469      1.0  0.79996  0.66551  0.01168  1.0000
  Fe  Fe229     1.0  0.79836  0.72869  0.29116  1.0000
  S   S470      1.0  0.78324  0.69968  0.29460  1.0000
  C   C3421     1.0  0.86016  0.71166  0.99023  1.0000
  Fe  Fe230     1.0  0.83592  0.72135  0.27712  1.0000
  S   S471      1.0  0.82395  0.69183  0.27935  1.0000
  H   H2755     1.0  0.85831  0.71573  0.45911  1.0000
  Fe  Fe231     1.0  0.79999  0.69768  0.25732  1.0000
  S   S472      1.0  0.78826  0.68041  0.22355  1.0000
  Fe  Fe232     1.0  0.80862  0.69673  0.31639  1.0000
  S   S473      1.0  0.80666  0.67803  0.35229  1.0000
  S   S474      1.0  0.81321  0.72694  0.25233  1.0000
  S   S475      1.0  0.82251  0.72595  0.31561  1.0000
  Fe  Fe233     1.0  0.94717  0.71463  0.33636  1.0000
  H   H2756     1.0  0.82857  0.70747  0.16648  1.0000
  S   S476      1.0  0.91626  0.70438  0.34709  1.0000
  S   S477      1.0  0.96064  0.70472  0.30174  1.0000
  S   S478      1.0  0.96651  0.70769  0.36560  1.0000
  H   H2757     1.0  0.68896  0.60346  0.03128  1.0000
  S   S479      1.0  0.70843  0.73313  0.36519  1.0000
  C   C3422     1.0  0.97831  0.74234  0.22577  1.0000
  C   C3423     1.0  0.75250  0.72892  0.31809  1.0000
  C   C3424     1.0  0.73548  0.72497  0.33323  1.0000
  C   C3425     1.0  0.72954  0.73847  0.34578  1.0000
  H   H2758     1.0  0.85593  0.70908  0.19383  1.0000
  C   C3426     1.0  0.92786  0.64819  0.29195  1.0000
  H   H2759     1.0  0.75695  0.71841  0.30859  1.0000
  H   H2760     1.0  0.72727  0.71134  0.33598  1.0000
  H   H2761     1.0  0.68272  0.68592  0.17979  1.0000
  C   C3427     1.0  0.88186  0.72690  0.39613  1.0000
  C   C3428     1.0  0.88043  0.72514  0.28847  1.0000
  C   C3429     1.0  0.87179  0.71324  0.30918  1.0000
  C   C3430     1.0  0.88287  0.70678  0.32703  1.0000
  C   C3431     1.0  0.90262  0.71229  0.32432  1.0000
  C   C3432     1.0  0.91131  0.72410  0.30353  1.0000
  H   H2762     1.0  0.67822  0.57909  0.13842  1.0000
  H   H2763     1.0  0.85655  0.70911  0.31165  1.0000
  H   H2764     1.0  0.87611  0.69772  0.34315  1.0000
  H   H2765     1.0  0.97606  0.66539  0.07424  1.0000
  H   H2766     1.0  0.92739  0.74288  0.41380  1.0000
  C   C3433     1.0  0.79301  0.70349  0.13844  1.0000
  C   C3434     1.0  0.79349  0.71464  0.15969  1.0000
  C   C3435     1.0  0.79248  0.70787  0.18585  1.0000
  C   C3436     1.0  0.79052  0.68971  0.19104  1.0000
  C   C3437     1.0  0.78989  0.67853  0.16986  1.0000
  C   C3438     1.0  0.79126  0.68538  0.14370  1.0000
  H   H2767     1.0  0.79500  0.72861  0.15593  1.0000
  H   H2768     1.0  0.79321  0.71669  0.20193  1.0000
  H   H2769     1.0  0.78831  0.66449  0.17379  1.0000
  H   H2770     1.0  0.79075  0.67661  0.12764  1.0000
  C   C3439     1.0  0.81381  0.69864  0.43617  1.0000
  C   C3440     1.0  0.81139  0.68057  0.43171  1.0000
  C   C3441     1.0  0.80954  0.67448  0.40590  1.0000
  C   C3442     1.0  0.81018  0.68638  0.38429  1.0000
  C   C3443     1.0  0.81283  0.70448  0.38874  1.0000
  C   C3444     1.0  0.81462  0.71055  0.41454  1.0000
  H   H2771     1.0  0.81077  0.67125  0.44812  1.0000
  H   H2772     1.0  0.80744  0.66046  0.40270  1.0000
  H   H2773     1.0  0.81323  0.71378  0.37237  1.0000
  H   H2774     1.0  0.81648  0.72454  0.41777  1.0000
  C   C3445     1.0  0.91242  0.67791  0.06301  1.0000
  C   C3446     1.0  0.90226  0.66137  0.05470  1.0000
  C   C3447     1.0  0.88315  0.65836  0.04860  1.0000
  C   C3448     1.0  0.87351  0.67168  0.05106  1.0000
  C   C3449     1.0  0.88348  0.68831  0.05971  1.0000
  C   C3450     1.0  0.90292  0.69143  0.06563  1.0000
  H   H2775     1.0  0.90927  0.65078  0.05272  1.0000
  H   H2776     1.0  0.87573  0.64546  0.04203  1.0000
  H   H2777     1.0  0.87627  0.69871  0.06168  1.0000
  H   H2778     1.0  0.91054  0.70416  0.07234  1.0000
  C   C3451     1.0  0.68823  0.73529  0.29107  1.0000
  C   C3452     1.0  0.98567  0.73488  0.20432  1.0000
  C   C3453     1.0  0.86841  0.72516  0.47009  1.0000
  H   H2779     1.0  0.88679  0.69454  0.99561  1.0000
  C   C3454     1.0  0.70737  0.61163  0.99674  1.0000
  C   C3455     1.0  0.70292  0.61072  0.02383  1.0000
  C   C3456     1.0  0.71683  0.61856  0.04141  1.0000
  C   C3457     1.0  0.73505  0.62808  0.03205  1.0000
  C   C3458     1.0  0.73934  0.62941  0.00493  1.0000
  H   H2780     1.0  0.67090  0.72584  0.23043  1.0000
  H   H2781     1.0  0.86000  0.61894  0.21374  1.0000
  H   H2782     1.0  0.71341  0.61736  0.06236  1.0000
  H   H2783     1.0  0.75333  0.63657  0.99745  1.0000
  C   C3459     1.0  0.96124  0.62867  0.41175  1.0000
  C   C3460     1.0  0.91901  0.71133  0.45072  1.0000
  H   H2784     1.0  0.91117  0.65928  0.22364  1.0000
  C   C3461     1.0  0.70464  0.63240  0.42103  1.0000
  C   C3462     1.0  0.95639  0.65634  0.21680  1.0000
  H   H2785     1.0  0.95641  0.64299  0.21164  1.0000
  H   H2786     1.0  0.74734  0.67208  0.44687  1.0000
  H   H2787     1.0  0.86017  0.70403  0.00846  1.0000
  C   C3463     1.0  0.78117  0.62154  0.21844  1.0000
  H   H2788     1.0  0.71991  0.70849  0.40953  1.0000
  H   H2789     1.0  0.73776  0.61199  0.46634  1.0000
  C   C3464     1.0  0.94639  0.65948  0.23941  1.0000
  H   H2790     1.0  0.69308  0.70233  0.32930  1.0000
  C   C3465     1.0  0.86848  0.73358  0.04511  1.0000
  C   C3466     1.0  0.74344  0.61940  0.20815  1.0000
  C   C3467     1.0  0.75707  0.62286  0.18718  1.0000
  P   P115      1.0  0.75000  0.62659  0.15406  1.0000
  C   C3468     1.0  0.74798  0.64916  0.14975  1.0000
  C   C3469     1.0  0.76666  0.62246  0.12936  1.0000
  C   C3470     1.0  0.76126  0.60841  0.11221  1.0000
  C   C3471     1.0  0.77417  0.60546  0.09303  1.0000
  C   C3472     1.0  0.79263  0.61630  0.09101  1.0000
  C   C3473     1.0  0.79815  0.63023  0.10799  1.0000
  C   C3474     1.0  0.78509  0.63360  0.12660  1.0000
  C   C3475     1.0  0.74970  0.65729  0.12441  1.0000
  C   C3476     1.0  0.72711  0.61165  0.14934  1.0000
  C   C3477     1.0  0.72216  0.59462  0.16180  1.0000
  C   C3478     1.0  0.70455  0.58297  0.15798  1.0000
  C   C3479     1.0  0.69192  0.58808  0.14131  1.0000
  C   C3480     1.0  0.69692  0.60482  0.12834  1.0000
  C   C3481     1.0  0.71447  0.61656  0.13221  1.0000
  H   H2791     1.0  0.72884  0.61880  0.20456  1.0000
  H   H2792     1.0  0.74702  0.59992  0.11301  1.0000
  H   H2793     1.0  0.76972  0.59500  0.07933  1.0000
  H   H2794     1.0  0.80255  0.61416  0.07590  1.0000
  H   H2795     1.0  0.81238  0.63883  0.10604  1.0000
  H   H2796     1.0  0.78938  0.64495  0.13871  1.0000
  H   H2797     1.0  0.75279  0.65033  0.10739  1.0000
  H   H2798     1.0  0.74924  0.68080  0.10123  1.0000
  H   H2799     1.0  0.73194  0.59028  0.17432  1.0000
  C   C3482     1.0  0.88737  0.73412  0.03795  1.0000
  C   C3483     1.0  0.66920  0.68812  0.18566  1.0000
  H   H2800     1.0  0.68713  0.60865  0.11524  1.0000
  H   H2801     1.0  0.71818  0.62929  0.12148  1.0000
  H   H2802     1.0  0.93200  0.61242  0.22317  1.0000
  H   H2803     1.0  0.77143  0.61589  0.25902  1.0000
  C   C3484     1.0  0.96760  0.68799  0.20715  1.0000
  C   C3485     1.0  0.95755  0.69127  0.22948  1.0000
  H   H2804     1.0  0.97613  0.69893  0.19497  1.0000
  H   H2805     1.0  0.95819  0.70482  0.23457  1.0000
  C   C3486     1.0  0.91921  0.66846  0.14686  1.0000
  C   C3487     1.0  0.93817  0.67806  0.14581  1.0000
  C   C3488     1.0  0.94336  0.69460  0.15719  1.0000
  C   C3489     1.0  0.92965  0.70182  0.16889  1.0000
  C   C3490     1.0  0.91049  0.69263  0.16894  1.0000
  C   C3491     1.0  0.90542  0.67556  0.15885  1.0000
  P   P116      1.0  0.89267  0.70198  0.18369  1.0000
  C   C3492     1.0  0.90092  0.72579  0.18510  1.0000
  C   C3493     1.0  0.87214  0.69930  0.16397  1.0000
  C   C3494     1.0  0.85625  0.70434  0.17403  1.0000
  H   H2806     1.0  0.67690  0.66356  0.98454  1.0000
  C   C3495     1.0  0.84091  0.69790  0.13275  1.0000
  C   C3496     1.0  0.85677  0.69316  0.12239  1.0000
  C   C3497     1.0  0.87252  0.69422  0.13768  1.0000
  C   C3498     1.0  0.91318  0.68772  0.99661  1.0000
  S   S480      1.0  0.95104  0.73203  0.07210  1.0000
  C   C3499     1.0  0.94905  0.65866  0.44442  1.0000
  C   C3500     1.0  0.90178  0.69966  0.99756  1.0000
  C   C3501     1.0  0.76236  0.70909  0.38019  1.0000
  C   C3502     1.0  0.88779  0.69221  0.21671  1.0000
  C   C3503     1.0  0.90238  0.69528  0.23460  1.0000
  C   C3504     1.0  0.89880  0.68848  0.26059  1.0000
  C   C3505     1.0  0.88068  0.67859  0.26892  1.0000
  C   C3506     1.0  0.86617  0.67518  0.25113  1.0000
  C   C3507     1.0  0.86971  0.68185  0.22504  1.0000
  H   H2807     1.0  0.91519  0.65566  0.13795  1.0000
  H   H2808     1.0  0.94882  0.67273  0.13606  1.0000
  H   H2809     1.0  0.95803  0.70195  0.15693  1.0000
  H   H2810     1.0  0.93409  0.71463  0.17766  1.0000
  H   H2811     1.0  0.89078  0.66795  0.15956  1.0000
  H   H2812     1.0  0.66682  0.59539  0.34425  1.0000
  H   H2813     1.0  0.96277  0.71062  0.42589  1.0000
  H   H2814     1.0  0.82886  0.69731  0.12068  1.0000
  H   H2815     1.0  0.85690  0.68884  0.10236  1.0000
  H   H2816     1.0  0.88495  0.69136  0.12860  1.0000
  C   C3508     1.0  0.96393  0.61703  0.39243  1.0000
  C   C3509     1.0  0.73486  0.73478  0.12970  1.0000
  H   H2817     1.0  0.90694  0.73971  0.26961  1.0000
  S   S481      1.0  0.98447  0.71556  0.04517  1.0000
  C   C3510     1.0  0.89813  0.72830  0.41069  1.0000
  H   H2818     1.0  0.91639  0.70336  0.22866  1.0000
  H   H2819     1.0  0.90990  0.69141  0.27461  1.0000
  H   H2820     1.0  0.87779  0.67394  0.28934  1.0000
  H   H2821     1.0  0.85205  0.66774  0.25777  1.0000
  H   H2822     1.0  0.85824  0.67908  0.21170  1.0000
  C   C3511     1.0  0.96424  0.59714  0.25702  1.0000
  C   C3512     1.0  0.93254  0.69362  0.00042  1.0000
  C   C3513     1.0  0.94023  0.66318  0.33123  1.0000
  C   C3514     1.0  0.85446  0.66041  0.43502  1.0000
  H   H2823     1.0  0.73385  0.71433  0.02915  1.0000
  C   C3515     1.0  0.72651  0.73558  0.04976  1.0000
  C   C3516     1.0  0.68629  0.65453  0.02036  1.0000
  C   C3517     1.0  0.70165  0.65486  0.03608  1.0000
  C   C3518     1.0  0.71982  0.66445  0.02739  1.0000
  C   C3519     1.0  0.72271  0.67358  0.00287  1.0000
  C   C3520     1.0  0.67464  0.64663  0.10397  1.0000
  C   C3521     1.0  0.68908  0.66393  0.99606  1.0000
  H   H2824     1.0  0.73279  0.71663  0.45659  1.0000
  H   H2825     1.0  0.72251  0.72569  0.12221  1.0000
  C   C3522     1.0  0.90021  0.73053  0.28560  1.0000
  H   H2826     1.0  0.91335  0.72964  0.14541  1.0000
  H   H2827     1.0  0.94713  0.62733  0.42022  1.0000
  C   C3523     1.0  0.94365  0.62313  0.25959  1.0000
  H   H2828     1.0  0.90686  0.67375  0.99393  1.0000
  H   H2829     1.0  0.69964  0.60396  0.41981  1.0000
  C   C3524     1.0  0.89674  0.73440  0.20746  1.0000
  H   H2830     1.0  0.86126  0.66367  0.39329  1.0000
  C   C3525     1.0  0.72570  0.62086  0.98748  1.0000
  C   C3526     1.0  0.94682  0.67706  0.24544  1.0000
  H   H2831     1.0  0.95755  0.65975  0.29799  1.0000
  C   C3527     1.0  0.68667  0.68265  0.11467  1.0000
  C   C3528     1.0  0.69566  0.72813  0.07257  1.0000
  C   C3529     1.0  0.95122  0.70974  0.44023  1.0000
  H   H2832     1.0  0.70068  0.56991  0.16781  1.0000
  Fe  Fe234     1.0  0.97865  0.73269  0.29696  1.0000
  C   C3530     1.0  0.84073  0.70358  0.15849  1.0000
  H   H2833     1.0  0.83638  0.74754  0.19798  1.0000
  C   C3531     1.0  0.95660  0.62180  0.27888  1.0000
  H   H2834     1.0  0.66981  0.63266  0.09989  1.0000
  P   P117      1.0  0.97340  0.65729  0.44434  1.0000
  C   C3532     1.0  0.69951  0.73945  0.23769  1.0000
  C   C3533     1.0  0.87757  0.68560  0.41422  1.0000
  C   C3534     1.0  0.92185  0.66100  0.34169  1.0000
  C   C3535     1.0  0.91121  0.66055  0.44367  1.0000
  Fe  Fe235     1.0  0.98394  0.73555  0.35737  1.0000
  H   H2835     1.0  0.88512  0.69220  0.39645  1.0000
  H   H2836     1.0  0.95199  0.60689  0.38613  1.0000
  C   C3536     1.0  0.66990  0.65936  0.08740  1.0000
  H   H2837     1.0  0.98440  0.52108  0.43432  1.0000
  H   H2838     1.0  0.91950  0.67612  0.40745  1.0000
  C   C3537     1.0  0.73362  0.72104  0.47658  1.0000
  H   H2839     1.0  0.93171  0.71319  0.41119  1.0000
  C   C3538     1.0  0.98920  0.55348  0.13627  1.0000
  H   H2840     1.0  0.89714  0.63957  0.29209  1.0000
  S   S482      1.0  0.96349  0.74331  0.32991  1.0000
  C   C3539     1.0  0.90276  0.64579  0.22782  1.0000
  H   H2841     1.0  0.71452  0.73783  0.47129  1.0000
  H   H2842     1.0  0.69956  0.64737  0.05474  1.0000
  H   H2843     1.0  0.74247  0.69731  0.13981  1.0000
  C   C3540     1.0  0.73138  0.70328  0.40238  1.0000
  H   H2844     1.0  0.79586  0.62264  0.22249  1.0000
  C   C3541     1.0  0.94131  0.61133  0.23887  1.0000
  P   P118      1.0  0.93189  0.64105  0.25920  1.0000
  C   C3542     1.0  0.87595  0.73471  0.09118  1.0000
  H   H2845     1.0  0.94988  0.58951  0.22145  1.0000
  C   C3543     1.0  0.96676  0.60883  0.27761  1.0000
  C   C3544     1.0  0.88503  0.64036  0.21690  1.0000
  H   H2846     1.0  0.93891  0.67984  0.26243  1.0000
  H   H2847     1.0  0.66882  0.69465  0.24855  1.0000
  H   H2848     1.0  0.66566  0.66240  0.24769  1.0000
  H   H2849     1.0  0.66631  0.64647  0.33816  1.0000
  C   C3545     1.0  0.67084  0.69693  0.43652  1.0000
  C   C3546     1.0  0.86276  0.73361  0.07166  1.0000
  C   C3547     1.0  0.69204  0.71075  0.06359  1.0000
  C   C3548     1.0  0.67295  0.66641  0.41032  1.0000
  C   C3549     1.0  0.68908  0.67651  0.42215  1.0000
  C   C3550     1.0  0.70719  0.64845  0.40625  1.0000
  C   C3551     1.0  0.97773  0.66930  0.03207  1.0000
  C   C3552     1.0  0.70109  0.61613  0.38090  1.0000
  C   C3553     1.0  0.70350  0.63204  0.36608  1.0000
  C   C3554     1.0  0.70653  0.64815  0.37869  1.0000
  C   C3555     1.0  0.73040  0.68502  0.40443  1.0000
  H   H2850     1.0  0.66179  0.65478  0.07055  1.0000
  C   C3556     1.0  0.74748  0.71525  0.39084  1.0000
  H   H2851     1.0  0.87041  0.73512  0.36080  1.0000
  C   C3557     1.0  0.76130  0.69094  0.38153  1.0000
  C   C3558     1.0  0.74554  0.67897  0.39385  1.0000
  C   C3559     1.0  0.85826  0.66769  0.45959  1.0000
  H   H2852     1.0  0.67309  0.65423  0.40077  1.0000
  H   H2853     1.0  0.69862  0.60361  0.37123  1.0000
  H   H2854     1.0  0.70289  0.63183  0.34487  1.0000
  H   H2855     1.0  0.70822  0.66041  0.36705  1.0000
  H   H2856     1.0  0.88001  0.64958  0.20443  1.0000
  H   H2857     1.0  0.77287  0.68618  0.37338  1.0000
  H   H2858     1.0  0.74542  0.66503  0.39557  1.0000
  H   H2859     1.0  0.71347  0.69688  0.29272  1.0000
  C   C3560     1.0  0.95403  0.70731  0.46697  1.0000
  H   H2860     1.0  0.74296  0.65288  0.19125  1.0000
  H   H2861     1.0  0.86378  0.66392  0.98971  1.0000
  C   C3561     1.0  0.90970  0.71770  0.00195  1.0000
  C   C3562     1.0  0.90060  0.73577  0.05763  1.0000
  C   C3563     1.0  0.75542  0.65811  0.32387  1.0000
  C   C3564     1.0  0.76979  0.65389  0.30858  1.0000
  C   C3565     1.0  0.76822  0.65265  0.28139  1.0000
  C   C3566     1.0  0.75218  0.65538  0.26949  1.0000
  C   C3567     1.0  0.73779  0.65986  0.28464  1.0000
  C   C3568     1.0  0.73955  0.66126  0.31198  1.0000
  P   P119      1.0  0.71773  0.66435  0.26859  1.0000
  C   C3569     1.0  0.72499  0.68417  0.24724  1.0000
  C   C3570     1.0  0.70749  0.64504  0.24989  1.0000
  C   C3571     1.0  0.70412  0.64672  0.22296  1.0000
  C   C3572     1.0  0.69616  0.63168  0.20890  1.0000
  C   C3573     1.0  0.69149  0.61483  0.22151  1.0000
  C   C3574     1.0  0.69522  0.61297  0.24805  1.0000
  C   C3575     1.0  0.70347  0.62795  0.26205  1.0000
  C   C3576     1.0  0.71124  0.69041  0.23409  1.0000
  C   C3577     1.0  0.71653  0.70546  0.21713  1.0000
  C   C3578     1.0  0.73552  0.71478  0.21368  1.0000
  C   C3579     1.0  0.74926  0.70902  0.22735  1.0000
  C   C3580     1.0  0.74405  0.69374  0.24397  1.0000
  C   C3581     1.0  0.70115  0.66834  0.29359  1.0000
  C   C3582     1.0  0.68762  0.65422  0.30663  1.0000
  C   C3583     1.0  0.67644  0.65744  0.32787  1.0000
  C   C3584     1.0  0.67834  0.67475  0.33595  1.0000
  C   C3585     1.0  0.69146  0.68890  0.32284  1.0000
  C   C3586     1.0  0.70293  0.68572  0.30191  1.0000
  H   H2862     1.0  0.75696  0.65945  0.34487  1.0000
  H   H2863     1.0  0.78241  0.65216  0.31776  1.0000
  H   H2864     1.0  0.77976  0.65023  0.26937  1.0000
  H   H2865     1.0  0.75141  0.65473  0.24829  1.0000
  H   H2866     1.0  0.72896  0.66506  0.32420  1.0000
  H   H2867     1.0  0.70759  0.65950  0.21253  1.0000
  H   H2868     1.0  0.95264  0.67430  0.40765  1.0000
  H   H2869     1.0  0.68480  0.60326  0.21074  1.0000
  H   H2870     1.0  0.69134  0.59993  0.25798  1.0000
  H   H2871     1.0  0.70647  0.62615  0.28251  1.0000
  H   H2872     1.0  0.69645  0.68341  0.23657  1.0000
  H   H2873     1.0  0.70585  0.70990  0.20669  1.0000
  H   H2874     1.0  0.73951  0.72638  0.20037  1.0000
  H   H2875     1.0  0.76401  0.71625  0.22503  1.0000
  H   H2876     1.0  0.75502  0.68955  0.25409  1.0000
  H   H2877     1.0  0.68562  0.64069  0.30082  1.0000
  H   H2878     1.0  0.97699  0.60815  0.29226  1.0000
  H   H2879     1.0  0.91578  0.74299  0.47546  1.0000
  H   H2880     1.0  0.89218  0.65113  0.33541  1.0000
  S   S483      1.0  0.68529  0.72309  0.16976  1.0000
  H   H2881     1.0  0.69323  0.63306  0.18831  1.0000
  C   C3587     1.0  0.74750  0.67452  0.12082  1.0000
  C   C3588     1.0  0.97666  0.64197  0.41972  1.0000
  H   H2882     1.0  0.73698  0.68063  0.99620  1.0000
  C   C3589     1.0  0.93368  0.71153  0.43204  1.0000
  H   H2883     1.0  0.99196  0.69155  0.28017  1.0000
  H   H2884     1.0  0.98317  0.67532  0.99077  1.0000
  C   C3590     1.0  0.68771  0.69158  0.43577  1.0000
  C   C3591     1.0  0.68544  0.65186  0.12577  1.0000
  C   C3592     1.0  0.94323  0.65711  0.30629  1.0000
  C   C3593     1.0  0.73611  0.66919  0.46204  1.0000
  C   C3594     1.0  0.68078  0.73088  0.24539  1.0000
  P   P120      1.0  0.89505  0.73324  0.00393  1.0000
  H   H2885     1.0  0.68811  0.66004  0.47170  1.0000
  C   C3595     1.0  0.74856  0.61676  0.23389  1.0000
  H   H2886     1.0  0.96264  0.66385  0.03027  1.0000
  P   P121      1.0  0.71083  0.66941  0.42207  1.0000
  H   H2887     1.0  0.67223  0.64677  0.02679  1.0000
  C   C3596     1.0  0.94291  0.66780  0.42361  1.0000
  S   S484      1.0  0.99004  0.74412  0.25592  1.0000
  C   C3597     1.0  0.86423  0.66928  0.41237  1.0000
  C   C3598     1.0  0.77605  0.62403  0.19262  1.0000
  C   C3599     1.0  0.74402  0.65857  0.17144  1.0000
  C   C3600     1.0  0.90997  0.73601  0.16288  1.0000
  C   C3601     1.0  0.87374  0.62312  0.22221  1.0000
  C   C3602     1.0  0.75305  0.73419  0.12117  1.0000
  C   C3603     1.0  0.74368  0.68381  0.14251  1.0000
  H   H2888     1.0  0.78702  0.62686  0.17722  1.0000
  H   H2889     1.0  0.77468  0.71836  0.37082  1.0000
  C   C3604     1.0  0.70735  0.67341  0.98699  1.0000
  H   H2890     1.0  0.73950  0.68321  0.18465  1.0000
  C   C3605     1.0  0.70609  0.70581  0.04833  1.0000
  C   C3606     1.0  0.88014  0.61130  0.23857  1.0000
  C   C3607     1.0  0.76742  0.61779  0.23903  1.0000
  C   C3608     1.0  0.74194  0.67584  0.16779  1.0000
  C   C3609     1.0  0.96680  0.67053  0.20062  1.0000
  C   C3610     1.0  0.98698  0.53640  0.12697  1.0000
  C   C3611     1.0  0.71275  0.74052  0.06540  1.0000
  C   C3612     1.0  0.90937  0.64596  0.30274  1.0000
  H   H2891     1.0  0.86841  0.71809  0.40292  1.0000
  C   C3613     1.0  0.88076  0.69341  0.43871  1.0000
  H   H2892     1.0  0.68889  0.64191  0.13870  1.0000
  P   P122      1.0  0.89676  0.71513  0.44098  1.0000
  H   H2893     1.0  0.82968  0.64995  0.98654  1.0000
  H   H2894     1.0  0.70491  0.63215  0.44232  1.0000
  C   C3614     1.0  0.67569  0.67751  0.09274  1.0000
  H   H2895     1.0  0.85130  0.74522  0.15419  1.0000
  C   C3615     1.0  0.70163  0.61632  0.40831  1.0000
  H   H2896     1.0  0.93569  0.73712  0.01030  1.0000
  C   C3616     1.0  0.90643  0.65246  0.32743  1.0000
  H   H2897     1.0  0.90251  0.60748  0.26254  1.0000
  H   H2898     1.0  0.89668  0.66147  0.44364  1.0000
  H   H2899     1.0  0.78272  0.74514  0.12377  1.0000
  H   H2900     1.0  0.92657  0.72833  0.30129  1.0000
  C   C3617     1.0  0.93582  0.64994  0.46437  1.0000
  H   H2901     1.0  0.94126  0.68426  0.00066  1.0000
  H   H2902     1.0  0.98414  0.60957  0.36612  1.0000
  C   C3618     1.0  0.98531  0.67014  0.05696  1.0000
  C   C3619     1.0  0.95150  0.59838  0.23768  1.0000
  H   H2903     1.0  0.74826  0.72935  0.38966  1.0000
  S   S485      1.0  0.81553  0.70688  0.46835  1.0000
  C   C3620     1.0  0.98200  0.61852  0.38113  1.0000
  C   C3621     1.0  0.91499  0.74071  0.40214  1.0000
  C   C3622     1.0  0.89785  0.61669  0.24959  1.0000
  H   H2904     1.0  0.68537  0.73229  0.08496  1.0000
  C   C3623     1.0  0.92917  0.72344  0.00606  1.0000
  H   H2905     1.0  0.91528  0.73662  0.05253  1.0000
  C   C3624     1.0  0.90936  0.63394  0.24410  1.0000
  H   H2906     1.0  0.87134  0.59795  0.24281  1.0000
  H   H2907     1.0  0.73794  0.61410  0.24992  1.0000
  C   C3625     1.0  0.89490  0.73598  0.08413  1.0000
  C   C3626     1.0  0.94051  0.71148  0.00509  1.0000
  H   H2908     1.0  0.95542  0.71604  0.00853  1.0000
  C   C3627     1.0  0.71709  0.66689  0.45578  1.0000
  C   C3628     1.0  0.92407  0.66875  0.42328  1.0000
  C   C3629     1.0  0.72323  0.71818  0.04138  1.0000
  H   H2909     1.0  0.97490  0.52576  0.13384  1.0000
  H   H2910     1.0  0.73175  0.66445  0.03941  1.0000
  H   H2911     1.0  0.88942  0.72684  0.22462  1.0000
  H   H2912     1.0  0.70382  0.74105  0.21698  1.0000
  C   C3630     1.0  0.69164  0.66987  0.13095  1.0000
  C   C3631     1.0  0.98837  0.67904  0.43467  1.0000
  C   C3632     1.0  0.65983  0.68595  0.26340  1.0000
  H   H2913     1.0  0.84802  0.73258  0.07709  1.0000
  Fe  Fe236     1.0  0.98182  0.70058  0.33042  1.0000
  H   H2914     1.0  0.97240  0.58732  0.25576  1.0000
  Fe  Fe237     1.0  0.97044  0.73929  0.10567  1.0000
  C   C3633     1.0  0.67497  0.72864  0.27216  1.0000
  H   H2915     1.0  0.91956  0.66636  0.36055  1.0000
  S   S486      1.0  0.86656  0.73332  0.26623  1.0000
  H   H2916     1.0  0.68432  0.73389  0.31190  1.0000
  H   H2917     1.0  0.97904  0.55604  0.15069  1.0000
  P   P123      1.0  0.66991  0.69447  0.07178  1.0000
  H   H2918     1.0  0.66972  0.67721  0.35246  1.0000
  H   H2919     1.0  0.73965  0.74524  0.04396  1.0000
  H   H2920     1.0  0.98541  0.52105  0.22334  1.0000
  H   H2921     1.0  0.70015  0.67393  0.14773  1.0000
  H   H2922     1.0  0.75497  0.72458  0.10703  1.0000
  H   H2923     1.0  0.98665  0.52787  0.29435  1.0000
  H   H2924     1.0  0.84390  0.64792  0.43357  1.0000
  H   H2925     1.0  0.97460  0.66790  0.18339  1.0000
  H   H2926     1.0  0.70360  0.69245  0.04148  1.0000
  C   C3634     1.0  0.70697  0.74380  0.28327  1.0000
  H   H2927     1.0  0.69121  0.69655  0.11932  1.0000
  H   H2928     1.0  0.87147  0.73449  0.11176  1.0000
  H   H2929     1.0  0.85807  0.73303  0.03037  1.0000
  H   H2930     1.0  0.90519  0.73686  0.09917  1.0000
  H   H2931     1.0  0.67677  0.70613  0.01560  1.0000
  C   C3635     1.0  0.87520  0.72652  0.98297  1.0000
  C   C3636     1.0  0.91705  0.65110  0.46411  1.0000
  C   C3637     1.0  0.97963  0.73681  0.17861  1.0000
  Fe  Fe238     1.0  0.97683  0.74154  0.04483  1.0000
  H   H2932     1.0  0.66999  0.70869  0.44688  1.0000
  H   H2933     1.0  0.98920  0.55109  0.45257  1.0000
  C   C3638     1.0  0.88286  0.73672  0.37238  1.0000
  H   H2934     1.0  0.96774  0.70655  0.47343  1.0000
  C   C3639     1.0  0.66480  0.69461  0.01740  1.0000
  C   C3640     1.0  0.66646  0.70531  0.18294  1.0000
  H   H2935     1.0  0.71065  0.74558  0.98470  1.0000
  S   S487      1.0  0.69776  0.59642  0.47515  1.0000
  H   H2936     1.0  0.85084  0.66073  0.47721  1.0000
  H   H2937     1.0  0.98595  0.73149  0.16227  1.0000
  Fe  Fe239     1.0  0.65929  0.59667  0.97900  1.0000
  C   C3641     1.0  0.76369  0.74640  0.31546  1.0000
  H   H2938     1.0  0.83311  0.69522  0.97980  1.0000
  C   C3642     1.0  0.76890  0.74596  0.13088  1.0000
  C   C3643     1.0  0.71947  0.73702  0.97855  1.0000
  H   H2939     1.0  0.98638  0.67521  0.39261  1.0000
  C   C3644     1.0  0.96654  0.74677  0.17394  1.0000
  C   C3645     1.0  0.71266  0.74570  0.25664  1.0000
  C   C3646     1.0  0.98945  0.67591  0.00972  1.0000
  C   C3647     1.0  0.97991  0.65028  0.47625  1.0000
  C   C3648     1.0  0.73256  0.74716  0.14795  1.0000
  C   C3649     1.0  0.70293  0.66251  0.47606  1.0000
  C   C3650     1.0  0.99240  0.68406  0.40787  1.0000
  H   H2940     1.0  0.99171  0.55939  0.27927  1.0000
  H   H2941     1.0  0.71852  0.74778  0.15442  1.0000
  C   C3651     1.0  0.92170  0.70799  0.47744  1.0000
  H   H2942     1.0  0.70016  0.68897  0.61241  1.0000
  C   C3652     1.0  0.67433  0.65565  0.62494  1.0000
  H   H2943     1.0  0.85364  0.68357  0.72836  1.0000
  H   H2944     1.0  0.94240  0.50042  0.58453  1.0000
  Fe  Fe240     1.0  0.66600  0.59402  0.47818  1.0000
  Fe  Fe241     1.0  0.96635  0.70656  0.56182  1.0000
  S   S488      1.0  0.94853  0.67931  0.55161  1.0000
  Fe  Fe242     1.0  0.79060  0.65816  0.53916  1.0000
  S   S489      1.0  0.79286  0.68755  0.53763  1.0000
  S   S490      1.0  0.76031  0.64133  0.54839  1.0000
  Fe  Fe243     1.0  0.83440  0.66504  0.53467  1.0000
  S   S491      1.0  0.83868  0.69450  0.53252  1.0000
  S   S492      1.0  0.85983  0.65304  0.53197  1.0000
  Fe  Fe244     1.0  0.81638  0.68965  0.56562  1.0000
  S   S493      1.0  0.82051  0.70777  0.60050  1.0000
  Fe  Fe245     1.0  0.81472  0.68902  0.50484  1.0000
  C   C3653     1.0  0.69047  0.68305  0.93719  1.0000
  S   S494      1.0  0.81315  0.66029  0.56918  1.0000
  S   S495      1.0  0.81145  0.65956  0.50486  1.0000
  Fe  Fe246     1.0  0.79757  0.73012  0.78654  1.0000
  S   S496      1.0  0.78374  0.70090  0.78767  1.0000
  C   C3654     1.0  0.94842  0.51112  0.88059  1.0000
  Fe  Fe247     1.0  0.83695  0.72466  0.78716  1.0000
  S   S497      1.0  0.82604  0.69495  0.78849  1.0000
  C   C3655     1.0  0.90063  0.74049  0.47923  1.0000
  Fe  Fe248     1.0  0.80657  0.69977  0.75724  1.0000
  S   S498      1.0  0.80055  0.68251  0.72141  1.0000
  Fe  Fe249     1.0  0.80451  0.69924  0.81878  1.0000
  S   S499      1.0  0.79774  0.68166  0.85658  1.0000
  S   S500      1.0  0.81890  0.72926  0.75415  1.0000
  S   S501      1.0  0.81684  0.72866  0.81934  1.0000
  Fe  Fe250     1.0  0.95301  0.70751  0.82453  1.0000
  H   H2945     1.0  0.91818  0.54108  0.64143  1.0000
  S   S502      1.0  0.92224  0.69327  0.82427  1.0000
  S   S503      1.0  0.97219  0.70059  0.79379  1.0000
  S   S504      1.0  0.97044  0.70346  0.85854  1.0000
  H   H2946     1.0  0.85677  0.68869  0.84404  1.0000
  C   C3656     1.0  0.75062  0.66323  0.90124  1.0000
  P   P124      1.0  0.97535  0.52500  0.60583  1.0000
  C   C3657     1.0  0.91788  0.50772  0.59982  1.0000
  C   C3658     1.0  0.99067  0.55407  0.63606  1.0000
  Fe  Fe251     1.0  0.99105  0.69934  0.82714  1.0000
  H   H2947     1.0  0.98302  0.59568  0.71981  1.0000
  S   S505      1.0  0.96577  0.73685  0.81904  1.0000
  C   C3659     1.0  0.72351  0.73307  0.48478  1.0000
  H   H2948     1.0  0.75270  0.72283  0.87074  1.0000
  H   H2949     1.0  0.96199  0.53276  0.55417  1.0000
  H   H2950     1.0  0.66345  0.72094  0.77803  1.0000
  H   H2951     1.0  0.67267  0.70185  0.61927  1.0000
  C   C3660     1.0  0.87795  0.70840  0.79506  1.0000
  C   C3661     1.0  0.89006  0.69822  0.80361  1.0000
  C   C3662     1.0  0.90734  0.70643  0.81416  1.0000
  C   C3663     1.0  0.91268  0.72494  0.81571  1.0000
  H   H2952     1.0  0.69019  0.74755  0.80409  1.0000
  H   H2953     1.0  0.86484  0.70196  0.78656  1.0000
  H   H2954     1.0  0.88612  0.68396  0.80181  1.0000
  H   H2955     1.0  0.97920  0.67283  0.62409  1.0000
  H   H2956     1.0  0.75252  0.70520  0.48790  1.0000
  C   C3664     1.0  0.81515  0.70041  0.63401  1.0000
  C   C3665     1.0  0.80675  0.68260  0.64135  1.0000
  C   C3666     1.0  0.80248  0.67735  0.66816  1.0000
  C   C3667     1.0  0.80649  0.68981  0.68794  1.0000
  C   C3668     1.0  0.81479  0.70765  0.68056  1.0000
  C   C3669     1.0  0.81917  0.71288  0.65378  1.0000
  H   H2957     1.0  0.80337  0.67290  0.62636  1.0000
  H   H2958     1.0  0.79594  0.66353  0.67359  1.0000
  H   H2959     1.0  0.81790  0.71740  0.69550  1.0000
  H   H2960     1.0  0.82573  0.72669  0.64839  1.0000
  C   C3670     1.0  0.79387  0.70124  0.94076  1.0000
  C   C3671     1.0  0.79512  0.68392  0.93649  1.0000
  C   C3672     1.0  0.79627  0.67818  0.91063  1.0000
  C   C3673     1.0  0.79635  0.68968  0.88872  1.0000
  C   C3674     1.0  0.79477  0.70693  0.89298  1.0000
  C   C3675     1.0  0.79355  0.71266  0.91886  1.0000
  H   H2961     1.0  0.79511  0.67494  0.95313  1.0000
  H   H2962     1.0  0.79695  0.66468  0.90755  1.0000
  H   H2963     1.0  0.79429  0.71580  0.87634  1.0000
  H   H2964     1.0  0.79243  0.72606  0.92191  1.0000
  C   C3676     1.0  0.92386  0.67376  0.54530  1.0000
  C   C3677     1.0  0.91574  0.65648  0.53763  1.0000
  C   C3678     1.0  0.89629  0.65071  0.53365  1.0000
  C   C3679     1.0  0.88440  0.66210  0.53682  1.0000
  C   C3680     1.0  0.89241  0.67964  0.54398  1.0000
  C   C3681     1.0  0.91213  0.68547  0.54816  1.0000
  H   H2965     1.0  0.92453  0.64737  0.53485  1.0000
  H   H2966     1.0  0.89036  0.63719  0.52807  1.0000
  H   H2967     1.0  0.88344  0.68863  0.54649  1.0000
  H   H2968     1.0  0.91812  0.69894  0.55373  1.0000
  H   H2969     1.0  0.73773  0.73782  0.73814  1.0000
  C   C3682     1.0  0.70198  0.73595  0.58276  1.0000
  H   H2970     1.0  0.74796  0.60760  0.59134  1.0000
  C   C3683     1.0  0.91239  0.68842  0.66912  1.0000
  S   S506      1.0  0.95128  0.72746  0.56922  1.0000
  C   C3684     1.0  0.91393  0.71248  0.73577  1.0000
  C   C3685     1.0  0.67039  0.54482  0.89410  1.0000
  C   C3686     1.0  0.74313  0.62965  0.52695  1.0000
  C   C3687     1.0  0.72404  0.62425  0.53602  1.0000
  C   C3688     1.0  0.70989  0.61474  0.52004  1.0000
  C   C3689     1.0  0.72881  0.65953  0.93917  1.0000
  H   H2971     1.0  0.93069  0.70887  0.76840  1.0000
  H   H2972     1.0  0.72015  0.62749  0.55554  1.0000
  H   H2973     1.0  0.69533  0.61056  0.52747  1.0000
  C   C3690     1.0  0.73379  0.60801  0.59777  1.0000
  H   H2974     1.0  0.92313  0.74511  0.96024  1.0000
  C   C3691     1.0  0.90065  0.73515  0.80683  1.0000
  P   P125      1.0  0.87258  0.68705  0.89680  1.0000
  C   C3692     1.0  0.86602  0.67103  0.87162  1.0000
  C   C3693     1.0  0.85876  0.67653  0.92595  1.0000
  C   C3694     1.0  0.83943  0.66817  0.92420  1.0000
  C   C3695     1.0  0.86228  0.72250  0.69220  1.0000
  C   C3696     1.0  0.93694  0.68849  0.62569  1.0000
  C   C3697     1.0  0.92358  0.53236  0.62882  1.0000
  H   H2975     1.0  0.68329  0.69206  0.67254  1.0000
  C   C3698     1.0  0.86724  0.65349  0.87637  1.0000
  C   C3699     1.0  0.86105  0.64062  0.85786  1.0000
  C   C3700     1.0  0.86721  0.70750  0.88593  1.0000
  C   C3701     1.0  0.84846  0.70896  0.88636  1.0000
  C   C3702     1.0  0.84431  0.72427  0.87580  1.0000
  H   H2976     1.0  0.93983  0.64217  0.48011  1.0000
  C   C3703     1.0  0.84421  0.71632  0.95079  1.0000
  C   C3704     1.0  0.88164  0.72153  0.87440  1.0000
  H   H2977     1.0  0.90419  0.67313  0.87622  1.0000
  H   H2978     1.0  0.83252  0.66850  0.90576  1.0000
  H   H2979     1.0  0.68469  0.73198  0.85999  1.0000
  H   H2980     1.0  0.98528  0.54535  0.65318  1.0000
  C   C3705     1.0  0.88569  0.71046  0.61222  1.0000
  H   H2981     1.0  0.88243  0.68025  0.95168  1.0000
  H   H2982     1.0  0.87284  0.64976  0.89452  1.0000
  H   H2983     1.0  0.86206  0.62712  0.86163  1.0000
  H   H2984     1.0  0.83693  0.69820  0.89413  1.0000
  H   H2985     1.0  0.82982  0.72521  0.87568  1.0000
  C   C3706     1.0  0.70065  0.70205  0.60408  1.0000
  H   H2986     1.0  0.72938  0.62131  0.96668  1.0000
  H   H2987     1.0  0.89608  0.72043  0.87235  1.0000
  H   H2988     1.0  0.89184  0.74727  0.55674  1.0000
  C   C3707     1.0  0.68642  0.67138  0.77014  1.0000
  C   C3708     1.0  0.69141  0.68902  0.75966  1.0000
  C   C3709     1.0  0.67721  0.69616  0.74950  1.0000
  P   P126      1.0  0.71564  0.70252  0.75946  1.0000
  C   C3710     1.0  0.72739  0.69299  0.78462  1.0000
  C   C3711     1.0  0.72709  0.70321  0.72721  1.0000
  C   C3712     1.0  0.71762  0.70649  0.70481  1.0000
  C   C3713     1.0  0.72661  0.70817  0.67982  1.0000
  C   C3714     1.0  0.74518  0.70665  0.67698  1.0000
  C   C3715     1.0  0.75490  0.70374  0.69918  1.0000
  C   C3716     1.0  0.74603  0.70235  0.72426  1.0000
  C   C3717     1.0  0.73410  0.67798  0.77946  1.0000
  C   C3718     1.0  0.74168  0.66956  0.79949  1.0000
  C   C3719     1.0  0.74236  0.67590  0.82489  1.0000
  C   C3720     1.0  0.73539  0.69059  0.83027  1.0000
  C   C3721     1.0  0.72814  0.69925  0.81021  1.0000
  C   C3722     1.0  0.71512  0.72505  0.76654  1.0000
  C   C3723     1.0  0.72704  0.73964  0.75227  1.0000
  C   C3724     1.0  0.74897  0.68056  0.89681  1.0000
  H   H2989     1.0  0.69590  0.71458  0.97418  1.0000
  C   C3725     1.0  0.98336  0.49872  0.80590  1.0000
  C   C3726     1.0  0.70196  0.72809  0.78536  1.0000
  C   C3727     1.0  0.87450  0.73616  0.95933  1.0000
  H   H2990     1.0  0.69685  0.66526  0.77802  1.0000
  H   H2991     1.0  0.68062  0.70953  0.74078  1.0000
  H   H2992     1.0  0.70345  0.70824  0.70664  1.0000
  H   H2993     1.0  0.71918  0.71096  0.66274  1.0000
  H   H2994     1.0  0.75212  0.70804  0.65765  1.0000
  C   C3728     1.0  0.76474  0.73436  0.83289  1.0000
  H   H2995     1.0  0.75420  0.70104  0.74120  1.0000
  H   H2996     1.0  0.73326  0.67259  0.76006  1.0000
  H   H2997     1.0  0.74718  0.65822  0.79529  1.0000
  H   H2998     1.0  0.74847  0.66950  0.84030  1.0000
  C   C3729     1.0  0.85697  0.66530  0.97146  1.0000
  H   H2999     1.0  0.72311  0.71075  0.81490  1.0000
  C   C3730     1.0  0.66711  0.71147  0.67739  1.0000
  C   C3731     1.0  0.75050  0.73251  0.96876  1.0000
  Fe  Fe252     1.0  0.97418  0.74473  0.54223  1.0000
  H   H3000     1.0  0.66616  0.64301  0.55237  1.0000
  H   H3001     1.0  0.69279  0.71705  0.79665  1.0000
  S   S507      1.0  0.69110  0.60010  0.97416  1.0000
  H   H3002     1.0  0.97700  0.69377  0.71867  1.0000
  C   C3732     1.0  0.66759  0.66126  0.77066  1.0000
  H   H3003     1.0  0.95250  0.54445  0.63628  1.0000
  C   C3733     1.0  0.93087  0.68712  0.67283  1.0000
  C   C3734     1.0  0.90233  0.72437  0.60972  1.0000
  H   H3004     1.0  0.96425  0.72196  0.73789  1.0000
  C   C3735     1.0  0.98082  0.73839  0.96248  1.0000
  C   C3736     1.0  0.95022  0.49886  0.90038  1.0000
  H   H3005     1.0  0.93751  0.67912  0.88701  1.0000
  H   H3006     1.0  0.86197  0.72337  0.56192  1.0000
  H   H3007     1.0  0.93581  0.68644  0.69256  1.0000
  H   H3008     1.0  0.93655  0.51708  0.88148  1.0000
  H   H3009     1.0  0.95772  0.68724  0.65387  1.0000
  H   H3010     1.0  0.98953  0.50350  0.50279  1.0000
  C   C3737     1.0  0.67947  0.66586  0.93263  1.0000
  C   C3738     1.0  0.75902  0.73681  0.60477  1.0000
  C   C3739     1.0  0.99158  0.66805  0.62794  1.0000
  C   C3740     1.0  0.87335  0.72353  0.57504  1.0000
  H   H3011     1.0  0.84572  0.66594  0.81208  1.0000
  H   H3012     1.0  0.92592  0.73137  0.82399  1.0000
  H   H3013     1.0  0.72090  0.65110  0.95525  1.0000
  H   H3014     1.0  0.90675  0.69849  0.73534  1.0000
  C   C3741     1.0  0.83625  0.65255  0.62697  1.0000
  C   C3742     1.0  0.84313  0.64209  0.60929  1.0000
  C   C3743     1.0  0.86210  0.64710  0.60044  1.0000
  C   C3744     1.0  0.87424  0.66253  0.60931  1.0000
  C   C3745     1.0  0.86753  0.67299  0.62741  1.0000
  C   C3746     1.0  0.84831  0.66804  0.63575  1.0000
  C   C3747     1.0  0.68327  0.70530  0.84874  1.0000
  H   H3015     1.0  0.82141  0.64891  0.63333  1.0000
  H   H3016     1.0  0.83362  0.63042  0.60177  1.0000
  H   H3017     1.0  0.86722  0.63936  0.58591  1.0000
  H   H3018     1.0  0.88865  0.66640  0.60139  1.0000
  H   H3019     1.0  0.84246  0.67626  0.64866  1.0000
  C   C3748     1.0  0.97161  0.52439  0.55143  1.0000
  H   H3020     1.0  0.68819  0.58317  0.59872  1.0000
  H   H3021     1.0  0.86779  0.67441  0.68797  1.0000
  C   C3749     1.0  0.74051  0.65271  0.92237  1.0000
  H   H3022     1.0  0.85843  0.73867  0.92538  1.0000
  C   C3750     1.0  0.93921  0.70616  0.48551  1.0000
  C   C3751     1.0  0.87116  0.71019  0.59486  1.0000
  H   H3023     1.0  0.87424  0.72699  0.65277  1.0000
  C   C3752     1.0  0.98136  0.50994  0.62994  1.0000
  C   C3753     1.0  0.72677  0.66381  0.50830  1.0000
  H   H3024     1.0  0.87402  0.68957  0.48074  1.0000
  C   C3754     1.0  0.97678  0.59840  0.70160  1.0000
  H   H3025     1.0  0.69450  0.71111  0.92667  1.0000
  H   H3026     1.0  0.91366  0.72508  0.62315  1.0000
  H   H3027     1.0  0.69640  0.70489  0.85775  1.0000
  C   C3755     1.0  0.85819  0.67539  0.84827  1.0000
  C   C3756     1.0  0.94321  0.68744  0.65111  1.0000
  C   C3757     1.0  0.91098  0.51913  0.61580  1.0000
  H   H3028     1.0  0.73057  0.66241  0.52849  1.0000
  H   H3029     1.0  0.69682  0.65750  0.51776  1.0000
  C   C3758     1.0  0.73680  0.73321  0.52798  1.0000
  C   C3759     1.0  0.98343  0.73714  0.93482  1.0000
  C   C3760     1.0  0.69370  0.62536  0.70305  1.0000
  C   C3761     1.0  0.69518  0.64078  0.71700  1.0000
  C   C3762     1.0  0.70052  0.65740  0.70374  1.0000
  C   C3763     1.0  0.70473  0.65866  0.67661  1.0000
  C   C3764     1.0  0.70363  0.64323  0.66249  1.0000
  C   C3765     1.0  0.69778  0.62655  0.67589  1.0000
  P   P127      1.0  0.70811  0.64492  0.62716  1.0000
  C   C3766     1.0  0.68763  0.64867  0.61117  1.0000
  C   C3767     1.0  0.72891  0.66257  0.61769  1.0000
  C   C3768     1.0  0.73245  0.66854  0.59120  1.0000
  C   C3769     1.0  0.74949  0.68072  0.58312  1.0000
  C   C3770     1.0  0.76308  0.68718  0.60144  1.0000
  C   C3771     1.0  0.75971  0.68127  0.62779  1.0000
  C   C3772     1.0  0.74283  0.66888  0.63589  1.0000
  C   C3773     1.0  0.68463  0.64426  0.58481  1.0000
  C   C3774     1.0  0.97401  0.65710  0.49941  1.0000
  H   H3030     1.0  0.67580  0.65872  0.64542  1.0000
  H   H3031     1.0  0.95076  0.70196  0.91913  1.0000
  H   H3032     1.0  0.96534  0.66653  0.49856  1.0000
  C   C3775     1.0  0.71242  0.62453  0.61557  1.0000
  C   C3776     1.0  0.69713  0.60979  0.61230  1.0000
  C   C3777     1.0  0.73085  0.62344  0.60856  1.0000
  H   H3033     1.0  0.68892  0.61243  0.71317  1.0000
  H   H3034     1.0  0.69164  0.63976  0.73795  1.0000
  H   H3035     1.0  0.70104  0.66928  0.71441  1.0000
  H   H3036     1.0  0.70854  0.67162  0.66655  1.0000
  H   H3037     1.0  0.69601  0.61437  0.66551  1.0000
  H   H3038     1.0  0.72243  0.66326  0.57654  1.0000
  H   H3039     1.0  0.75240  0.68472  0.56249  1.0000
  H   H3040     1.0  0.77645  0.69637  0.59513  1.0000
  H   H3041     1.0  0.77040  0.68600  0.64191  1.0000
  H   H3042     1.0  0.74106  0.66386  0.65615  1.0000
  H   H3043     1.0  0.69428  0.63834  0.57394  1.0000
  C   C3778     1.0  0.85873  0.73819  0.86461  1.0000
  C   C3779     1.0  0.85186  0.66245  0.82993  1.0000
  C   C3780     1.0  0.77661  0.74035  0.56279  1.0000
  C   C3781     1.0  0.86165  0.73513  0.48871  1.0000
  H   H3044     1.0  0.68287  0.61036  0.61784  1.0000
  H   H3045     1.0  0.74300  0.63459  0.61048  1.0000
  C   C3782     1.0  0.93744  0.64093  0.59560  1.0000
  C   C3783     1.0  0.91988  0.64247  0.60544  1.0000
  C   C3784     1.0  0.91666  0.64342  0.63251  1.0000
  C   C3785     1.0  0.93109  0.64311  0.64973  1.0000
  C   C3786     1.0  0.94896  0.64201  0.63992  1.0000
  C   C3787     1.0  0.95187  0.64054  0.61273  1.0000
  P   P128      1.0  0.96791  0.64202  0.66190  1.0000
  H   H3046     1.0  0.67188  0.73979  0.73718  1.0000
  C   C3788     1.0  0.96401  0.65323  0.69135  1.0000
  C   C3789     1.0  0.97321  0.67119  0.69408  1.0000
  C   C3790     1.0  0.96972  0.67993  0.71656  1.0000
  C   C3791     1.0  0.95699  0.67078  0.73649  1.0000
  C   C3792     1.0  0.94782  0.65288  0.73404  1.0000
  C   C3793     1.0  0.95129  0.64411  0.71157  1.0000
  C   C3794     1.0  0.77537  0.73603  0.61769  1.0000
  C   C3795     1.0  0.67662  0.72056  0.85015  1.0000
  S   S508      1.0  0.98506  0.71298  0.59643  1.0000
  H   H3047     1.0  0.90336  0.68869  0.68623  1.0000
  H   H3048     1.0  0.76947  0.70285  0.69711  1.0000
  C   C3796     1.0  0.96830  0.61945  0.67095  1.0000
  C   C3797     1.0  0.96128  0.60553  0.65422  1.0000
  C   C3798     1.0  0.96192  0.58816  0.66126  1.0000
  C   C3799     1.0  0.96961  0.58459  0.68498  1.0000
  C   C3800     1.0  0.72499  0.73905  0.51044  1.0000
  C   C3801     1.0  0.97614  0.61575  0.69466  1.0000
  H   H3049     1.0  0.93998  0.64040  0.57457  1.0000
  H   H3050     1.0  0.90883  0.64307  0.59205  1.0000
  H   H3051     1.0  0.90307  0.64474  0.64010  1.0000
  H   H3052     1.0  0.92828  0.64412  0.67053  1.0000
  H   H3053     1.0  0.96538  0.63938  0.60465  1.0000
  H   H3054     1.0  0.75133  0.70664  0.95673  1.0000
  C   C3802     1.0  0.99007  0.73900  0.72137  1.0000
  H   H3055     1.0  0.95427  0.67752  0.75391  1.0000
  H   H3056     1.0  0.93809  0.64580  0.74967  1.0000
  H   H3057     1.0  0.94397  0.63025  0.70992  1.0000
  C   C3803     1.0  0.87018  0.71742  0.66919  1.0000
  C   C3804     1.0  0.99077  0.74503  0.67367  1.0000
  H   H3058     1.0  0.72869  0.70604  0.58689  1.0000
  H   H3059     1.0  0.96772  0.52289  0.50963  1.0000
  H   H3060     1.0  0.66507  0.70681  0.90312  1.0000
  H   H3061     1.0  0.95535  0.60801  0.63572  1.0000
  H   H3062     1.0  0.98192  0.62630  0.70773  1.0000
  C   C3805     1.0  0.67311  0.69071  0.83550  1.0000
  C   C3806     1.0  0.92847  0.68622  0.89685  1.0000
  C   C3807     1.0  0.70012  0.59436  0.60160  1.0000
  S   S509      1.0  0.68661  0.72997  0.66789  1.0000
  H   H3063     1.0  0.67838  0.67893  0.83414  1.0000
  H   H3064     1.0  0.74616  0.73623  0.61642  1.0000
  Fe  Fe253     1.0  0.97103  0.73504  0.60241  1.0000
  C   C3808     1.0  0.71843  0.59352  0.59413  1.0000
  C   C3809     1.0  0.66968  0.69412  0.67835  1.0000
  C   C3810     1.0  0.79222  0.73716  0.60319  1.0000
  C   C3811     1.0  0.90972  0.72469  0.71779  1.0000
  C   C3812     1.0  0.71475  0.61008  0.49491  1.0000
  C   C3813     1.0  0.68552  0.69777  0.92556  1.0000
  H   H3065     1.0  0.89585  0.51764  0.61823  1.0000
  C   C3814     1.0  0.85861  0.69307  0.71197  1.0000
  C   C3815     1.0  0.71682  0.71179  0.58973  1.0000
  C   C3816     1.0  0.89751  0.69187  0.90323  1.0000
  C   C3817     1.0  0.66880  0.64701  0.57240  1.0000
  H   H3066     1.0  0.94141  0.70423  0.50624  1.0000
  C   C3818     1.0  0.94309  0.53427  0.62576  1.0000
  C   C3819     1.0  0.85663  0.71037  0.71363  1.0000
  C   C3820     1.0  0.68579  0.72618  0.59712  1.0000
  C   C3821     1.0  0.92731  0.71834  0.75453  1.0000
  H   H3067     1.0  0.90697  0.64468  0.47978  1.0000
  C   C3822     1.0  0.66897  0.69536  0.91161  1.0000
  C   C3823     1.0  0.86657  0.68795  0.68906  1.0000
  H   H3068     1.0  0.89618  0.71227  0.93066  1.0000
  C   C3824     1.0  0.90458  0.73749  0.58959  1.0000
  C   C3825     1.0  0.90940  0.68271  0.89090  1.0000
  H   H3069     1.0  0.91428  0.69139  0.60205  1.0000
  C   C3826     1.0  0.97486  0.51889  0.52617  1.0000
  C   C3827     1.0  0.90513  0.70495  0.92110  1.0000
  C   C3828     1.0  0.85334  0.64510  0.83466  1.0000
  C   C3829     1.0  0.74792  0.62546  0.50151  1.0000
  H   H3070     1.0  0.85807  0.69979  0.59666  1.0000
  C   C3830     1.0  0.74218  0.71500  0.96238  1.0000
  H   H3071     1.0  0.77510  0.73471  0.63898  1.0000
  H   H3072     1.0  0.80487  0.73651  0.61323  1.0000
  C   C3831     1.0  0.74089  0.66759  0.48821  1.0000
  H   H3073     1.0  0.72072  0.58177  0.58518  1.0000
  H   H3074     1.0  0.81405  0.65230  0.94450  1.0000
  P   P129      1.0  0.88295  0.69339  0.63800  1.0000
  C   C3832     1.0  0.87266  0.70015  0.66758  1.0000
  C   C3833     1.0  0.72724  0.67701  0.93493  1.0000
  C   C3834     1.0  0.93591  0.69907  0.91485  1.0000
  C   C3835     1.0  0.74476  0.71460  0.49425  1.0000
  H   H3075     1.0  0.84838  0.63511  0.82040  1.0000
  C   C3836     1.0  0.91855  0.68986  0.62193  1.0000
  C   C3837     1.0  0.92424  0.70844  0.92698  1.0000
  H   H3076     1.0  0.95656  0.57748  0.64823  1.0000
  H   H3077     1.0  0.76251  0.62951  0.49420  1.0000
  H   H3078     1.0  0.93007  0.71840  0.94090  1.0000
  C   C3838     1.0  0.71770  0.72892  0.57933  1.0000
  H   H3079     1.0  0.94640  0.68864  0.60878  1.0000
  C   C3839     1.0  0.90612  0.68997  0.64358  1.0000
  C   C3840     1.0  0.87741  0.73688  0.86416  1.0000
  C   C3841     1.0  0.88307  0.72685  0.79700  1.0000
  H   H3080     1.0  0.97029  0.57117  0.69041  1.0000
  S   S510      1.0  0.86768  0.73973  0.78753  1.0000
  H   H3081     1.0  0.75430  0.71477  0.53357  1.0000
  H   H3082     1.0  0.73580  0.70078  0.90939  1.0000
  S   S511      1.0  0.98890  0.72347  0.53403  1.0000
  H   H3083     1.0  0.66070  0.69473  0.97560  1.0000
  C   C3842     1.0  0.95018  0.52305  0.60936  1.0000
  H   H3084     1.0  0.96007  0.52488  0.84412  1.0000
  S   S512      1.0  0.72104  0.73742  0.88203  1.0000
  H   H3085     1.0  0.73566  0.69541  0.84997  1.0000
  C   C3843     1.0  0.89010  0.73707  0.57225  1.0000
  C   C3844     1.0  0.82895  0.65874  0.94601  1.0000
  C   C3845     1.0  0.96227  0.72730  0.69621  1.0000
  S   S513      1.0  0.79355  0.70938  0.97297  1.0000
  C   C3846     1.0  0.86748  0.67478  0.94975  1.0000
  C   C3847     1.0  0.73712  0.68738  0.91333  1.0000
  C   C3848     1.0  0.98830  0.54776  0.61051  1.0000
  H   H3086     1.0  0.94754  0.72016  0.69592  1.0000
  H   H3087     1.0  0.85044  0.71429  0.73140  1.0000
  C   C3849     1.0  0.99148  0.63840  0.47817  1.0000
  H   H3088     1.0  0.75712  0.68879  0.88072  1.0000
  H   H3089     1.0  0.83218  0.71250  0.93853  1.0000
  C   C3850     1.0  0.87433  0.74772  0.50263  1.0000
  P   P130      1.0  0.71161  0.68573  0.95570  1.0000
  C   C3851     1.0  0.73383  0.61555  0.48572  1.0000
  C   C3852     1.0  0.91858  0.74281  0.71886  1.0000
  C   C3853     1.0  0.75175  0.73188  0.85455  1.0000
  H   H3090     1.0  0.94642  0.74062  0.77053  1.0000
  H   H3091     1.0  0.75993  0.65806  0.88841  1.0000
  H   H3092     1.0  0.68355  0.65423  0.94014  1.0000
  C   C3854     1.0  0.97931  0.65190  0.52398  1.0000
  C   C3855     1.0  0.70779  0.66107  0.50223  1.0000
  H   H3093     1.0  0.76579  0.73743  0.96746  1.0000
  C   C3856     1.0  0.97154  0.72863  0.72015  1.0000
  C   C3857     1.0  0.74602  0.72033  0.52005  1.0000
  H   H3094     1.0  0.66384  0.64762  0.77857  1.0000
  H   H3095     1.0  0.68302  0.54579  0.88175  1.0000
  C   C3858     1.0  0.98046  0.51880  0.57303  1.0000
  C   C3859     1.0  0.96184  0.51559  0.85954  1.0000
  C   C3860     1.0  0.76387  0.74640  0.81221  1.0000
  S   S514      1.0  0.95869  0.73556  0.64401  1.0000
  H   H3096     1.0  0.97429  0.51859  0.78239  1.0000
  C   C3861     1.0  0.93737  0.50959  0.59671  1.0000
  H   H3097     1.0  0.89949  0.72015  0.70315  1.0000
  H   H3098     1.0  0.77545  0.72703  0.83230  1.0000
  C   C3862     1.0  0.97176  0.73557  0.67284  1.0000
  C   C3863     1.0  0.71113  0.71947  0.97235  1.0000
  H   H3099     1.0  0.91041  0.70714  0.49219  1.0000
  H   H3100     1.0  0.98294  0.67849  0.67880  1.0000
  C   C3864     1.0  0.85903  0.73108  0.94341  1.0000
  C   C3865     1.0  0.68514  0.70925  0.60782  1.0000
  C   C3866     1.0  0.73914  0.74359  0.97653  1.0000
  C   C3867     1.0  0.93623  0.73645  0.75568  1.0000
  C   C3868     1.0  0.67201  0.54916  0.92051  1.0000
  H   H3101     1.0  0.68586  0.55369  0.92861  1.0000
  H   H3102     1.0  0.74177  0.63925  0.92574  1.0000
  C   C3869     1.0  0.98715  0.50800  0.52227  1.0000
  C   C3870     1.0  0.97460  0.50482  0.78463  1.0000
  C   C3871     1.0  0.72238  0.70849  0.96340  1.0000
  H   H3103     1.0  0.67380  0.73180  0.60031  1.0000
  H   H3104     1.0  0.97465  0.65725  0.54168  1.0000
  H   H3105     1.0  0.86032  0.73579  0.69339  1.0000
  Fe  Fe254     1.0  0.98432  0.73245  0.85175  1.0000
  H   H3106     1.0  0.84650  0.73309  0.49213  1.0000
  H   H3107     1.0  0.80595  0.73992  0.56465  1.0000
  C   C3872     1.0  0.70035  0.74534  0.78943  1.0000
  C   C3873     1.0  0.75945  0.73873  0.57716  1.0000
  C   C3874     1.0  0.83771  0.65735  0.96965  1.0000
  Fe  Fe255     1.0  0.98680  0.72958  0.79078  1.0000
  H   H3108     1.0  0.77758  0.74264  0.54163  1.0000
  H   H3109     1.0  0.98045  0.72708  0.97558  1.0000
  C   C3875     1.0  0.65968  0.72120  0.83875  1.0000
  C   C3876     1.0  0.66310  0.66349  0.91834  1.0000
  H   H3110     1.0  0.88568  0.74771  0.95311  1.0000
  H   H3111     1.0  0.98022  0.68840  0.91084  1.0000
  H   H3112     1.0  0.98510  0.72492  0.92678  1.0000
  C   C3877     1.0  0.73763  0.74111  0.85530  1.0000
  C   C3878     1.0  0.97733  0.50801  0.85840  1.0000
  C   C3879     1.0  0.79282  0.73920  0.57578  1.0000
  C   C3880     1.0  0.99070  0.63999  0.52567  1.0000
  P   P131      1.0  0.73869  0.74131  0.56092  1.0000
  H   H3113     1.0  0.75554  0.66902  0.49295  1.0000
  C   C3881     1.0  0.99164  0.68378  0.91911  1.0000
  H   H3114     1.0  0.88852  0.74749  0.85486  1.0000
  C   C3882     1.0  0.84477  0.70660  0.97413  1.0000
  C   C3883     1.0  0.99036  0.65350  0.64565  1.0000
  C   C3884     1.0  0.66288  0.82853  0.19674  1.0000
  H   H3115     1.0  0.68434  0.85539  0.03729  1.0000
  C   C3885     1.0  0.71306  0.82390  0.05454  1.0000
  C   C3886     1.0  0.75776  0.77876  0.08039  1.0000
  H   H3116     1.0  0.77881  0.84031  0.05285  1.0000
  Fe  Fe256     1.0  0.71422  0.79628  0.39534  1.0000
  Fe  Fe257     1.0  0.68199  0.75139  0.16440  1.0000
  S   S515      1.0  0.73850  0.82084  0.39432  1.0000
  H   H3117     1.0  0.68285  0.82392  0.10718  1.0000
  C   C3887     1.0  0.79920  0.88423  0.38544  1.0000
  H   H3118     1.0  0.67420  0.82836  0.42686  1.0000
  Fe  Fe258     1.0  0.68663  0.77026  0.43339  1.0000
  C   C3888     1.0  0.83095  0.75237  0.18039  1.0000
  S   S516      1.0  0.70378  0.78229  0.35883  1.0000
  S   S517      1.0  0.71600  0.77134  0.41729  1.0000
  Fe  Fe259     1.0  0.74226  0.95811  0.39310  1.0000
  S   S518      1.0  0.77293  0.96421  0.37983  1.0000
  S   S519      1.0  0.72787  0.98021  0.39906  1.0000
  Fe  Fe260     1.0  0.73675  0.91839  0.38788  1.0000
  S   S520      1.0  0.76687  0.92141  0.37386  1.0000
  S   S521      1.0  0.71368  0.89295  0.39187  1.0000
  Fe  Fe261     1.0  0.77330  0.94065  0.40676  1.0000
  S   S522      1.0  0.79671  0.93908  0.43420  1.0000
  Fe  Fe262     1.0  0.76354  0.94460  0.34829  1.0000
  S   S523      1.0  0.76799  0.95328  0.30455  1.0000
  S   S524      1.0  0.74333  0.93605  0.42208  1.0000
  S   S525      1.0  0.73275  0.94000  0.36035  1.0000
  Fe  Fe263     1.0  0.70103  0.79206  0.15538  1.0000
  S   S526      1.0  0.72793  0.81483  0.14860  1.0000
  S   S527      1.0  0.69332  0.77359  0.19161  1.0000
  S   S528      1.0  0.69366  0.76905  0.12840  1.0000
  Fe  Fe264     1.0  0.77428  0.96192  0.11914  1.0000
  S   S529      1.0  0.80328  0.95733  0.12091  1.0000
  S   S530      1.0  0.67277  0.79802  0.15391  1.0000
  Fe  Fe265     1.0  0.75525  0.92100  0.12843  1.0000
  S   S531      1.0  0.78344  0.91505  0.12952  1.0000
  S   S532      1.0  0.72903  0.89762  0.13604  1.0000
  Fe  Fe266     1.0  0.79110  0.93838  0.15566  1.0000
  S   S533      1.0  0.80320  0.93453  0.19572  1.0000
  Fe  Fe267     1.0  0.79148  0.93462  0.09471  1.0000
  S   S534      1.0  0.80668  0.92813  0.05799  1.0000
  S   S535      1.0  0.76268  0.94406  0.15528  1.0000
  S   S536      1.0  0.76276  0.93948  0.09214  1.0000
  C   C3889     1.0  0.72797  0.83782  0.14588  1.0000
  C   C3890     1.0  0.74523  0.85076  0.14113  1.0000
  C   C3891     1.0  0.74580  0.86900  0.13809  1.0000
  C   C3892     1.0  0.72909  0.87466  0.13960  1.0000
  C   C3893     1.0  0.71185  0.86172  0.14462  1.0000
  C   C3894     1.0  0.71128  0.84349  0.14784  1.0000
  H   H3119     1.0  0.75829  0.84671  0.13978  1.0000
  H   H3120     1.0  0.75923  0.87865  0.13451  1.0000
  H   H3121     1.0  0.69881  0.86581  0.14636  1.0000
  H   H3122     1.0  0.69789  0.83387  0.15192  1.0000
  C   C3895     1.0  0.77724  0.94664  0.27496  1.0000
  C   C3896     1.0  0.77094  0.95195  0.25099  1.0000
  C   C3897     1.0  0.77838  0.94792  0.22676  1.0000
  C   C3898     1.0  0.79277  0.93903  0.22608  1.0000
  C   C3899     1.0  0.79922  0.93384  0.25009  1.0000
  C   C3900     1.0  0.79132  0.93739  0.27443  1.0000
  H   H3123     1.0  0.76037  0.95944  0.25113  1.0000
  H   H3124     1.0  0.77334  0.95219  0.20863  1.0000
  H   H3125     1.0  0.81062  0.92734  0.24989  1.0000
  H   H3126     1.0  0.79669  0.93362  0.29270  1.0000
  C   C3901     1.0  0.73153  0.78966  0.47551  1.0000
  C   C3902     1.0  0.73208  0.88916  0.98735  1.0000
  C   C3903     1.0  0.78891  0.93931  0.01438  1.0000
  C   C3904     1.0  0.80399  0.93311  0.02407  1.0000
  C   C3905     1.0  0.81779  0.93035  0.00611  1.0000
  C   C3906     1.0  0.69373  0.89486  0.98131  1.0000
  C   C3907     1.0  0.74060  0.75601  0.34292  1.0000
  H   H3127     1.0  0.77808  0.94139  0.02798  1.0000
  H   H3128     1.0  0.82945  0.92556  0.01320  1.0000
  S   S537      1.0  0.97623  0.75799  0.00715  1.0000
  C   C3908     1.0  0.73170  0.84091  0.39340  1.0000
  C   C3909     1.0  0.71287  0.84100  0.38981  1.0000
  C   C3910     1.0  0.70742  0.85698  0.39033  1.0000
  C   C3911     1.0  0.72093  0.87309  0.39317  1.0000
  C   C3912     1.0  0.73990  0.87310  0.39600  1.0000
  C   C3913     1.0  0.74524  0.85699  0.39639  1.0000
  H   H3129     1.0  0.70246  0.82876  0.38666  1.0000
  H   H3130     1.0  0.69278  0.85693  0.38778  1.0000
  H   H3131     1.0  0.75041  0.88547  0.39819  1.0000
  H   H3132     1.0  0.75985  0.85699  0.39905  1.0000
  H   H3133     1.0  0.78867  0.80885  0.24201  1.0000
  H   H3134     1.0  0.67568  0.77357  0.26061  1.0000
  H   H3135     1.0  0.67908  0.96480  0.38968  1.0000
  H   H3136     1.0  0.68834  0.96869  0.25112  1.0000
  C   C3914     1.0  0.66021  0.97264  0.36282  1.0000
  S   S538      1.0  0.68555  0.79596  0.41273  1.0000
  C   C3915     1.0  0.68755  0.82296  0.08700  1.0000
  C   C3916     1.0  0.67775  0.91869  0.98333  1.0000
  C   C3917     1.0  0.81630  0.89334  0.24310  1.0000
  H   H3137     1.0  0.83062  0.98036  0.98164  1.0000
  H   H3138     1.0  0.74612  0.76844  0.17177  1.0000
  C   C3918     1.0  0.71341  0.97843  0.42787  1.0000
  C   C3919     1.0  0.71560  0.96782  0.44967  1.0000
  H   H3139     1.0  0.71709  0.74883  0.29798  1.0000
  H   H3140     1.0  0.72628  0.96049  0.44902  1.0000
  C   C3920     1.0  0.69868  0.88345  0.08625  1.0000
  C   C3921     1.0  0.74803  0.98781  0.30053  1.0000
  H   H3141     1.0  0.69379  0.91175  0.30860  1.0000
  H   H3142     1.0  0.92925  0.75943  0.37123  1.0000
  C   C3922     1.0  0.74210  0.78315  0.09215  1.0000
  C   C3923     1.0  0.83938  0.75110  0.15572  1.0000
  C   C3924     1.0  0.75800  0.89326  0.45968  1.0000
  C   C3925     1.0  0.82998  0.98212  0.00260  1.0000
  C   C3926     1.0  0.80327  0.98678  0.19786  1.0000
  H   H3143     1.0  0.73459  0.77534  0.10902  1.0000
  C   C3927     1.0  0.70387  0.93942  0.11031  1.0000
  C   C3928     1.0  0.69805  0.95244  0.09563  1.0000
  H   H3144     1.0  0.79833  0.86924  0.06617  1.0000
  H   H3145     1.0  0.73172  0.89640  0.44499  1.0000
  H   H3146     1.0  0.71516  0.75402  0.07175  1.0000
  H   H3147     1.0  0.96224  0.78741  0.10022  1.0000
  H   H3148     1.0  0.82693  0.98574  0.07831  1.0000
  H   H3149     1.0  0.72745  0.93564  0.23963  1.0000
  C   C3929     1.0  0.67694  0.83021  0.44750  1.0000
  C   C3930     1.0  0.77476  0.78118  0.24984  1.0000
  H   H3150     1.0  0.71155  0.78115  0.25011  1.0000
  H   H3151     1.0  0.77969  0.78559  0.04968  1.0000
  H   H3152     1.0  0.78053  0.89112  0.35798  1.0000
  C   C3931     1.0  0.66678  0.77897  0.30009  1.0000
  H   H3153     1.0  0.69759  0.92545  0.10755  1.0000
  H   H3154     1.0  0.68722  0.94821  0.08162  1.0000
  C   C3932     1.0  0.75484  0.87675  0.07526  1.0000
  H   H3155     1.0  0.67009  0.98331  0.29774  1.0000
  H   H3156     1.0  0.76262  0.75289  0.25207  1.0000
  C   C3933     1.0  0.75759  0.75998  0.32759  1.0000
  C   C3934     1.0  0.67431  0.81853  0.06763  1.0000
  H   H3157     1.0  0.68307  0.98726  0.21327  1.0000
  H   H3158     1.0  0.99168  0.79820  0.12315  1.0000
  C   C3935     1.0  0.71150  0.89725  0.07196  1.0000
  C   C3936     1.0  0.66568  0.77860  0.27223  1.0000
  C   C3937     1.0  0.68948  0.97556  0.32434  1.0000
  H   H3159     1.0  0.80563  0.98584  0.47617  1.0000
  C   C3938     1.0  0.74901  0.82532  0.46239  1.0000
  C   C3939     1.0  0.98915  0.75048  0.42318  1.0000
  H   H3160     1.0  0.79031  0.89215  0.22384  1.0000
  C   C3940     1.0  0.66166  0.77408  0.05861  1.0000
  H   H3161     1.0  0.70456  0.96680  0.35586  1.0000
  C   C3941     1.0  0.66221  0.83092  0.46533  1.0000
  C   C3942     1.0  0.68905  0.86840  0.07359  1.0000
  C   C3943     1.0  0.70682  0.82573  0.08047  1.0000
  H   H3162     1.0  0.67911  0.82378  0.34391  1.0000
  C   C3944     1.0  0.73091  0.98894  0.31281  1.0000
  H   H3163     1.0  0.89839  0.75937  0.22525  1.0000
  H   H3164     1.0  0.80901  0.76020  0.20185  1.0000
  C   C3945     1.0  0.90807  0.77022  0.00586  1.0000
  Fe  Fe268     1.0  0.66506  0.77448  0.12822  1.0000
  C   C3946     1.0  0.97071  0.75239  0.42671  1.0000
  C   C3947     1.0  0.82791  0.98493  0.05717  1.0000
  C   C3948     1.0  0.97615  0.78968  0.06172  1.0000
  C   C3949     1.0  0.67987  0.77407  0.00841  1.0000
  H   H3165     1.0  0.69292  0.94117  0.32330  1.0000
  H   H3166     1.0  0.67937  0.85760  0.08487  1.0000
  H   H3167     1.0  0.71689  0.82899  0.09576  1.0000
  C   C3950     1.0  0.74260  0.81213  0.21074  1.0000
  H   H3168     1.0  0.73706  0.96638  0.14607  1.0000
  H   H3169     1.0  0.68144  0.96582  0.03810  1.0000
  C   C3951     1.0  0.79663  0.88880  0.24165  1.0000
  C   C3952     1.0  0.77269  0.99297  0.45974  1.0000
  C   C3953     1.0  0.67711  0.96872  0.36954  1.0000
  H   H3170     1.0  0.95908  0.75782  0.23732  1.0000
  H   H3171     1.0  0.72721  0.75214  0.25072  1.0000
  C   C3954     1.0  0.73853  0.88795  0.45633  1.0000
  C   C3955     1.0  0.74245  0.82672  0.01161  1.0000
  C   C3956     1.0  0.71120  0.80854  0.24523  1.0000
  C   C3957     1.0  0.71984  0.82529  0.23315  1.0000
  C   C3958     1.0  0.73565  0.82692  0.21580  1.0000
  P   P132      1.0  0.71007  0.84401  0.23996  1.0000
  C   C3959     1.0  0.69091  0.84424  0.21854  1.0000
  C   C3960     1.0  0.70091  0.84026  0.27378  1.0000
  C   C3961     1.0  0.71206  0.83531  0.29314  1.0000
  C   C3962     1.0  0.70423  0.82942  0.31834  1.0000
  C   C3963     1.0  0.78784  0.94262  0.98685  1.0000
  C   C3964     1.0  0.69796  0.91522  0.46365  1.0000
  C   C3965     1.0  0.67244  0.86063  0.19379  1.0000
  C   C3966     1.0  0.67834  0.82827  0.21206  1.0000
  C   C3967     1.0  0.96450  0.75152  0.22122  1.0000
  S   S539      1.0  0.67287  0.75413  0.39987  1.0000
  C   C3968     1.0  0.81973  0.99337  0.01355  1.0000
  C   C3969     1.0  0.74820  0.79412  0.45976  1.0000
  C   C3970     1.0  0.72733  0.86522  0.23461  1.0000
  C   C3971     1.0  0.73477  0.87069  0.20898  1.0000
  C   C3972     1.0  0.74664  0.88767  0.20369  1.0000
  C   C3973     1.0  0.75077  0.89958  0.22379  1.0000
  C   C3974     1.0  0.74306  0.89453  0.24920  1.0000
  C   C3975     1.0  0.73143  0.87737  0.25473  1.0000
  C   C3976     1.0  0.66091  0.77467  0.01038  1.0000
  H   H3172     1.0  0.75436  0.81341  0.19662  1.0000
  C   C3977     1.0  0.71063  0.92179  0.27314  1.0000
  H   H3173     1.0  0.69872  0.80668  0.25820  1.0000
  H   H3174     1.0  0.74260  0.83937  0.20573  1.0000
  H   H3175     1.0  0.72659  0.83529  0.28843  1.0000
  H   H3176     1.0  0.71267  0.82498  0.33297  1.0000
  H   H3177     1.0  0.72413  0.90715  0.03398  1.0000
  C   C3978     1.0  0.66997  0.96755  0.05096  1.0000
  H   H3178     1.0  0.94933  0.75639  0.45462  1.0000
  H   H3179     1.0  0.68022  0.81561  0.21915  1.0000
  H   H3180     1.0  0.83870  0.75602  0.11392  1.0000
  H   H3181     1.0  0.74819  0.97978  0.28368  1.0000
  C   C3979     1.0  0.67423  0.83403  0.30565  1.0000
  H   H3182     1.0  0.69687  0.87304  0.21457  1.0000
  H   H3183     1.0  0.73079  0.86205  0.19283  1.0000
  H   H3184     1.0  0.75225  0.89181  0.18382  1.0000
  H   H3185     1.0  0.75975  0.91281  0.21947  1.0000
  H   H3186     1.0  0.74612  0.90409  0.26442  1.0000
  H   H3187     1.0  0.72532  0.87380  0.27443  1.0000
  C   C3980     1.0  0.68056  0.77334  0.05652  1.0000
  H   H3188     1.0  0.69824  0.99666  0.41252  1.0000
  H   H3189     1.0  0.82512  0.90018  0.22641  1.0000
  H   H3190     1.0  0.70377  0.81806  0.01494  1.0000
  H   H3191     1.0  0.68838  0.77311  0.07400  1.0000
  C   C3981     1.0  0.77243  0.76239  0.21251  1.0000
  H   H3192     1.0  0.77279  0.78252  0.27084  1.0000
  H   H3193     1.0  0.89833  0.76928  0.02268  1.0000
  H   H3194     1.0  0.91490  0.77742  0.18603  1.0000
  C   C3982     1.0  0.74563  0.88589  0.00436  1.0000
  C   C3983     1.0  0.74568  0.80793  0.06037  1.0000
  H   H3195     1.0  0.76130  0.98051  0.42497  1.0000
  H   H3196     1.0  0.74827  0.88704  0.08155  1.0000
  C   C3984     1.0  0.70425  0.96710  0.47275  1.0000
  C   C3985     1.0  0.99252  0.79681  0.10210  1.0000
  Fe  Fe269     1.0  0.70218  0.75724  0.38277  1.0000
  H   H3197     1.0  0.72850  0.85863  0.06771  1.0000
  H   H3198     1.0  0.75393  0.78374  0.45180  1.0000
  C   C3986     1.0  0.72599  0.87506  0.33026  1.0000
  C   C3987     1.0  0.72930  0.89336  0.32560  1.0000
  C   C3988     1.0  0.74727  0.90339  0.31695  1.0000
  C   C3989     1.0  0.76197  0.89513  0.31289  1.0000
  C   C3990     1.0  0.75879  0.87673  0.31789  1.0000
  C   C3991     1.0  0.74080  0.86686  0.32723  1.0000
  P   P133      1.0  0.77814  0.86632  0.31485  1.0000
  C   C3992     1.0  0.79104  0.86908  0.34476  1.0000
  C   C3993     1.0  0.76860  0.84284  0.31010  1.0000
  C   C3994     1.0  0.76648  0.83615  0.28477  1.0000
  C   C3995     1.0  0.69132  0.99340  0.22934  1.0000
  H   H3199     1.0  0.75652  0.81302  0.26212  1.0000
  C   C3996     1.0  0.75411  0.81311  0.32880  1.0000
  C   C3997     1.0  0.76242  0.83114  0.33205  1.0000
  C   C3998     1.0  0.78943  0.88233  0.36214  1.0000
  C   C3999     1.0  0.81065  0.87291  0.39159  1.0000
  C   C4000     1.0  0.81237  0.85970  0.37438  1.0000
  C   C4001     1.0  0.80264  0.85781  0.35102  1.0000
  C   C4002     1.0  0.79326  0.87658  0.28672  1.0000
  C   C4003     1.0  0.78517  0.88043  0.26333  1.0000
  C   C4004     1.0  0.81305  0.88118  0.28803  1.0000
  H   H3200     1.0  0.71210  0.86737  0.33742  1.0000
  H   H3201     1.0  0.71811  0.89984  0.32963  1.0000
  H   H3202     1.0  0.74982  0.91761  0.31366  1.0000
  H   H3203     1.0  0.77589  0.90319  0.30652  1.0000
  H   H3204     1.0  0.73823  0.85293  0.33286  1.0000
  H   H3205     1.0  0.77098  0.84475  0.26740  1.0000
  C   C4005     1.0  0.72604  0.96240  0.13217  1.0000
  C   C4006     1.0  0.71845  0.79391  0.24063  1.0000
  H   H3206     1.0  0.74923  0.80424  0.34595  1.0000
  H   H3207     1.0  0.76374  0.83600  0.35177  1.0000
  H   H3208     1.0  0.81815  0.87437  0.40970  1.0000
  H   H3209     1.0  0.82118  0.85087  0.37921  1.0000
  H   H3210     1.0  0.80406  0.84747  0.33795  1.0000
  H   H3211     1.0  0.76998  0.87700  0.26192  1.0000
  H   H3212     1.0  0.81971  0.87854  0.30584  1.0000
  C   C4007     1.0  0.79909  0.99458  0.17450  1.0000
  C   C4008     1.0  0.79667  0.93715  0.46914  1.0000
  H   H3213     1.0  0.71110  0.90874  0.26689  1.0000
  H   H3214     1.0  0.72723  0.98928  0.12019  1.0000
  C   C4009     1.0  0.78136  0.77717  0.19601  1.0000
  C   C4010     1.0  0.78712  0.79399  0.20675  1.0000
  P   P134      1.0  0.78697  0.77399  0.16199  1.0000
  C   C4011     1.0  0.80795  0.76563  0.15975  1.0000
  C   C4012     1.0  0.91945  0.78691  0.99731  1.0000
  C   C4013     1.0  0.68240  0.88381  0.46782  1.0000
  C   C4014     1.0  0.90938  0.75494  0.99277  1.0000
  C   C4015     1.0  0.83799  0.97375  0.04611  1.0000
  H   H3215     1.0  0.69633  0.88436  0.10722  1.0000
  C   C4016     1.0  0.71351  0.99615  0.05331  1.0000
  C   C4017     1.0  0.81679  0.76463  0.13508  1.0000
  C   C4018     1.0  0.76901  0.76443  0.23924  1.0000
  C   C4019     1.0  0.71905  0.95379  0.26579  1.0000
  C   C4020     1.0  0.95878  0.75383  0.19545  1.0000
  C   C4021     1.0  0.81532  0.75961  0.18246  1.0000
  C   C4022     1.0  0.79055  0.79496  0.14359  1.0000
  C   C4023     1.0  0.80892  0.80554  0.13725  1.0000
  C   C4024     1.0  0.81158  0.82185  0.12328  1.0000
  C   C4025     1.0  0.79596  0.82779  0.11572  1.0000
  C   C4026     1.0  0.77768  0.81749  0.12230  1.0000
  C   C4027     1.0  0.77496  0.80127  0.13642  1.0000
  H   H3216     1.0  0.68639  0.89942  0.43130  1.0000
  H   H3217     1.0  0.76627  0.90593  0.45113  1.0000
  C   C4028     1.0  0.69159  0.97000  0.35034  1.0000
  H   H3218     1.0  0.74130  0.87903  0.02316  1.0000
  H   H3219     1.0  0.79450  0.80552  0.19461  1.0000
  S   S540      1.0  0.68250  0.76064  0.47696  1.0000
  H   H3220     1.0  0.71298  0.86754  0.46301  1.0000
  C   C4029     1.0  0.67228  0.97911  0.31760  1.0000
  H   H3221     1.0  0.96315  0.78484  0.05159  1.0000
  H   H3222     1.0  0.84673  0.96358  0.01030  1.0000
  H   H3223     1.0  0.81140  0.76916  0.11729  1.0000
  C   C4030     1.0  0.70614  0.97058  0.09927  1.0000
  C   C4031     1.0  0.68532  0.82877  0.32458  1.0000
  H   H3224     1.0  0.82121  0.80135  0.14331  1.0000
  H   H3225     1.0  0.82578  0.82997  0.11848  1.0000
  H   H3226     1.0  0.79801  0.84047  0.10505  1.0000
  H   H3227     1.0  0.76550  0.82210  0.11665  1.0000
  H   H3228     1.0  0.76063  0.79385  0.14178  1.0000
  S   S541      1.0  0.96055  0.75176  0.14152  1.0000
  H   H3229     1.0  0.76232  0.76746  0.08798  1.0000
  C   C4032     1.0  0.75553  0.97014  0.01405  1.0000
  H   H3230     1.0  0.67006  0.81316  0.02681  1.0000
  C   C4033     1.0  0.74365  0.86042  0.06776  1.0000
  C   C4034     1.0  0.76160  0.80354  0.04891  1.0000
  H   H3231     1.0  0.76933  0.81120  0.03203  1.0000
  C   C4035     1.0  0.77189  0.85024  0.05942  1.0000
  C   C4036     1.0  0.73606  0.79764  0.08224  1.0000
  C   C4037     1.0  0.78304  0.86663  0.06684  1.0000
  C   C4038     1.0  0.67374  0.97809  0.07299  1.0000
  C   C4039     1.0  0.70473  0.99089  0.27190  1.0000
  H   H3232     1.0  0.72385  0.80058  0.09177  1.0000
  C   C4040     1.0  0.75819  0.81808  0.28161  1.0000
  H   H3233     1.0  0.78319  0.89268  0.08010  1.0000
  C   C4041     1.0  0.83233  0.75725  0.13308  1.0000
  C   C4042     1.0  0.77426  0.98038  0.01449  1.0000
  C   C4043     1.0  0.76670  0.75845  0.14930  1.0000
  H   H3234     1.0  0.74532  0.79261  0.30116  1.0000
  H   H3235     1.0  0.70279  0.92736  0.45151  1.0000
  S   S542      1.0  0.67250  0.97602  0.98277  1.0000
  C   C4044     1.0  0.73403  0.79563  0.22315  1.0000
  H   H3236     1.0  0.71936  0.90871  0.08199  1.0000
  H   H3237     1.0  0.96235  0.75290  0.40975  1.0000
  S   S543      1.0  0.77087  0.99021  0.11063  1.0000
  C   C4045     1.0  0.70944  0.95566  0.28952  1.0000
  C   C4046     1.0  0.76754  0.78899  0.05883  1.0000
  C   C4047     1.0  0.77452  0.87990  0.07467  1.0000
  H   H3238     1.0  0.91850  0.79865  0.00759  1.0000
  H   H3239     1.0  0.76630  0.77351  0.32576  1.0000
  H   H3240     1.0  0.73625  0.76646  0.35288  1.0000
  H   H3241     1.0  0.82088  0.92624  0.46692  1.0000
  C   C4048     1.0  0.70039  0.94031  0.30489  1.0000
  H   H3242     1.0  0.73928  0.78416  0.21896  1.0000
  C   C4049     1.0  0.69822  0.85882  0.98427  1.0000
  C   C4050     1.0  0.73627  0.81091  0.99828  1.0000
  H   H3243     1.0  0.70645  0.83098  0.44232  1.0000
  C   C4051     1.0  0.76493  0.89144  0.99717  1.0000
  C   C4052     1.0  0.68955  0.77326  0.03163  1.0000
  C   C4053     1.0  0.69989  0.98830  0.42923  1.0000
  C   C4054     1.0  0.91601  0.75039  0.37823  1.0000
  C   C4055     1.0  0.70423  0.88134  0.03173  1.0000
  H   H3244     1.0  0.78239  0.97877  0.03132  1.0000
  C   C4056     1.0  0.68193  0.83973  0.28032  1.0000
  S   S544      1.0  0.78526  0.75159  0.29707  1.0000
  H   H3245     1.0  0.67763  0.77425  0.30972  1.0000
  C   C4057     1.0  0.69964  0.81973  0.03509  1.0000
  S   S545      1.0  0.69249  0.77458  0.97782  1.0000
  P   P135      1.0  0.70853  0.97751  0.29984  1.0000
  P   P136      1.0  0.73804  0.82664  0.04681  1.0000
  C   C4058     1.0  0.68038  0.81708  0.04167  1.0000
  C   C4059     1.0  0.91083  0.76305  0.18564  1.0000
  H   H3246     1.0  0.83977  0.89326  0.26745  1.0000
  H   H3247     1.0  0.80598  0.97373  0.19776  1.0000
  C   C4060     1.0  0.69187  0.86726  0.04646  1.0000
  H   H3248     1.0  0.79780  0.89448  0.39876  1.0000
  C   C4061     1.0  0.82451  0.88952  0.26626  1.0000
  C   C4062     1.0  0.71777  0.94440  0.12869  1.0000
  H   H3249     1.0  0.73926  0.99611  0.07332  1.0000
  C   C4063     1.0  0.70091  0.92348  0.29663  1.0000
  C   C4064     1.0  0.75209  0.84702  0.05962  1.0000
  H   H3250     1.0  0.70419  0.77274  0.03036  1.0000
  C   C4065     1.0  0.72038  0.97543  0.11742  1.0000
  C   C4066     1.0  0.69075  0.97703  0.47410  1.0000
  H   H3251     1.0  0.74952  0.96097  0.03045  1.0000
  H   H3252     1.0  0.75544  0.83882  0.45544  1.0000
  Fe  Fe270     1.0  0.67513  0.78004  0.37730  1.0000
  C   C4067     1.0  0.68771  0.86046  0.20949  1.0000
  Fe  Fe271     1.0  0.66467  0.77862  0.18895  1.0000
  H   H3253     1.0  0.72811  0.79886  0.00865  1.0000
  C   C4068     1.0  0.68865  0.89948  0.45226  1.0000
  C   C4069     1.0  0.68845  0.90829  0.99523  1.0000
  C   C4070     1.0  0.78380  0.79596  0.23360  1.0000
  C   C4071     1.0  0.75678  0.81193  0.45293  1.0000
  C   C4072     1.0  0.74466  0.97167  0.99247  1.0000
  H   H3254     1.0  0.79823  0.98746  0.15648  1.0000
  P   P137      1.0  0.70715  0.88087  0.99631  1.0000
  H   H3255     1.0  0.67538  0.87159  0.45880  1.0000
  H   H3256     1.0  0.67280  0.84300  0.26575  1.0000
  C   C4073     1.0  0.83918  0.97249  0.01884  1.0000
  H   H3257     1.0  0.69248  0.91086  0.01520  1.0000
  C   C4074     1.0  0.69518  0.83172  0.45628  1.0000
  H   H3258     1.0  0.94886  0.76174  0.19211  1.0000
  H   H3259     1.0  0.72611  0.96537  0.25351  1.0000
  C   C4075     1.0  0.75290  0.84211  0.99752  1.0000
  C   C4076     1.0  0.74834  0.75890  0.15776  1.0000
  H   H3260     1.0  0.75802  0.85439  0.00729  1.0000
  C   C4077     1.0  0.75191  0.80658  0.30358  1.0000
  C   C4078     1.0  0.72787  0.87146  0.46676  1.0000
  H   H3261     1.0  0.72220  0.93427  0.14006  1.0000
  H   H3262     1.0  0.67382  0.92911  0.99405  1.0000
  H   H3263     1.0  0.66905  0.85726  0.99591  1.0000
  H   H3264     1.0  0.67021  0.87318  0.18666  1.0000
  C   C4079     1.0  0.71428  0.89622  0.04482  1.0000
  P   P138      1.0  0.69791  0.98754  0.08171  1.0000
  C   C4080     1.0  0.76954  0.99260  0.43292  1.0000
  H   H3265     1.0  0.76873  0.74920  0.20485  1.0000
  H   H3266     1.0  0.84455  0.96576  0.05871  1.0000
  C   C4081     1.0  0.97566  0.79107  0.08903  1.0000
  H   H3267     1.0  0.92250  0.76236  0.14629  1.0000
  H   H3268     1.0  0.76900  0.81534  0.43928  1.0000
  C   C4082     1.0  0.71973  0.93694  0.25774  1.0000
  H   H3269     1.0  0.76682  0.98108  0.47209  1.0000
  H   H3270     1.0  0.80753  0.98977  0.23925  1.0000
  H   H3271     1.0  0.77537  0.88934  0.01069  1.0000
  C   C4083     1.0  0.68858  0.98761  0.45228  1.0000
  C   C4084     1.0  0.78225  0.99227  0.99327  1.0000
  C   C4085     1.0  0.69434  0.98293  0.25081  1.0000
  H   H3272     1.0  0.68828  0.98898  0.13785  1.0000
  C   C4086     1.0  0.81878  0.99471  0.04102  1.0000
  C   C4087     1.0  0.67875  0.85053  0.98681  1.0000
  H   H3273     1.0  0.77842  0.99491  0.30156  1.0000
  C   C4088     1.0  0.96339  0.75443  0.45217  1.0000
  H   H3274     1.0  0.65941  0.83301  0.31039  1.0000
  C   C4089     1.0  0.80430  0.99593  0.22116  1.0000
  C   C4090     1.0  0.66002  0.84466  0.18742  1.0000
  C   C4091     1.0  0.91497  0.75458  0.16321  1.0000
  H   H3275     1.0  0.67836  0.99547  0.45321  1.0000
  H   H3276     1.0  0.73016  0.96374  0.99200  1.0000
  C   C4092     1.0  0.76678  0.88222  0.47397  1.0000
  H   H3277     1.0  0.66087  0.98774  0.10662  1.0000
  H   H3278     1.0  0.74554  0.75727  0.98095  1.0000
  H   H3279     1.0  0.90085  0.75538  0.34437  1.0000
  H   H3280     1.0  0.65931  0.81568  0.07288  1.0000
  C   C4093     1.0  0.90171  0.75294  0.20776  1.0000
  H   H3281     1.0  0.78189  0.88646  0.47659  1.0000
  C   C4094     1.0  0.97420  0.75402  0.47441  1.0000
  C   C4095     1.0  0.81701  0.93408  0.97909  1.0000
  C   C4096     1.0  0.76534  0.99658  0.31053  1.0000
  H   H3282     1.0  0.77617  0.94725  0.97944  1.0000
  C   C4097     1.0  0.99246  0.75166  0.47089  1.0000
  C   C4098     1.0  0.90000  0.74822  0.36320  1.0000
  C   C4099     1.0  0.67165  0.83347  0.97768  1.0000
  H   H3283     1.0  0.70896  0.94730  0.60542  1.0000
  H   H3284     1.0  0.67364  0.93624  0.68840  1.0000
  C   C4100     1.0  0.75744  0.90301  0.95542  1.0000
  C   C4101     1.0  0.86307  0.88916  0.66421  1.0000
  H   H3285     1.0  0.80060  0.90548  0.67923  1.0000
  Fe  Fe272     1.0  0.71394  0.80023  0.88972  1.0000
  H   H3286     1.0  0.66395  0.92847  0.73551  1.0000
  S   S546      1.0  0.73722  0.82550  0.88557  1.0000
  Fe  Fe273     1.0  0.70722  0.75993  0.88741  1.0000
  Fe  Fe274     1.0  0.67611  0.77754  0.87590  1.0000
  H   H3287     1.0  0.87006  0.85520  0.61308  1.0000
  Fe  Fe275     1.0  0.68917  0.77598  0.93323  1.0000
  H   H3288     1.0  0.80325  0.88780  0.75941  1.0000
  S   S547      1.0  0.70507  0.78117  0.85760  1.0000
  S   S548      1.0  0.71897  0.77936  0.91739  1.0000
  Fe  Fe276     1.0  0.74927  0.96298  0.89118  1.0000
  S   S549      1.0  0.77899  0.96535  0.87576  1.0000
  S   S550      1.0  0.73819  0.98737  0.89492  1.0000
  Fe  Fe277     1.0  0.73956  0.92250  0.89350  1.0000
  S   S551      1.0  0.76857  0.92184  0.87880  1.0000
  S   S552      1.0  0.71503  0.89820  0.89863  1.0000
  Fe  Fe278     1.0  0.77825  0.94379  0.90718  1.0000
  S   S553      1.0  0.80239  0.94396  0.93431  1.0000
  Fe  Fe279     1.0  0.76635  0.94311  0.84910  1.0000
  S   S554      1.0  0.76456  0.93926  0.80488  1.0000
  S   S555      1.0  0.74928  0.94284  0.92384  1.0000
  S   S556      1.0  0.73666  0.94261  0.86279  1.0000
  Fe  Fe280     1.0  0.70346  0.79955  0.65921  1.0000
  S   S557      1.0  0.72972  0.82324  0.65721  1.0000
  S   S558      1.0  0.69366  0.77933  0.69313  1.0000
  S   S559      1.0  0.69793  0.77818  0.62932  1.0000
  Fe  Fe281     1.0  0.77295  0.96847  0.62009  1.0000
  S   S560      1.0  0.80197  0.96388  0.61968  1.0000
  H   H3289     1.0  0.71025  0.79900  0.49570  1.0000
  Fe  Fe282     1.0  0.75409  0.92784  0.62986  1.0000
  S   S561      1.0  0.78230  0.92167  0.62950  1.0000
  S   S562      1.0  0.72775  0.90471  0.63754  1.0000
  Fe  Fe283     1.0  0.79085  0.94522  0.65481  1.0000
  S   S563      1.0  0.80695  0.94439  0.69212  1.0000
  Fe  Fe284     1.0  0.78945  0.94096  0.59438  1.0000
  S   S564      1.0  0.80479  0.93364  0.55855  1.0000
  S   S565      1.0  0.76235  0.95090  0.65659  1.0000
  S   S566      1.0  0.76074  0.94609  0.59327  1.0000
  C   C4102     1.0  0.72864  0.84575  0.65148  1.0000
  C   C4103     1.0  0.74561  0.85911  0.64771  1.0000
  C   C4104     1.0  0.74557  0.87709  0.64331  1.0000
  C   C4105     1.0  0.72849  0.88208  0.64269  1.0000
  C   C4106     1.0  0.71147  0.86872  0.64628  1.0000
  C   C4107     1.0  0.71153  0.85071  0.65065  1.0000
  H   H3290     1.0  0.75889  0.85562  0.64926  1.0000
  H   H3291     1.0  0.75883  0.88710  0.64113  1.0000
  H   H3292     1.0  0.69812  0.87230  0.64578  1.0000
  H   H3293     1.0  0.69828  0.84076  0.65358  1.0000
  C   C4108     1.0  0.77704  0.94083  0.77406  1.0000
  C   C4109     1.0  0.76648  0.93804  0.75135  1.0000
  C   C4110     1.0  0.77549  0.93940  0.72622  1.0000
  C   C4111     1.0  0.79522  0.94338  0.72348  1.0000
  C   C4112     1.0  0.80584  0.94603  0.74622  1.0000
  C   C4113     1.0  0.79680  0.94490  0.77144  1.0000
  H   H3294     1.0  0.75119  0.93494  0.75321  1.0000
  H   H3295     1.0  0.76711  0.93717  0.70902  1.0000
  H   H3296     1.0  0.82112  0.94903  0.74431  1.0000
  H   H3297     1.0  0.80509  0.94709  0.78878  1.0000
  H   H3298     1.0  0.69273  0.95252  0.96138  1.0000
  H   H3299     1.0  0.67642  0.76184  0.57349  1.0000
  C   C4114     1.0  0.78603  0.94188  0.51401  1.0000
  C   C4115     1.0  0.80054  0.93515  0.52444  1.0000
  C   C4116     1.0  0.81274  0.92933  0.50712  1.0000
  C   C4117     1.0  0.74880  0.77571  0.53786  1.0000
  H   H3300     1.0  0.98373  0.78295  0.83387  1.0000
  H   H3301     1.0  0.77654  0.94650  0.52718  1.0000
  H   H3302     1.0  0.82400  0.92418  0.51481  1.0000
  C   C4118     1.0  0.67929  0.76183  0.53091  1.0000
  C   C4119     1.0  0.73060  0.84531  0.89064  1.0000
  C   C4120     1.0  0.74470  0.86086  0.89428  1.0000
  C   C4121     1.0  0.73995  0.87703  0.89733  1.0000
  C   C4122     1.0  0.72110  0.87782  0.89646  1.0000
  C   C4123     1.0  0.70691  0.86218  0.89340  1.0000
  C   C4124     1.0  0.71166  0.84595  0.89046  1.0000
  H   H3303     1.0  0.75934  0.86039  0.89474  1.0000
  H   H3304     1.0  0.75090  0.88881  0.90054  1.0000
  H   H3305     1.0  0.69228  0.86268  0.89286  1.0000
  H   H3306     1.0  0.70070  0.83404  0.88756  1.0000
  H   H3307     1.0  0.82387  0.86861  0.74517  1.0000
  C   C4125     1.0  0.71027  0.85024  0.97089  1.0000
  S   S567      1.0  0.99072  0.75287  0.88345  1.0000
  H   H3308     1.0  0.77582  0.87143  0.58681  1.0000
  C   C4126     1.0  0.68380  0.88057  0.55826  1.0000
  H   H3309     1.0  0.79946  0.89285  0.61042  1.0000
  C   C4127     1.0  0.73721  0.90325  0.52404  1.0000
  C   C4128     1.0  0.93200  0.74884  0.73778  1.0000
  C   C4129     1.0  0.67326  0.92177  0.72541  1.0000
  H   H3310     1.0  0.86145  0.89897  0.67815  1.0000
  H   H3311     1.0  0.79183  0.90614  0.72644  1.0000
  C   C4130     1.0  0.71880  0.98387  0.91761  1.0000
  C   C4131     1.0  0.71176  0.96734  0.93076  1.0000
  C   C4132     1.0  0.67847  0.94273  0.55560  1.0000
  H   H3312     1.0  0.71737  0.95627  0.92583  1.0000
  H   H3313     1.0  0.77152  0.82306  0.68156  1.0000
  C   C4133     1.0  0.80965  0.98621  0.49643  1.0000
  S   S568      1.0  0.68479  0.79822  0.90656  1.0000
  C   C4134     1.0  0.75608  0.86585  0.48490  1.0000
  H   H3314     1.0  0.71530  0.92088  0.58617  1.0000
  H   H3315     1.0  0.67335  0.96538  0.73682  1.0000
  C   C4135     1.0  0.84267  0.94455  0.61208  1.0000
  C   C4136     1.0  0.66310  0.98801  0.74678  1.0000
  H   H3316     1.0  0.76644  0.90694  0.51165  1.0000
  C   C4137     1.0  0.67631  0.85378  0.71964  1.0000
  C   C4138     1.0  0.72526  0.75687  0.75612  1.0000
  S   S569      1.0  0.76966  0.99693  0.61529  1.0000
  C   C4139     1.0  0.89382  0.75048  0.49777  1.0000
  C   C4140     1.0  0.92197  0.75667  0.97075  1.0000
  H   H3317     1.0  0.91482  0.75212  0.70512  1.0000
  C   C4141     1.0  0.89413  0.80042  0.74451  1.0000
  C   C4142     1.0  0.84016  0.94232  0.63943  1.0000
  C   C4143     1.0  0.66125  0.83856  0.71934  1.0000
  C   C4144     1.0  0.70505  0.92680  0.57722  1.0000
  C   C4145     1.0  0.78396  0.94268  0.48632  1.0000
  H   H3318     1.0  0.82806  0.93206  0.96574  1.0000
  C   C4146     1.0  0.75251  0.98350  0.97141  1.0000
  C   C4147     1.0  0.75189  0.79418  0.53814  1.0000
  C   C4148     1.0  0.74778  0.80214  0.56105  1.0000
  C   C4149     1.0  0.74049  0.79164  0.58370  1.0000
  C   C4150     1.0  0.73731  0.77315  0.58346  1.0000
  H   H3319     1.0  0.77649  0.90015  0.55578  1.0000
  H   H3320     1.0  0.67775  0.77921  0.75582  1.0000
  C   C4151     1.0  0.77115  0.99380  0.97179  1.0000
  H   H3321     1.0  0.71927  0.89086  0.58650  1.0000
  C   C4152     1.0  0.68200  0.92764  0.54446  1.0000
  C   C4153     1.0  0.98421  0.79598  0.66969  1.0000
  H   H3322     1.0  0.91761  0.74796  0.58743  1.0000
  H   H3323     1.0  0.82838  0.96932  0.48965  1.0000
  H   H3324     1.0  0.70223  0.74897  0.57448  1.0000
  C   C4154     1.0  0.97604  0.78148  0.81588  1.0000
  C   C4155     1.0  0.69541  0.91957  0.55508  1.0000
  P   P139      1.0  0.69950  0.89971  0.54108  1.0000
  C   C4156     1.0  0.81892  0.87670  0.73069  1.0000
  H   H3325     1.0  0.75345  0.98377  0.74006  1.0000
  H   H3326     1.0  0.69761  0.97045  0.77015  1.0000
  H   H3327     1.0  0.75024  0.81644  0.56123  1.0000
  H   H3328     1.0  0.73730  0.79783  0.60150  1.0000
  H   H3329     1.0  0.67521  0.90520  0.75932  1.0000
  C   C4157     1.0  0.72275  0.83579  0.52874  1.0000
  C   C4158     1.0  0.71108  0.82049  0.54179  1.0000
  C   C4159     1.0  0.71004  0.81865  0.56919  1.0000
  C   C4160     1.0  0.72051  0.83210  0.58401  1.0000
  C   C4161     1.0  0.73213  0.84742  0.57148  1.0000
  C   C4162     1.0  0.73327  0.84933  0.54393  1.0000
  H   H3330     1.0  0.70212  0.81016  0.53106  1.0000
  H   H3331     1.0  0.70086  0.80684  0.57899  1.0000
  H   H3332     1.0  0.71933  0.83063  0.60522  1.0000
  H   H3333     1.0  0.73990  0.85791  0.58329  1.0000
  H   H3334     1.0  0.74187  0.86159  0.53482  1.0000
  C   C4163     1.0  0.80587  0.89740  0.69339  1.0000
  C   C4164     1.0  0.85080  0.86922  0.62970  1.0000
  H   H3335     1.0  0.68658  0.83790  0.52106  1.0000
  H   H3336     1.0  0.66456  0.92429  0.94796  1.0000
  C   C4165     1.0  0.76133  0.88735  0.79034  1.0000
  C   C4166     1.0  0.76850  0.89051  0.81530  1.0000
  C   C4167     1.0  0.77040  0.87630  0.83158  1.0000
  C   C4168     1.0  0.76528  0.85892  0.82286  1.0000
  C   C4169     1.0  0.75840  0.85567  0.79757  1.0000
  C   C4170     1.0  0.75608  0.86999  0.78165  1.0000
  P   P140      1.0  0.74950  0.83317  0.78734  1.0000
  C   C4171     1.0  0.75658  0.83028  0.75368  1.0000
  C   C4172     1.0  0.75964  0.81815  0.80652  1.0000
  C   C4173     1.0  0.77774  0.81626  0.79925  1.0000
  C   C4174     1.0  0.69831  0.98700  0.83688  1.0000
  C   C4175     1.0  0.77540  0.79412  0.83463  1.0000
  C   C4176     1.0  0.75761  0.79618  0.84234  1.0000
  C   C4177     1.0  0.74964  0.80792  0.82812  1.0000
  C   C4178     1.0  0.74854  0.81429  0.74165  1.0000
  C   C4179     1.0  0.75384  0.81179  0.71567  1.0000
  H   H3337     1.0  0.94730  0.76049  0.68578  1.0000
  C   C4180     1.0  0.77672  0.84041  0.71422  1.0000
  C   C4181     1.0  0.77120  0.84308  0.74009  1.0000
  C   C4182     1.0  0.72403  0.82878  0.79240  1.0000
  C   C4183     1.0  0.71190  0.82475  0.77136  1.0000
  C   C4184     1.0  0.69233  0.82182  0.77562  1.0000
  C   C4185     1.0  0.68467  0.82287  0.80086  1.0000
  C   C4186     1.0  0.69661  0.82746  0.82172  1.0000
  C   C4187     1.0  0.71622  0.83077  0.81741  1.0000
  H   H3338     1.0  0.75932  0.89837  0.77814  1.0000
  H   H3339     1.0  0.77216  0.90394  0.82223  1.0000
  H   H3340     1.0  0.77544  0.87873  0.85124  1.0000
  H   H3341     1.0  0.76620  0.84805  0.83620  1.0000
  H   H3342     1.0  0.74982  0.86770  0.76277  1.0000
  H   H3343     1.0  0.78582  0.82390  0.78264  1.0000
  C   C4188     1.0  0.76172  0.89942  0.55276  1.0000
  H   H3344     1.0  0.80208  0.97974  0.95056  1.0000
  H   H3345     1.0  0.74981  0.78842  0.85912  1.0000
  H   H3346     1.0  0.73572  0.80887  0.83422  1.0000
  H   H3347     1.0  0.73797  0.80381  0.75227  1.0000
  H   H3348     1.0  0.74696  0.79975  0.70608  1.0000
  H   H3349     1.0  0.77830  0.85510  0.74934  1.0000
  H   H3350     1.0  0.71729  0.82399  0.75154  1.0000
  H   H3351     1.0  0.68302  0.81844  0.75938  1.0000
  H   H3352     1.0  0.66946  0.82001  0.80429  1.0000
  H   H3353     1.0  0.69067  0.82836  0.84128  1.0000
  H   H3354     1.0  0.72526  0.83478  0.83371  1.0000
  C   C4189     1.0  0.84068  0.92970  0.59673  1.0000
  H   H3355     1.0  0.89613  0.86860  0.64188  1.0000
  H   H3356     1.0  0.98409  0.77952  0.91572  1.0000
  C   C4190     1.0  0.80069  0.89768  0.72009  1.0000
  C   C4191     1.0  0.66822  0.85735  0.76541  1.0000
  H   H3357     1.0  0.68056  0.87156  0.50647  1.0000
  P   P141      1.0  0.94264  0.77238  0.74001  1.0000
  C   C4192     1.0  0.92372  0.78345  0.74163  1.0000
  C   C4193     1.0  0.95565  0.77617  0.76976  1.0000
  C   C4194     1.0  0.94694  0.77960  0.79336  1.0000
  C   C4195     1.0  0.95713  0.78225  0.81631  1.0000
  C   C4196     1.0  0.66581  0.83359  0.49186  1.0000
  C   C4197     1.0  0.73814  0.89783  0.96281  1.0000
  C   C4198     1.0  0.97453  0.77508  0.76962  1.0000
  C   C4199     1.0  0.92654  0.80102  0.73171  1.0000
  C   C4200     1.0  0.67504  0.97667  0.74920  1.0000
  C   C4201     1.0  0.82279  0.97691  0.50394  1.0000
  C   C4202     1.0  0.89123  0.78296  0.75449  1.0000
  C   C4203     1.0  0.90594  0.77451  0.75311  1.0000
  C   C4204     1.0  0.95880  0.78147  0.71226  1.0000
  C   C4205     1.0  0.95763  0.77292  0.68828  1.0000
  C   C4206     1.0  0.70306  0.83328  0.96143  1.0000
  C   C4207     1.0  0.66631  0.78068  0.76887  1.0000
  C   C4208     1.0  0.73674  0.75301  0.83453  1.0000
  C   C4209     1.0  0.71188  0.75972  0.77465  1.0000
  Fe  Fe285     1.0  0.68405  0.75869  0.66279  1.0000
  H   H3358     1.0  0.83979  0.86354  0.61650  1.0000
  H   H3359     1.0  0.73193  0.76522  0.60131  1.0000
  H   H3360     1.0  0.67973  0.77551  0.80478  1.0000
  H   H3361     1.0  0.93223  0.77995  0.79422  1.0000
  H   H3362     1.0  0.95025  0.78453  0.83460  1.0000
  H   H3363     1.0  0.83350  0.86824  0.69831  1.0000
  H   H3364     1.0  0.76803  0.97892  0.82045  1.0000
  C   C4210     1.0  0.75889  0.98847  0.54286  1.0000
  H   H3365     1.0  0.73452  0.76802  0.74503  1.0000
  H   H3366     1.0  0.97914  0.78159  0.96345  1.0000
  H   H3367     1.0  0.66829  0.94903  0.54702  1.0000
  C   C4211     1.0  0.67866  0.92611  0.69888  1.0000
  C   C4212     1.0  0.76779  0.82491  0.70188  1.0000
  C   C4213     1.0  0.67672  0.84945  0.57316  1.0000
  C   C4214     1.0  0.74121  0.76501  0.56042  1.0000
  H   H3368     1.0  0.90335  0.76098  0.76103  1.0000
  C   C4215     1.0  0.66744  0.77857  0.79662  1.0000
  C   C4216     1.0  0.69760  0.96515  0.95075  1.0000
  H   H3369     1.0  0.76931  0.83909  0.59790  1.0000
  H   H3370     1.0  0.67049  0.86457  0.78333  1.0000
  C   C4217     1.0  0.88029  0.88448  0.66197  1.0000
  H   H3371     1.0  0.84263  0.93144  0.57550  1.0000
  C   C4218     1.0  0.75699  0.84170  0.97050  1.0000
  C   C4219     1.0  0.86804  0.86457  0.62752  1.0000
  S   S570      1.0  0.67742  0.97685  0.50357  1.0000
  C   C4220     1.0  0.67247  0.91595  0.95736  1.0000
  Fe  Fe286     1.0  0.66535  0.78461  0.68798  1.0000
  C   C4221     1.0  0.75250  0.89221  0.70807  1.0000
  C   C4222     1.0  0.75451  0.87514  0.70384  1.0000
  C   C4223     1.0  0.73961  0.86029  0.71085  1.0000
  C   C4224     1.0  0.72286  0.86245  0.72253  1.0000
  C   C4225     1.0  0.72070  0.87955  0.72669  1.0000
  C   C4226     1.0  0.73576  0.89441  0.71983  1.0000
  P   P142      1.0  0.69968  0.88265  0.74309  1.0000
  C   C4227     1.0  0.68020  0.86303  0.74289  1.0000
  C   C4228     1.0  0.70690  0.88833  0.77587  1.0000
  C   C4229     1.0  0.70894  0.87498  0.79394  1.0000
  C   C4230     1.0  0.71595  0.87939  0.81874  1.0000
  C   C4231     1.0  0.72126  0.89718  0.82543  1.0000
  C   C4232     1.0  0.71952  0.91053  0.80742  1.0000
  C   C4233     1.0  0.71261  0.90618  0.78260  1.0000
  H   H3372     1.0  0.72579  0.75998  0.83469  1.0000
  C   C4234     1.0  0.68807  0.89204  0.95540  1.0000
  H   H3373     1.0  0.69197  0.88182  0.94419  1.0000
  H   H3374     1.0  0.82480  0.98624  0.56876  1.0000
  H   H3375     1.0  0.67373  0.96239  0.90147  1.0000
  C   C4235     1.0  0.69175  0.89987  0.72591  1.0000
  C   C4236     1.0  0.69672  0.90399  0.69910  1.0000
  C   C4237     1.0  0.69034  0.91717  0.68573  1.0000
  H   H3376     1.0  0.68465  0.75011  0.53095  1.0000
  S   S571      1.0  0.96518  0.75784  0.50602  1.0000
  H   H3377     1.0  0.66201  0.89391  0.56836  1.0000
  H   H3378     1.0  0.76371  0.90377  0.70172  1.0000
  H   H3379     1.0  0.76730  0.87344  0.69418  1.0000
  H   H3380     1.0  0.74078  0.84707  0.70658  1.0000
  H   H3381     1.0  0.71166  0.85075  0.72807  1.0000
  H   H3382     1.0  0.73448  0.90773  0.72324  1.0000
  H   H3383     1.0  0.70545  0.86121  0.78869  1.0000
  H   H3384     1.0  0.71763  0.86912  0.83268  1.0000
  H   H3385     1.0  0.72710  0.90067  0.84438  1.0000
  H   H3386     1.0  0.72404  0.92433  0.81247  1.0000
  H   H3387     1.0  0.71224  0.91683  0.76857  1.0000
  C   C4238     1.0  0.67465  0.76842  0.55510  1.0000
  C   C4239     1.0  0.73654  0.86017  0.48105  1.0000
  H   H3388     1.0  0.66712  0.79139  0.48872  1.0000
  C   C4240     1.0  0.98476  0.75206  0.91777  1.0000
  H   H3389     1.0  0.68503  0.85820  0.70179  1.0000
  H   H3390     1.0  0.70542  0.89699  0.68833  1.0000
  H   H3391     1.0  0.69445  0.92031  0.66507  1.0000
  C   C4241     1.0  0.82814  0.97680  0.53003  1.0000
  C   C4242     1.0  0.80530  0.99114  0.70154  1.0000
  H   H3392     1.0  0.88265  0.80689  0.74561  1.0000
  H   H3393     1.0  0.71715  0.99559  0.67212  1.0000
  C   C4243     1.0  0.84809  0.88132  0.64842  1.0000
  C   C4244     1.0  0.68017  0.96907  0.88315  1.0000
  H   H3394     1.0  0.78571  0.90380  0.96665  1.0000
  H   H3395     1.0  0.77477  0.97639  0.77296  1.0000
  C   C4245     1.0  0.68993  0.97927  0.95716  1.0000
  C   C4246     1.0  0.88275  0.87214  0.64371  1.0000
  H   H3396     1.0  0.78684  0.82826  0.63285  1.0000
  C   C4247     1.0  0.75869  0.98224  0.80616  1.0000
  C   C4248     1.0  0.78545  0.80412  0.81305  1.0000
  C   C4249     1.0  0.69893  0.83444  0.48285  1.0000
  C   C4250     1.0  0.74034  0.98094  0.55263  1.0000
  C   C4251     1.0  0.68810  0.94978  0.57761  1.0000
  H   H3397     1.0  0.83776  0.96903  0.53600  1.0000
  C   C4252     1.0  0.80203  0.94004  0.96909  1.0000
  C   C4253     1.0  0.68544  0.88384  0.49482  1.0000
  H   H3398     1.0  0.81119  0.84954  0.65636  1.0000
  H   H3399     1.0  0.83391  0.92401  0.67265  1.0000
  C   C4254     1.0  0.67766  0.90265  0.94340  1.0000
  H   H3400     1.0  0.94006  0.80825  0.72280  1.0000
  C   C4255     1.0  0.74999  0.75583  0.81323  1.0000
  C   C4256     1.0  0.74842  0.89505  0.57382  1.0000
  H   H3401     1.0  0.70206  0.86315  0.55113  1.0000
  H   H3402     1.0  0.73554  0.79828  0.96130  1.0000
  P   P143      1.0  0.72300  0.83824  0.49309  1.0000
  H   H3403     1.0  0.74953  0.76539  0.79755  1.0000
  H   H3404     1.0  0.89178  0.89057  0.67424  1.0000
  C   C4257     1.0  0.72944  0.89441  0.56996  1.0000
  H   H3405     1.0  0.83413  0.90128  0.59633  1.0000
  H   H3406     1.0  0.84175  0.95382  0.65144  1.0000
  C   C4258     1.0  0.91178  0.80945  0.73314  1.0000
  H   H3407     1.0  0.79910  0.80223  0.80684  1.0000
  C   C4259     1.0  0.72509  0.98464  0.53984  1.0000
  C   C4260     1.0  0.68385  0.82474  0.96536  1.0000
  C   C4261     1.0  0.81833  0.88735  0.68527  1.0000
  H   H3408     1.0  0.68060  0.83691  0.57458  1.0000
  H   H3409     1.0  0.85536  0.74976  0.85563  1.0000
  H   H3410     1.0  0.71230  0.82675  0.95080  1.0000
  S   S572      1.0  0.67750  0.75486  0.90433  1.0000
  S   S573      1.0  0.77999  0.74986  0.78500  1.0000
  C   C4262     1.0  0.75037  0.98482  0.76086  1.0000
  C   C4263     1.0  0.80724  0.88741  0.73873  1.0000
  C   C4264     1.0  0.97279  0.79746  0.71459  1.0000
  C   C4265     1.0  0.75084  0.82589  0.95744  1.0000
  C   C4266     1.0  0.82442  0.87661  0.70407  1.0000
  C   C4267     1.0  0.69114  0.96104  0.86696  1.0000
  C   C4268     1.0  0.70007  0.96990  0.84377  1.0000
  C   C4269     1.0  0.79725  0.87882  0.61525  1.0000
  C   C4270     1.0  0.69469  0.89963  0.50646  1.0000
  C   C4271     1.0  0.76248  0.98077  0.77935  1.0000
  C   C4272     1.0  0.67969  0.90862  0.73887  1.0000
  H   H3411     1.0  0.75390  0.82556  0.93647  1.0000
  Fe  Fe287     1.0  0.66960  0.78405  0.62642  1.0000
  S   S574      1.0  0.67550  0.80574  0.65567  1.0000
  H   H3412     1.0  0.75287  0.89247  0.59326  1.0000
  H   H3413     1.0  0.69307  0.94811  0.87268  1.0000
  H   H3414     1.0  0.70849  0.96345  0.83151  1.0000
  C   C4273     1.0  0.80765  0.87277  0.63461  1.0000
  P   P144      1.0  0.82623  0.88800  0.65103  1.0000
  C   C4274     1.0  0.78011  0.84846  0.60793  1.0000
  C   C4275     1.0  0.78370  0.86668  0.60179  1.0000
  C   C4276     1.0  0.83528  0.92525  0.65140  1.0000
  H   H3415     1.0  0.84609  0.95776  0.60276  1.0000
  C   C4277     1.0  0.66635  0.88162  0.56959  1.0000
  C   C4278     1.0  0.98029  0.76910  0.95571  1.0000
  H   H3416     1.0  0.70859  0.92757  0.49904  1.0000
  H   H3417     1.0  0.72805  0.90054  0.94935  1.0000
  C   C4279     1.0  0.68414  0.83558  0.50055  1.0000
  H   H3418     1.0  0.91402  0.82299  0.72539  1.0000
  H   H3419     1.0  0.66966  0.99223  0.88877  1.0000
  C   C4280     1.0  0.67669  0.77002  0.50673  1.0000
  H   H3420     1.0  0.76484  0.85366  0.95959  1.0000
  C   C4281     1.0  0.66424  0.79129  0.53137  1.0000
  C   C4282     1.0  0.70109  0.91530  0.49060  1.0000
  C   C4283     1.0  0.68899  0.97979  0.76785  1.0000
  H   H3421     1.0  0.75260  0.76988  0.52012  1.0000
  C   C4284     1.0  0.75605  0.90331  0.52786  1.0000
  H   H3422     1.0  0.76311  0.85739  0.49579  1.0000
  H   H3423     1.0  0.78762  0.85050  0.70354  1.0000
  C   C4285     1.0  0.83214  0.91020  0.63600  1.0000
  C   C4286     1.0  0.78994  0.84237  0.62777  1.0000
  H   H3424     1.0  0.78119  0.78449  0.84509  1.0000
  C   C4287     1.0  0.73449  0.99042  0.76920  1.0000
  H   H3425     1.0  0.71068  0.97859  0.54696  1.0000
  H   H3426     1.0  0.73784  0.97213  0.57005  1.0000
  H   H3427     1.0  0.72513  0.85667  0.96726  1.0000
  H   H3428     1.0  0.73341  0.90681  0.50466  1.0000
  C   C4288     1.0  0.73023  0.99137  0.79623  1.0000
  H   H3429     1.0  0.77037  0.98513  0.55293  1.0000
  C   C4289     1.0  0.68883  0.86433  0.56002  1.0000
  C   C4290     1.0  0.67799  0.98591  0.87609  1.0000
  H   H3430     1.0  0.75756  0.80233  0.52059  1.0000
  C   C4291     1.0  0.70141  0.94184  0.58838  1.0000
  H   H3431     1.0  0.86901  0.75545  0.51696  1.0000
  C   C4292     1.0  0.72374  0.89893  0.54518  1.0000
  C   C4293     1.0  0.68692  0.99482  0.85296  1.0000
  C   C4294     1.0  0.80360  0.85447  0.64114  1.0000
  H   H3432     1.0  0.67841  0.81141  0.95865  1.0000
  C   C4295     1.0  0.83558  0.91260  0.60861  1.0000
  H   H3433     1.0  0.94308  0.77455  0.94538  1.0000
  H   H3434     1.0  0.81303  0.98111  0.69906  1.0000
  H   H3435     1.0  0.98131  0.77171  0.75191  1.0000
  H   H3436     1.0  0.97398  0.80435  0.73284  1.0000
  C   C4296     1.0  0.66695  0.78310  0.55552  1.0000
  H   H3437     1.0  0.71066  0.77308  0.77788  1.0000
  C   C4297     1.0  0.80194  0.99568  0.51501  1.0000
  H   H3438     1.0  0.87755  0.77587  0.76332  1.0000
  C   C4298     1.0  0.72837  0.99622  0.51769  1.0000
  C   C4299     1.0  0.77079  0.89971  0.97248  1.0000
  C   C4300     1.0  0.74267  0.98756  0.81462  1.0000
  C   C4301     1.0  0.98306  0.76792  0.92854  1.0000
  H   H3439     1.0  0.67395  0.90068  0.92308  1.0000
  C   C4302     1.0  0.82069  0.98634  0.54853  1.0000
  H   H3440     1.0  0.68530  0.96148  0.58616  1.0000
  C   C4303     1.0  0.97022  0.78023  0.66708  1.0000
  H   H3441     1.0  0.96933  0.77346  0.64871  1.0000
  S   S575      1.0  0.66035  0.79139  0.58576  1.0000
  H   H3442     1.0  0.76213  0.90972  0.93649  1.0000
  C   C4304     1.0  0.74050  0.81052  0.97137  1.0000
  H   H3443     1.0  0.67414  0.92231  0.52762  1.0000
  C   C4305     1.0  0.69170  0.99479  0.78338  1.0000
  H   H3444     1.0  0.94101  0.80140  0.96907  1.0000
  C   C4306     1.0  0.93327  0.77337  0.96223  1.0000
  C   C4307     1.0  0.98473  0.77790  0.79251  1.0000
  C   C4308     1.0  0.98548  0.80461  0.69344  1.0000
  C   C4309     1.0  0.66931  0.78496  0.50710  1.0000
  H   H3445     1.0  0.90374  0.76043  0.50819  1.0000
  H   H3446     1.0  0.70615  0.95912  0.48974  1.0000
  H   H3447     1.0  0.74000  0.98861  0.83553  1.0000
  C   C4310     1.0  0.80781  0.99590  0.54098  1.0000
  C   C4311     1.0  0.81908  0.99343  0.91734  1.0000
  H   H3448     1.0  0.81548  0.98195  0.90520  1.0000
  H   H3449     1.0  0.74422  0.98469  0.95465  1.0000
  H   H3450     1.0  0.80705  0.99082  0.74364  1.0000
  C   C4312     1.0  0.72367  0.80300  0.48488  1.0000
  C   C4313     1.0  0.81150  0.99220  0.94313  1.0000
  C   C4314     1.0  0.80197  0.99670  0.72668  1.0000
  H   H3451     1.0  0.72583  0.99431  0.75447  1.0000
  H   H3452     1.0  0.71699  0.74832  0.51649  1.0000
  C   C4315     1.0  0.97928  0.75452  0.97300  1.0000
  C   C4316     1.0  0.69638  0.99564  0.94329  1.0000
  C   C4317     1.0  0.73271  0.82103  0.47931  1.0000
  H   H3453     1.0  0.80141  0.99435  0.66006  1.0000
  C   C4318     1.0  0.81094  0.93046  0.47987  1.0000
  H   H3454     1.0  0.72424  0.77582  0.47972  1.0000
  S   S576      1.0  0.99202  0.75555  0.57650  1.0000
  Fe  Fe288     1.0  0.65944  0.99638  0.50110  1.0000
  C   C4319     1.0  0.93210  0.78848  0.97557  1.0000
  H   H3455     1.0  0.77295  0.94801  0.47830  1.0000
  C   C4320     1.0  0.65946  0.85064  0.58453  1.0000
  H   H3456     1.0  0.90476  0.74943  0.80821  1.0000
