data_image0
_chemical_formula_structural       HC2HCH2C2HC3H3CH4CHC2HCH4C3H2CH2CHC3HC3HC2H3FeSCFeS2FeHFeS3FeS2FeSFeCH2S2H2CH3C3HC7H5C3HC6H3CH2CHC3PCH4CHC3HC4HC2H6C6HCHC2HC4H2CS2H2CH3CFeH2C3H2C3HCHC4H2CHC3H4C2HCHCHFeS2FeCSFeSHS2FeS2Fe2SCS2C9H2C8H4C3H2C8H2C4HCHC2H3CH4SC5H7C7H3C2HCH2C2HCHC2HC2HC2HC2HPH5C2HC2HCH4C3HCSCHC2PC4H2Fe2CH4CHCHCHCH2CHC2HPH2C3HSCH2C2HC2HSH2CHC4H2FeS2C2FeHCSHCFeS2FeCFeS3C8H2CH2C2PH2C2HC6H3CHC2HC2H2C2H2CHC2SC2HC2H2CSCHC2HC3HCHSCH8CH2C3HC2SPCH2CH2CFeHC2H5C6HC2HC9HC2H4PFeHSCH4CHC3HCH4C3HFeCHS2CHCHCHC2H4C7HCHCHCHC2HPC4HCHPC2H5CH2C2H2CH4SH3SCH2C4H4CHC6HC6HC5H3SHCHCH2C6HCHC2H2C4H3SCH2C3H2C3HC2HSC5PHSCHC2HC2HC2HCHC2H3C3HC2PCHC3PCHC7H4C2H2CHCHCH2SHCH2CHSH2C2H2SHCH4CHC2Fe2S2FeHFeHS2FeS2H2FeCHCSC6H5C2HC6H2C2HC5HCHCH2C2FeH2C3HCH2FeH6SHCHC2HCHC3SHC3HCHC9HC2PCHPCPC4H3C2HCHSC2H2SH2C6HFeS2FeS2Fe2S3CFeSFeS2FeSFeS2C6HCH2C7H4C6H4C3H2SHCHC11H5CH3CHCHC3H2C3H2C2HCHC2HC4H3CHC3H2C4H3CHC2PCH4C2H2CHCPCHCHCHC2H2CH2C4H3CHC2H3CHC2HCH3C2HCHCHCHCPCHPCSCHC3HSC2H2C2H2CHCH5C4HC3H2C2FeS2FeSCFeSFeCS2C2FeSFeS2FeHFeS3C2SHC11H6C2HCHCPC3H3C2H4CH5SH2CHCPC10HC4H2CH2CH8C2HC5HC3PC2H2CHCH2CHC4H12C2HC2H2CHC3HC2H2C5HCH2SH3C2H3C2HC2H2CH2C2HC3H3CHCH2SHCH3C3HCHC3H2C2H2C3PH2CH3C3HC2HCH4C4PC3HC2H2CSCH2C3HC
_chemical_formula_sum              "H576 C720 Fe48 S96 P24"
_cell_length_a       45.5696
_cell_length_b       45.8185
_cell_length_c       31.7824
_cell_angle_alpha    90.1652
_cell_angle_beta     90.0034
_cell_angle_gamma    120.085

_space_group_name_H-M_alt    "P 1"
_space_group_IT_number       1

loop_
  _space_group_symop_operation_xyz
  'x, y, z'

loop_
  _atom_site_type_symbol
  _atom_site_label
  _atom_site_symmetry_multiplicity
  _atom_site_fract_x
  _atom_site_fract_y
  _atom_site_fract_z
  _atom_site_occupancy
  H   H1        1.0  0.40984  0.20322  0.09038  1.0000
  C   C1        1.0  0.43790  0.25014  0.12374  1.0000
  C   C2        1.0  0.43482  0.22424  0.09734  1.0000
  H   H2        1.0  0.41524  0.24861  0.13686  1.0000
  C   C3        1.0  0.40403  0.02986  0.39184  1.0000
  H   H3        1.0  0.45239  0.16630  0.13961  1.0000
  H   H4        1.0  0.37409  0.02279  0.29204  1.0000
  C   C4        1.0  0.38750  0.98845  0.32061  1.0000
  C   C5        1.0  0.40802  0.00153  0.39245  1.0000
  H   H5        1.0  0.38872  0.05949  0.35522  1.0000
  C   C6        1.0  0.38351  0.01681  0.32013  1.0000
  C   C7        1.0  0.39982  0.98059  0.35681  1.0000
  C   C8        1.0  0.39177  0.03750  0.35569  1.0000
  H   H6        1.0  0.41054  0.04593  0.41942  1.0000
  H   H7        1.0  0.41761  0.99600  0.42075  1.0000
  H   H8        1.0  0.38107  0.97293  0.29262  1.0000
  C   C9        1.0  0.43663  0.00972  0.01591  1.0000
  H   H9        1.0  0.42805  0.20845  0.79849  1.0000
  H   H10       1.0  0.43211  0.13220  0.64570  1.0000
  H   H11       1.0  0.40973  0.23221  0.93714  1.0000
  H   H12       1.0  0.41588  0.28255  0.89994  1.0000
  C   C10       1.0  0.44300  0.15386  0.66648  1.0000
  H   H13       1.0  0.40771  0.07236  0.60955  1.0000
  C   C11       1.0  0.42081  0.25636  0.95315  1.0000
  C   C12       1.0  0.41255  0.97472  0.01621  1.0000
  H   H14       1.0  0.43939  0.26789  0.55650  1.0000
  C   C13       1.0  0.43207  0.25919  0.99461  1.0000
  H   H15       1.0  0.41461  0.19328  0.87349  1.0000
  H   H16       1.0  0.43052  0.29442  0.67715  1.0000
  H   H17       1.0  0.42807  0.12443  0.72326  1.0000
  H   H18       1.0  0.42903  0.04667  0.73094  1.0000
  C   C14       1.0  0.42416  0.28469  0.93235  1.0000
  C   C15       1.0  0.43496  0.05090  0.69781  1.0000
  C   C16       1.0  0.42261  0.06544  0.62935  1.0000
  H   H19       1.0  0.42774  0.01228  0.85024  1.0000
  H   H20       1.0  0.43260  0.02656  0.99614  1.0000
  C   C17       1.0  0.44064  0.14956  0.71006  1.0000
  H   H21       1.0  0.43055  0.99927  0.77533  1.0000
  H   H22       1.0  0.39564  0.06294  0.68611  1.0000
  C   C18       1.0  0.41588  0.06017  0.67242  1.0000
  H   H23       1.0  0.42987  0.23724  0.01044  1.0000
  C   C19       1.0  0.44644  0.29027  0.01551  1.0000
  C   C20       1.0  0.45060  0.02769  0.83229  1.0000
  C   C21       1.0  0.45235  0.02045  0.78987  1.0000
  H   H24       1.0  0.44564  0.22100  0.52899  1.0000
  C   C22       1.0  0.44071  0.20922  0.86380  1.0000
  C   C23       1.0  0.44797  0.97124  0.66529  1.0000
  C   C24       1.0  0.44786  0.29793  0.70261  1.0000
  H   H25       1.0  0.44401  0.25004  0.69264  1.0000
  C   C25       1.0  0.44875  0.06193  0.61175  1.0000
  C   C26       1.0  0.44844  0.21751  0.82134  1.0000
  H   H26       1.0  0.44715  0.98624  0.63962  1.0000
  H   H27       1.0  0.45455  0.17356  0.77035  1.0000
  H   H28       1.0  0.45428  0.06621  0.57838  1.0000
  Fe  Fe1       1.0  0.12765  0.55899  0.46317  1.0000
  S   S1        1.0  0.11238  0.59596  0.43966  1.0000
  C   C27       1.0  0.14456  0.55101  0.02649  1.0000
  Fe  Fe2       1.0  0.15040  0.54927  0.37564  1.0000
  S   S2        1.0  0.13601  0.58465  0.34630  1.0000
  S   S3        1.0  0.17204  0.52139  0.33893  1.0000
  Fe  Fe3       1.0  0.16124  0.61790  0.40268  1.0000
  H   H29       1.0  0.13128  0.59370  0.18868  1.0000
  Fe  Fe4       1.0  0.08810  0.55920  0.38539  1.0000
  S   S4        1.0  0.03847  0.54773  0.35169  1.0000
  S   S5        1.0  0.17808  0.58358  0.42989  1.0000
  S   S6        1.0  0.10092  0.52119  0.41099  1.0000
  Fe  Fe5       1.0  0.33050  0.57601  0.17872  1.0000
  S   S7        1.0  0.38195  0.59196  0.20673  1.0000
  S   S8        1.0  0.29493  0.59187  0.20905  1.0000
  Fe  Fe6       1.0  0.34980  0.55642  0.09441  1.0000
  S   S9        1.0  0.40206  0.57110  0.11652  1.0000
  Fe  Fe7       1.0  0.37756  0.54498  0.17675  1.0000
  C   C28       1.0  0.41994  0.37718  0.41751  1.0000
  H   H30       1.0  0.40465  0.40729  0.08352  1.0000
  H   H31       1.0  0.16205  0.52464  0.23574  1.0000
  S   S10       1.0  0.32417  0.52712  0.15316  1.0000
  S   S11       1.0  0.35164  0.60349  0.11755  1.0000
  H   H32       1.0  0.97660  0.53157  0.30801  1.0000
  H   H33       1.0  0.10180  0.47986  0.23568  1.0000
  C   C29       1.0  0.19380  0.49538  0.46954  1.0000
  H   H34       1.0  0.04397  0.57976  0.25476  1.0000
  H   H35       1.0  0.40835  0.33272  0.38154  1.0000
  H   H36       1.0  0.25533  0.46890  0.12073  1.0000
  C   C30       1.0  0.44764  0.46256  0.21724  1.0000
  C   C31       1.0  0.21316  0.57895  0.10187  1.0000
  C   C32       1.0  0.13010  0.56172  0.05754  1.0000
  H   H37       1.0  0.44719  0.45250  0.03854  1.0000
  C   C33       1.0  0.18853  0.51741  0.49456  1.0000
  C   C34       1.0  0.20690  0.54146  0.30386  1.0000
  C   C35       1.0  0.22314  0.57614  0.29625  1.0000
  C   C36       1.0  0.25038  0.59109  0.26766  1.0000
  C   C37       1.0  0.26169  0.57165  0.24628  1.0000
  C   C38       1.0  0.24550  0.53695  0.25387  1.0000
  C   C39       1.0  0.21817  0.52195  0.28245  1.0000
  H   H38       1.0  0.21466  0.59140  0.31239  1.0000
  H   H39       1.0  0.26298  0.61799  0.26233  1.0000
  H   H40       1.0  0.25380  0.52164  0.23749  1.0000
  H   H41       1.0  0.20567  0.49506  0.28799  1.0000
  H   H42       1.0  0.20540  0.61188  0.22524  1.0000
  C   C40       1.0  0.99515  0.51594  0.36077  1.0000
  C   C41       1.0  0.98539  0.49308  0.39420  1.0000
  C   C42       1.0  0.44937  0.35731  0.07253  1.0000
  H   H43       1.0  0.00449  0.49420  0.41542  1.0000
  C   C43       1.0  0.28078  0.56138  0.44206  1.0000
  C   C44       1.0  0.27308  0.54444  0.40343  1.0000
  C   C45       1.0  0.28095  0.56270  0.36597  1.0000
  C   C46       1.0  0.29573  0.59779  0.36699  1.0000
  C   C47       1.0  0.30246  0.61478  0.40570  1.0000
  C   C48       1.0  0.29570  0.59646  0.44322  1.0000
  H   H44       1.0  0.27532  0.54739  0.47108  1.0000
  H   H45       1.0  0.26121  0.51721  0.40239  1.0000
  H   H46       1.0  0.27558  0.54967  0.33603  1.0000
  C   C49       1.0  0.42302  0.49864  0.20252  1.0000
  H   H47       1.0  0.21783  0.46530  0.46517  1.0000
  H   H48       1.0  0.08652  0.56691  0.07318  1.0000
  C   C50       1.0  0.21437  0.48299  0.48423  1.0000
  H   H49       1.0  0.43580  0.42523  0.44606  1.0000
  C   C51       1.0  0.11149  0.49816  0.21037  1.0000
  C   C52       1.0  0.97425  0.54622  0.19110  1.0000
  C   C53       1.0  0.14109  0.61041  0.12368  1.0000
  P   P1        1.0  0.15212  0.57946  0.10658  1.0000
  C   C54       1.0  0.21756  0.63326  0.09025  1.0000
  H   H50       1.0  0.99485  0.49913  0.11834  1.0000
  H   H51       1.0  0.40816  0.44320  0.36350  1.0000
  H   H52       1.0  0.21725  0.52395  0.05320  1.0000
  H   H53       1.0  0.98408  0.52570  0.48303  1.0000
  C   C55       1.0  0.38420  0.43745  0.10737  1.0000
  H   H54       1.0  0.19830  0.55214  0.10789  1.0000
  C   C56       1.0  0.02330  0.56147  0.23531  1.0000
  C   C57       1.0  0.13116  0.61085  0.16542  1.0000
  C   C58       1.0  0.42052  0.32786  0.08658  1.0000
  H   H55       1.0  0.40005  0.45466  0.24223  1.0000
  C   C59       1.0  0.15816  0.54748  0.17833  1.0000
  C   C60       1.0  0.13681  0.54631  0.14563  1.0000
  C   C61       1.0  0.23554  0.49772  0.09114  1.0000
  C   C62       1.0  0.42030  0.46939  0.35419  1.0000
  H   H56       1.0  0.36919  0.47344  0.12557  1.0000
  C   C63       1.0  0.22541  0.50548  0.05327  1.0000
  C   C64       1.0  0.10256  0.52073  0.14584  1.0000
  H   H57       1.0  0.36584  0.41778  0.12763  1.0000
  H   H58       1.0  0.44338  0.36480  0.32064  1.0000
  H   H59       1.0  0.30204  0.60930  0.47333  1.0000
  H   H60       1.0  0.40480  0.36314  0.44432  1.0000
  H   H61       1.0  0.17178  0.52619  0.48361  1.0000
  H   H62       1.0  0.41175  0.51889  0.08136  1.0000
  C   C65       1.0  0.44140  0.37815  0.34766  1.0000
  C   C66       1.0  0.09835  0.55893  0.04981  1.0000
  C   C67       1.0  0.40594  0.32761  0.12541  1.0000
  C   C68       1.0  0.24834  0.59387  0.09780  1.0000
  C   C69       1.0  0.19750  0.59865  0.09909  1.0000
  C   C70       1.0  0.01729  0.52851  0.23245  1.0000
  H   H63       1.0  0.26054  0.57887  0.10134  1.0000
  C   C71       1.0  0.14554  0.52346  0.21042  1.0000
  H   H64       1.0  0.06354  0.47720  0.17827  1.0000
  C   C72       1.0  0.98979  0.50434  0.20897  1.0000
  C   C73       1.0  0.42179  0.36004  0.38213  1.0000
  H   H65       1.0  0.04158  0.54575  0.51245  1.0000
  C   C74       1.0  0.41052  0.49474  0.08141  1.0000
  C   C75       1.0  0.00200  0.57041  0.21431  1.0000
  C   C76       1.0  0.43336  0.48951  0.05753  1.0000
  C   C77       1.0  0.09002  0.49673  0.17804  1.0000
  H   H66       1.0  0.23534  0.51018  0.12010  1.0000
  H   H67       1.0  0.03331  0.52146  0.24978  1.0000
  C   C78       1.0  0.45055  0.53646  0.32756  1.0000
  S   S12       1.0  0.33151  0.53534  0.02880  1.0000
  S   S13       1.0  0.38923  0.50738  0.21035  1.0000
  H   H68       1.0  0.18450  0.56705  0.17954  1.0000
  H   H69       1.0  0.98521  0.47875  0.20776  1.0000
  C   C79       1.0  0.24685  0.47446  0.09155  1.0000
  H   H70       1.0  0.18153  0.48765  0.43900  1.0000
  H   H71       1.0  0.08530  0.51952  0.12164  1.0000
  H   H72       1.0  0.00648  0.59590  0.21692  1.0000
  C   C80       1.0  0.40111  0.48078  0.33281  1.0000
  Fe  Fe8       1.0  0.40209  0.61637  0.14405  1.0000
  H   H73       1.0  0.40155  0.52270  0.30168  1.0000
  H   H74       1.0  0.37466  0.46351  0.32564  1.0000
  C   C81       1.0  0.42159  0.47053  0.22258  1.0000
  C   C82       1.0  0.96964  0.51391  0.33368  1.0000
  C   C83       1.0  0.38610  0.46883  0.10628  1.0000
  H   H75       1.0  0.38441  0.30453  0.13680  1.0000
  H   H76       1.0  0.00774  0.49319  0.04433  1.0000
  C   C84       1.0  0.41961  0.35682  0.15008  1.0000
  C   C85       1.0  0.96758  0.51281  0.18888  1.0000
  C   C86       1.0  0.24803  0.45898  0.05415  1.0000
  H   H77       1.0  0.30182  0.61151  0.33758  1.0000
  C   C87       1.0  0.23034  0.49332  0.52349  1.0000
  H   H78       1.0  0.40866  0.35647  0.18047  1.0000
  C   C88       1.0  0.43039  0.45743  0.05743  1.0000
  C   C89       1.0  0.43788  0.41244  0.41851  1.0000
  C   C90       1.0  0.44782  0.38638  0.13587  1.0000
  C   C91       1.0  0.98717  0.52264  0.51632  1.0000
  H   H79       1.0  0.14850  0.63353  0.06225  1.0000
  H   H80       1.0  0.40928  0.30494  0.06814  1.0000
  C   C92       1.0  0.97427  0.48677  0.09599  1.0000
  H   H81       1.0  0.16898  0.55294  0.03133  1.0000
  C   C93       1.0  0.40614  0.43164  0.08266  1.0000
  C   C94       1.0  0.98171  0.48352  0.05405  1.0000
  C   C95       1.0  0.41626  0.51422  0.31933  1.0000
  H   H82       1.0  0.15865  0.46985  0.02754  1.0000
  H   H83       1.0  0.44592  0.44075  0.23267  1.0000
  H   H84       1.0  0.25772  0.44169  0.05438  1.0000
  H   H85       1.0  0.95766  0.55349  0.17587  1.0000
  C   C96       1.0  0.45122  0.51897  0.17742  1.0000
  C   C97       1.0  0.26803  0.62834  0.08969  1.0000
  H   H86       1.0  0.45295  0.54081  0.16201  1.0000
  C   C98       1.0  0.12024  0.63321  0.17750  1.0000
  H   H87       1.0  0.11198  0.63286  0.20955  1.0000
  C   C99       1.0  0.14089  0.63337  0.09463  1.0000
  H   H88       1.0  0.25619  0.63467  0.44367  1.0000
  Fe  Fe9       1.0  0.14088  0.54034  0.81573  1.0000
  S   S14       1.0  0.17436  0.59094  0.78776  1.0000
  S   S15       1.0  0.15001  0.49663  0.80865  1.0000
  Fe  Fe10      1.0  0.09075  0.55974  0.85156  1.0000
  C   C100      1.0  0.11334  0.45548  0.99229  1.0000
  S   S16       1.0  0.04322  0.54266  0.89239  1.0000
  Fe  Fe11      1.0  0.12599  0.58797  0.76715  1.0000
  S   S17       1.0  0.12053  0.60627  0.70282  1.0000
  H   H89       1.0  0.42599  0.59353  0.60693  1.0000
  S   S18       1.0  0.09233  0.53534  0.79093  1.0000
  S   S19       1.0  0.13709  0.56037  0.87875  1.0000
  Fe  Fe12      1.0  0.34090  0.54839  0.74866  1.0000
  S   S20       1.0  0.35984  0.59824  0.78031  1.0000
  S   S21       1.0  0.28715  0.50465  0.75074  1.0000
  Fe  Fe13      1.0  0.41110  0.56536  0.71706  1.0000
  Fe  Fe14      1.0  0.40250  0.59128  0.80278  1.0000
  S   S22       1.0  0.42356  0.60778  0.86881  1.0000
  C   C101      1.0  0.14845  0.46961  0.99676  1.0000
  S   S23       1.0  0.38151  0.53933  0.77524  1.0000
  S   S24       1.0  0.36855  0.57070  0.68812  1.0000
  C   C102      1.0  0.09934  0.45469  0.95285  1.0000
  C   C103      1.0  0.32686  0.49863  0.62096  1.0000
  C   C104      1.0  0.21220  0.51194  0.63737  1.0000
  C   C105      1.0  0.39767  0.58758  0.91304  1.0000
  C   C106      1.0  0.36770  0.55655  0.90914  1.0000
  C   C107      1.0  0.34795  0.54063  0.94496  1.0000
  C   C108      1.0  0.35762  0.55582  0.98482  1.0000
  C   C109      1.0  0.38759  0.58689  0.98875  1.0000
  C   C110      1.0  0.40767  0.60257  0.95303  1.0000
  H   H90       1.0  0.36018  0.54453  0.87863  1.0000
  H   H91       1.0  0.32529  0.51623  0.94195  1.0000
  C   C111      1.0  0.41993  0.49392  0.96010  1.0000
  C   C112      1.0  0.15549  0.48214  0.92219  1.0000
  C   C113      1.0  0.18914  0.50144  0.79183  1.0000
  C   C114      1.0  0.21840  0.53299  0.78581  1.0000
  C   C115      1.0  0.24907  0.53488  0.77289  1.0000
  C   C116      1.0  0.25004  0.50518  0.76535  1.0000
  C   C117      1.0  0.22041  0.47398  0.76997  1.0000
  C   C118      1.0  0.19040  0.47211  0.78378  1.0000
  H   H92       1.0  0.21743  0.55572  0.79165  1.0000
  H   H93       1.0  0.27185  0.55907  0.76895  1.0000
  H   H94       1.0  0.22083  0.45097  0.76378  1.0000
  H   H95       1.0  0.16791  0.44769  0.78795  1.0000
  C   C119      1.0  0.99974  0.51598  0.87793  1.0000
  C   C120      1.0  0.97402  0.51148  0.90630  1.0000
  C   C121      1.0  0.99024  0.49888  0.83938  1.0000
  H   H96       1.0  0.98096  0.52451  0.93624  1.0000
  H   H97       1.0  0.00964  0.50153  0.81762  1.0000
  C   C122      1.0  0.12268  0.55743  0.57719  1.0000
  C   C123      1.0  0.11754  0.58507  0.57806  1.0000
  C   C124      1.0  0.11681  0.59968  0.61684  1.0000
  C   C125      1.0  0.12127  0.58686  0.65495  1.0000
  C   C126      1.0  0.12633  0.55922  0.65404  1.0000
  C   C127      1.0  0.12694  0.54452  0.61533  1.0000
  C   C128      1.0  0.27685  0.59625  0.56993  1.0000
  C   C129      1.0  0.04896  0.49275  0.69313  1.0000
  H   H98       1.0  0.12976  0.54920  0.68319  1.0000
  H   H99       1.0  0.13102  0.52320  0.61492  1.0000
  C   C130      1.0  0.09632  0.53565  0.98076  1.0000
  C   C131      1.0  0.26339  0.50799  0.90741  1.0000
  C   C132      1.0  0.27493  0.49667  0.87375  1.0000
  C   C133      1.0  0.25400  0.46492  0.85610  1.0000
  H   H100      1.0  0.28170  0.55586  0.99594  1.0000
  C   C134      1.0  0.19148  0.47677  0.64008  1.0000
  H   H101      1.0  0.30599  0.61710  0.00337  1.0000
  C   C135      1.0  0.28105  0.60213  0.98967  1.0000
  C   C136      1.0  0.22602  0.51639  0.54822  1.0000
  H   H102      1.0  0.28020  0.53239  0.92126  1.0000
  H   H103      1.0  0.30006  0.51244  0.86095  1.0000
  H   H104      1.0  0.26294  0.45658  0.82956  1.0000
  C   C137      1.0  0.03456  0.57607  0.66837  1.0000
  H   H105      1.0  0.05459  0.44426  0.59613  1.0000
  H   H106      1.0  0.08352  0.52606  0.95083  1.0000
  H   H107      1.0  0.38272  0.47279  0.91035  1.0000
  H   H108      1.0  0.11297  0.62114  0.61732  1.0000
  S   S25       1.0  0.12160  0.61288  0.82637  1.0000
  C   C138      1.0  0.28030  0.63467  0.76335  1.0000
  C   C139      1.0  0.27446  0.49610  0.64193  1.0000
  C   C140      1.0  0.20496  0.53266  0.66286  1.0000
  C   C141      1.0  0.27105  0.57494  0.60443  1.0000
  C   C142      1.0  0.28757  0.58897  0.64278  1.0000
  H   H109      1.0  0.18694  0.60999  0.54781  1.0000
  H   H110      1.0  0.36202  0.62640  0.88317  1.0000
  H   H111      1.0  0.13878  0.52997  0.96430  1.0000
  H   H112      1.0  0.17287  0.53436  0.71156  1.0000
  H   H113      1.0  0.21997  0.55979  0.66121  1.0000
  H   H114      1.0  0.08612  0.48295  0.72141  1.0000
  H   H115      1.0  0.28442  0.57288  0.66942  1.0000
  C   C143      1.0  0.01890  0.54421  0.68752  1.0000
  C   C144      1.0  0.27741  0.58531  0.86385  1.0000
  C   C145      1.0  0.17798  0.51835  0.69128  1.0000
  C   C146      1.0  0.07054  0.47928  0.69391  1.0000
  C   C147      1.0  0.12043  0.46803  0.91784  1.0000
  C   C148      1.0  0.01620  0.54218  0.73163  1.0000
  C   C149      1.0  0.30879  0.62383  0.64685  1.0000
  H   H116      1.0  0.19628  0.46036  0.62022  1.0000
  H   H117      1.0  0.05779  0.54501  0.00483  1.0000
  H   H118      1.0  0.17148  0.49255  0.89467  1.0000
  C   C150      1.0  0.02355  0.52963  0.57555  1.0000
  C   C151      1.0  0.23790  0.46668  0.01621  1.0000
  H   H119      1.0  0.14934  0.43540  0.67162  1.0000
  C   C152      1.0  0.26721  0.56731  0.98512  1.0000
  H   H120      1.0  0.11430  0.59528  0.54892  1.0000
  H   H121      1.0  0.19289  0.54917  0.93755  1.0000
  C   C153      1.0  0.05268  0.45739  0.62348  1.0000
  C   C154      1.0  0.26263  0.61745  0.97690  1.0000
  H   H122      1.0  0.24573  0.48299  0.53443  1.0000
  C   C155      1.0  0.31037  0.59101  0.86786  1.0000
  H   H123      1.0  0.07217  0.44389  0.94936  1.0000
  C   C156      1.0  0.99520  0.51377  0.60216  1.0000
  C   C157      1.0  0.42287  0.52267  0.89497  1.0000
  H   H124      1.0  0.25675  0.56024  0.85675  1.0000
  C   C158      1.0  0.23075  0.59803  0.95841  1.0000
  C   C159      1.0  0.02937  0.57143  0.75618  1.0000
  H   H125      1.0  0.02776  0.56958  0.79023  1.0000
  C   C160      1.0  0.95881  0.50714  0.54263  1.0000
  C   C161      1.0  0.20973  0.45557  0.90550  1.0000
  H   H126      1.0  0.01538  0.46638  0.59512  1.0000
  C   C162      1.0  0.04734  0.60531  0.69301  1.0000
  C   C163      1.0  0.43277  0.38407  0.98004  1.0000
  H   H127      1.0  0.21685  0.61001  0.94739  1.0000
  P   P2        1.0  0.24608  0.52964  0.59922  1.0000
  H   H128      1.0  0.43151  0.62770  0.54358  1.0000
  H   H129      1.0  0.13782  0.47241  0.71752  1.0000
  H   H130      1.0  0.04812  0.50653  0.72018  1.0000
  H   H131      1.0  0.23982  0.45495  0.98757  1.0000
  H   H132      1.0  0.34664  0.49254  0.62693  1.0000
  C   C164      1.0  0.29938  0.48725  0.64844  1.0000
  C   C165      1.0  0.21713  0.56332  0.95300  1.0000
  H   H133      1.0  0.35106  0.52809  0.56588  1.0000
  C   C166      1.0  0.15804  0.48334  0.69449  1.0000
  C   C167      1.0  0.16980  0.48295  0.96164  1.0000
  H   H134      1.0  0.26536  0.58618  0.53966  1.0000
  C   C168      1.0  0.08175  0.54622  0.01140  1.0000
  H   H135      1.0  0.41189  0.52339  0.86496  1.0000
  H   H136      1.0  0.29797  0.47250  0.67579  1.0000
  H   H137      1.0  0.20505  0.41987  0.85786  1.0000
  H   H138      1.0  0.10972  0.46765  0.88720  1.0000
  C   C169      1.0  0.22141  0.44434  0.87197  1.0000
  C   C170      1.0  0.21242  0.61319  0.60612  1.0000
  C   C171      1.0  0.23052  0.48772  0.92312  1.0000
  H   H139      1.0  0.06031  0.62983  0.67816  1.0000
  C   C172      1.0  0.30444  0.52754  0.57991  1.0000
  S   S26       1.0  0.43545  0.61735  0.74659  1.0000
  C   C173      1.0  0.27662  0.51602  0.60730  1.0000
  H   H140      1.0  0.41038  0.36020  0.98744  1.0000
  C   C174      1.0  0.32939  0.51878  0.58668  1.0000
  C   C175      1.0  0.42921  0.40830  0.95747  1.0000
  P   P3        1.0  0.21532  0.50203  0.96654  1.0000
  C   C176      1.0  0.23484  0.54750  0.96733  1.0000
  C   C177      1.0  0.44896  0.31867  0.99532  1.0000
  C   C178      1.0  0.02906  0.48868  0.65752  1.0000
  C   C179      1.0  0.16471  0.46254  0.66885  1.0000
  H   H141      1.0  0.30709  0.54375  0.55372  1.0000
  H   H142      1.0  0.18445  0.43913  0.91748  1.0000
  Fe  Fe15      1.0  0.16783  0.61160  0.84939  1.0000
  Fe  Fe16      1.0  0.39091  0.62057  0.72168  1.0000
  C   C180      1.0  0.07255  0.46178  0.65898  1.0000
  H   H143      1.0  0.25433  0.48817  0.66483  1.0000
  H   H144      1.0  0.23872  0.62289  0.66462  1.0000
  H   H145      1.0  0.04876  0.53804  0.58776  1.0000
  H   H146      1.0  0.00404  0.51794  0.74717  1.0000
  C   C181      1.0  0.44664  0.61938  0.60448  1.0000
  H   H147      1.0  0.40619  0.47197  0.97985  1.0000
  C   C182      1.0  0.12760  0.53797  0.98836  1.0000
  H   H148      1.0  0.39528  0.59878  0.01932  1.0000
  C   C183      1.0  0.22860  0.63277  0.64164  1.0000
  H   H149      1.0  0.43091  0.62651  0.95635  1.0000
  C   C184      1.0  0.40645  0.49423  0.92063  1.0000
  H   H150      1.0  0.05583  0.62569  0.75592  1.0000
  H   H151      1.0  0.08970  0.45189  0.65922  1.0000
  C   C185      1.0  0.96275  0.50267  0.58545  1.0000
  H   H152      1.0  0.03747  0.57863  0.63463  1.0000
  C   C186      1.0  0.03072  0.47039  0.62288  1.0000
  C   C187      1.0  0.04497  0.60300  0.73686  1.0000
  H   H153      1.0  0.20941  0.58837  0.60264  1.0000
  P   P4        1.0  0.00091  0.50588  0.65643  1.0000
  H   H154      1.0  0.31555  0.57067  0.86289  1.0000
  H   H155      1.0  0.40431  0.40301  0.94726  1.0000
  C   C188      1.0  0.19956  0.62533  0.57525  1.0000
  C   C189      1.0  0.29844  0.63108  0.57407  1.0000
  C   C190      1.0  0.43834  0.31580  0.95321  1.0000
  H   H156      1.0  0.26716  0.61100  0.78004  1.0000
  S   S27       1.0  0.43783  0.54631  0.67265  1.0000
  C   C191      1.0  0.01954  0.53396  0.53283  1.0000
  H   H157      1.0  0.09694  0.44516  0.01942  1.0000
  H   H158      1.0  0.24542  0.60741  0.86688  1.0000
  C   C192      1.0  0.27104  0.61182  0.86985  1.0000
  C   C193      1.0  0.45297  0.55072  0.90853  1.0000
  H   H159      1.0  0.19905  0.54406  0.55316  1.0000
  C   C194      1.0  0.33686  0.62295  0.87877  1.0000
  C   C195      1.0  0.20421  0.52762  0.53392  1.0000
  H   H160      1.0  0.44135  0.33748  0.93607  1.0000
  S   S28       1.0  0.12472  0.53863  0.52938  1.0000
  H   H161      1.0  0.44005  0.57050  0.01376  1.0000
  H   H162      1.0  0.96783  0.43307  0.67534  1.0000
  C   C196      1.0  0.22653  0.49005  0.01549  1.0000
  H   H163      1.0  0.23445  0.63183  0.74135  1.0000
  C   C197      1.0  0.95559  0.46816  0.02440  1.0000
  C   C198      1.0  0.96119  0.47655  0.68125  1.0000
  C   C199      1.0  0.45007  0.52218  0.97418  1.0000
  C   C200      1.0  0.95558  0.47794  0.82919  1.0000
  H   H164      1.0  0.96138  0.46616  0.99174  1.0000
  H   H165      1.0  0.32174  0.63444  0.67635  1.0000
  Fe  Fe17      1.0  0.36209  0.81282  0.49909  1.0000
  S   S29       1.0  0.38236  0.78664  0.45943  1.0000
  S   S30       1.0  0.30521  0.78814  0.50909  1.0000
  C   C201      1.0  0.31904  0.71146  0.51102  1.0000
  C   C202      1.0  0.27595  0.65863  0.35049  1.0000
  Fe  Fe18      1.0  0.42084  0.83826  0.43785  1.0000
  H   H166      1.0  0.30114  0.83776  0.45372  1.0000
  C   C203      1.0  0.36267  0.87708  0.37981  1.0000
  S   S31       1.0  0.39786  0.86458  0.47323  1.0000
  H   H167      1.0  0.37527  0.67684  0.47362  1.0000
  C   C204      1.0  0.15978  0.69470  0.25803  1.0000
  Fe  Fe19      1.0  0.35454  0.81196  0.14840  1.0000
  S   S32       1.0  0.40460  0.84771  0.11826  1.0000
  S   S33       1.0  0.33872  0.80261  0.21691  1.0000
  Fe  Fe20      1.0  0.37414  0.85687  0.06938  1.0000
  C   C205      1.0  0.40136  0.70353  0.23658  1.0000
  Fe  Fe21      1.0  0.39373  0.80232  0.07870  1.0000
  S   S34       1.0  0.38521  0.90788  0.04056  1.0000
  S   S35       1.0  0.32428  0.82386  0.10284  1.0000
  S   S36       1.0  0.34634  0.76629  0.11252  1.0000
  C   C206      1.0  0.42189  0.69246  0.44110  1.0000
  C   C207      1.0  0.19958  0.72529  0.14581  1.0000
  C   C208      1.0  0.36778  0.81602  0.25917  1.0000
  C   C209      1.0  0.35541  0.80559  0.30010  1.0000
  C   C210      1.0  0.37771  0.81521  0.33455  1.0000
  C   C211      1.0  0.41242  0.83682  0.32855  1.0000
  C   C212      1.0  0.42477  0.84761  0.28776  1.0000
  C   C213      1.0  0.40264  0.83678  0.25301  1.0000
  H   H168      1.0  0.32849  0.78934  0.30512  1.0000
  H   H169      1.0  0.36800  0.80639  0.36581  1.0000
  C   C214      1.0  0.25039  0.70679  0.19708  1.0000
  H   H170      1.0  0.41249  0.84498  0.22164  1.0000
  H   H171      1.0  0.35743  0.67074  0.07995  1.0000
  C   C215      1.0  0.41474  0.70439  0.12661  1.0000
  C   C216      1.0  0.41191  0.73182  0.11130  1.0000
  P   P5        1.0  0.32325  0.66006  0.40745  1.0000
  H   H172      1.0  0.35078  0.90103  0.29933  1.0000
  H   H173      1.0  0.20242  0.73327  0.07877  1.0000
  C   C217      1.0  0.26206  0.66642  0.49626  1.0000
  C   C218      1.0  0.32244  0.71884  0.31147  1.0000
  H   H174      1.0  0.28045  0.71260  0.27408  1.0000
  C   C219      1.0  0.23048  0.70183  0.42262  1.0000
  C   C220      1.0  0.26377  0.72410  0.40925  1.0000
  C   C221      1.0  0.28711  0.74997  0.43584  1.0000
  C   C222      1.0  0.27702  0.75466  0.47566  1.0000
  C   C223      1.0  0.24355  0.73271  0.48890  1.0000
  C   C224      1.0  0.22051  0.70607  0.46278  1.0000
  H   H175      1.0  0.27157  0.72157  0.37802  1.0000
  H   H176      1.0  0.31265  0.76670  0.42507  1.0000
  H   H177      1.0  0.33925  0.73494  0.20727  1.0000
  C   C225      1.0  0.34482  0.69144  0.21824  1.0000
  H   H178      1.0  0.35885  0.72068  0.35540  1.0000
  C   C226      1.0  0.33727  0.85092  0.40348  1.0000
  C   C227      1.0  0.12278  0.65585  0.31177  1.0000
  H   H179      1.0  0.44799  0.94962  0.49611  1.0000
  C   C228      1.0  0.20001  0.74249  0.10934  1.0000
  C   C229      1.0  0.24772  0.77518  0.33868  1.0000
  H   H180      1.0  0.23509  0.65406  0.50201  1.0000
  H   H181      1.0  0.19973  0.78582  0.08390  1.0000
  C   C230      1.0  0.40524  0.90741  0.22218  1.0000
  C   C231      1.0  0.15445  0.67318  0.29221  1.0000
  H   H182      1.0  0.26363  0.73340  0.18925  1.0000
  H   H183      1.0  0.40505  0.89853  0.19044  1.0000
  C   C232      1.0  0.40557  0.92967  0.30473  1.0000
  H   H184      1.0  0.35765  0.71595  0.46895  1.0000
  C   C233      1.0  0.33295  0.70625  0.34451  1.0000
  C   C234      1.0  0.30998  0.67565  0.36367  1.0000
  S   S37       1.0  0.43445  0.78975  0.06241  1.0000
  C   C235      1.0  0.32045  0.85807  0.43498  1.0000
  C   C236      1.0  0.28862  0.70189  0.29851  1.0000
  H   H185      1.0  0.19577  0.80783  0.15384  1.0000
  C   C237      1.0  0.33112  0.70115  0.47699  1.0000
  C   C238      1.0  0.26420  0.68705  0.18398  1.0000
  H   H186      1.0  0.41818  0.69413  0.24449  1.0000
  H   H187      1.0  0.33106  0.70120  0.04722  1.0000
  C   C239      1.0  0.19637  0.76764  0.18824  1.0000
  S   S38       1.0  0.44801  0.66775  0.13446  1.0000
  C   C240      1.0  0.41867  0.68859  0.36514  1.0000
  H   H188      1.0  0.34049  0.74202  0.29622  1.0000
  C   C241      1.0  0.35920  0.67488  0.04633  1.0000
  C   C242      1.0  0.36721  0.68025  0.22904  1.0000
  H   H189      1.0  0.39098  0.73500  0.12108  1.0000
  C   C243      1.0  0.38398  0.67744  0.36693  1.0000
  C   C244      1.0  0.44204  0.70030  0.11435  1.0000
  C   C245      1.0  0.30886  0.67278  0.45310  1.0000
  H   H190      1.0  0.17870  0.64481  0.24353  1.0000
  C   C246      1.0  0.09602  0.65982  0.29759  1.0000
  H   H191      1.0  0.19474  0.68956  0.47310  1.0000
  S   S39       1.0  0.20116  0.67180  0.38649  1.0000
  C   C247      1.0  0.39062  0.74936  0.22305  1.0000
  H   H192      1.0  0.43075  0.90432  0.39913  1.0000
  H   H193      1.0  0.26787  0.67469  0.07857  1.0000
  H   H194      1.0  0.13611  0.71612  0.21924  1.0000
  H   H195      1.0  0.19545  0.77798  0.21860  1.0000
  H   H196      1.0  0.45008  0.94820  0.08672  1.0000
  H   H197      1.0  0.29045  0.82561  0.34166  1.0000
  H   H198      1.0  0.31842  0.67317  0.21256  1.0000
  H   H199      1.0  0.39594  0.68649  0.14796  1.0000
  C   C248      1.0  0.21951  0.69215  0.21920  1.0000
  H   H200      1.0  0.28749  0.69841  0.16593  1.0000
  H   H201      1.0  0.23884  0.65913  0.30905  1.0000
  C   C249      1.0  0.20293  0.65745  0.22800  1.0000
  C   C250      1.0  0.19651  0.78460  0.15165  1.0000
  C   C251      1.0  0.10109  0.68159  0.26416  1.0000
  H   H202      1.0  0.11913  0.63966  0.33845  1.0000
  C   C252      1.0  0.27415  0.65568  0.46279  1.0000
  C   C253      1.0  0.27392  0.80480  0.32146  1.0000
  S   S40       1.0  0.26641  0.73648  0.04685  1.0000
  P   P6        1.0  0.20123  0.71799  0.23338  1.0000
  C   C254      1.0  0.38707  0.68071  0.44302  1.0000
  H   H203      1.0  0.41091  0.77032  0.38700  1.0000
  H   H204      1.0  0.35812  0.65343  0.23107  1.0000
  C   C255      1.0  0.19835  0.73804  0.18568  1.0000
  H   H205      1.0  0.24417  0.77276  0.37251  1.0000
  H   H206      1.0  0.26281  0.78316  0.21819  1.0000
  C   C256      1.0  0.37164  0.91073  0.38756  1.0000
  Fe  Fe22      1.0  0.31920  0.78003  0.06453  1.0000
  H   H207      1.0  0.12997  0.67341  0.08426  1.0000
  C   C257      1.0  0.32915  0.89145  0.44299  1.0000
  C   C258      1.0  0.43251  0.77268  0.36991  1.0000
  H   H208      1.0  0.11115  0.67294  0.15754  1.0000
  H   H209      1.0  0.43657  0.69872  0.46993  1.0000
  H   H210      1.0  0.36958  0.67118  0.33788  1.0000
  H   H211      1.0  0.20602  0.72609  0.32690  1.0000
  H   H212      1.0  0.20095  0.70249  0.14251  1.0000
  C   C259      1.0  0.35466  0.91771  0.41948  1.0000
  C   C260      1.0  0.19862  0.77218  0.11223  1.0000
  C   C261      1.0  0.27911  0.80740  0.27807  1.0000
  C   C262      1.0  0.41340  0.73831  0.23355  1.0000
  C   C263      1.0  0.26533  0.67181  0.31809  1.0000
  C   C264      1.0  0.25780  0.78060  0.25170  1.0000
  H   H213      1.0  0.17491  0.67003  0.30428  1.0000
  C   C265      1.0  0.37465  0.89760  0.24284  1.0000
  C   C266      1.0  0.22603  0.74847  0.31237  1.0000
  H   H214      1.0  0.30020  0.82990  0.26479  1.0000
  C   C267      1.0  0.23049  0.75113  0.26844  1.0000
  C   C268      1.0  0.44547  0.95560  0.38301  1.0000
  C   C269      1.0  0.35654  0.72600  0.21510  1.0000
  C   C270      1.0  0.24802  0.65282  0.19414  1.0000
  C   C271      1.0  0.13286  0.69917  0.24468  1.0000
  C   C272      1.0  0.25263  0.64793  0.08530  1.0000
  C   C273      1.0  0.43623  0.93921  0.28383  1.0000
  C   C274      1.0  0.11968  0.65565  0.14825  1.0000
  C   C275      1.0  0.13019  0.65586  0.10691  1.0000
  H   H215      1.0  0.39890  0.77598  0.22153  1.0000
  C   C276      1.0  0.36812  0.67448  0.40585  1.0000
  C   C277      1.0  0.37474  0.90879  0.28387  1.0000
  H   H216      1.0  0.23546  0.73627  0.51954  1.0000
  H   H217      1.0  0.07155  0.64634  0.31303  1.0000
  H   H218      1.0  0.35092  0.88097  0.22699  1.0000
  H   H219      1.0  0.40782  0.76379  0.31012  1.0000
  P   P7        1.0  0.40560  0.94430  0.35767  1.0000
  Fe  Fe23      1.0  0.41716  0.79509  0.51404  1.0000
  H   H220      1.0  0.37589  0.87118  0.35605  1.0000
  S   S41       1.0  0.44095  0.85119  0.37130  1.0000
  C   C278      1.0  0.41696  0.95199  0.04168  1.0000
  H   H221      1.0  0.33099  0.82508  0.39799  1.0000
  H   H222      1.0  0.08047  0.68514  0.25369  1.0000
  H   H223      1.0  0.36111  0.94325  0.42679  1.0000
  H   H224      1.0  0.25739  0.63561  0.36579  1.0000
  C   C279      1.0  0.34410  0.69175  0.02787  1.0000
  H   H225      1.0  0.31643  0.89696  0.46792  1.0000
  C   C280      1.0  0.43614  0.75484  0.08314  1.0000
  C   C281      1.0  0.43773  0.69653  0.40217  1.0000
  C   C282      1.0  0.43086  0.76890  0.32619  1.0000
  H   H226      1.0  0.20656  0.64927  0.08740  1.0000
  C   C283      1.0  0.43600  0.92811  0.24269  1.0000
  H   H227      1.0  0.45152  0.86475  0.28317  1.0000
  H   H228      1.0  0.44670  0.78793  0.16294  1.0000
  H   H229      1.0  0.25902  0.63757  0.18470  1.0000
  H   H230      1.0  0.43071  0.69124  0.33497  1.0000
  C   C284      1.0  0.28449  0.69416  0.52062  1.0000
  C   C285      1.0  0.21759  0.63818  0.21647  1.0000
  C   C286      1.0  0.45042  0.93045  0.40078  1.0000
  H   H231      1.0  0.38839  0.65036  0.03609  1.0000
  Fe  Fe24      1.0  0.43334  0.86938  0.52527  1.0000
  C   C287      1.0  0.44608  0.96507  0.06697  1.0000
  H   H232      1.0  0.29524  0.63978  0.08698  1.0000
  S   S42       1.0  0.36651  0.81336  0.02739  1.0000
  S   S43       1.0  0.21871  0.65451  0.87364  1.0000
  C   C288      1.0  0.39998  0.69037  0.65312  1.0000
  H   H233      1.0  0.28174  0.71098  0.90016  1.0000
  C   C289      1.0  0.33251  0.68442  0.74311  1.0000
  H   H234      1.0  0.26790  0.76008  0.71428  1.0000
  C   C290      1.0  0.29993  0.73559  0.63324  1.0000
  H   H235      1.0  0.29169  0.66364  0.88717  1.0000
  C   C291      1.0  0.41210  0.69545  0.57804  1.0000
  C   C292      1.0  0.36372  0.68543  0.95922  1.0000
  H   H236      1.0  0.38898  0.75708  0.93949  1.0000
  H   H237      1.0  0.33151  0.70146  0.83037  1.0000
  H   H238      1.0  0.42658  0.88998  0.68477  1.0000
  H   H239      1.0  0.30346  0.64737  0.54727  1.0000
  C   C293      1.0  0.40519  0.68723  0.83919  1.0000
  C   C294      1.0  0.23103  0.67702  0.92209  1.0000
  C   C295      1.0  0.20888  0.66854  0.95624  1.0000
  C   C296      1.0  0.22020  0.68694  0.99423  1.0000
  C   C297      1.0  0.25368  0.71395  0.99849  1.0000
  C   C298      1.0  0.27582  0.72231  0.96440  1.0000
  C   C299      1.0  0.26451  0.70396  0.92646  1.0000
  H   H240      1.0  0.22246  0.71383  0.83141  1.0000
  C   C300      1.0  0.21400  0.70588  0.79935  1.0000
  H   H241      1.0  0.30153  0.74320  0.96708  1.0000
  C   C301      1.0  0.33077  0.64985  0.88446  1.0000
  H   H242      1.0  0.33639  0.73366  0.52891  1.0000
  C   C302      1.0  0.41239  0.72631  0.57641  1.0000
  H   H243      1.0  0.33310  0.70874  0.97059  1.0000
  C   C303      1.0  0.29750  0.64388  0.88080  1.0000
  C   C304      1.0  0.40561  0.73868  0.61321  1.0000
  H   H244      1.0  0.30211  0.81509  0.67952  1.0000
  P   P8        1.0  0.36457  0.68995  0.90285  1.0000
  C   C305      1.0  0.40421  0.69756  0.88057  1.0000
  C   C306      1.0  0.16959  0.68505  0.74687  1.0000
  C   C307      1.0  0.40580  0.67750  0.61614  1.0000
  C   C308      1.0  0.37849  0.66815  0.97800  1.0000
  H   H245      1.0  0.33367  0.81931  0.61389  1.0000
  C   C309      1.0  0.28232  0.76161  0.68651  1.0000
  H   H246      1.0  0.14354  0.67661  0.73816  1.0000
  P   P9        1.0  0.25385  0.69148  0.69123  1.0000
  C   C310      1.0  0.28119  0.73271  0.66955  1.0000
  C   C311      1.0  0.22490  0.69294  0.72880  1.0000
  H   H247      1.0  0.38060  0.80433  0.91965  1.0000
  H   H248      1.0  0.27491  0.70312  0.54570  1.0000
  H   H249      1.0  0.32399  0.74924  0.81046  1.0000
  H   H250      1.0  0.18306  0.64791  0.95335  1.0000
  H   H251      1.0  0.29939  0.71361  0.61967  1.0000
  C   C312      1.0  0.31951  0.79535  0.63001  1.0000
  H   H252      1.0  0.43434  0.72264  0.93584  1.0000
  H   H253      1.0  0.22027  0.70099  0.61883  1.0000
  C   C313      1.0  0.43426  0.71357  0.90428  1.0000
  C   C314      1.0  0.31564  0.65356  0.76416  1.0000
  H   H254      1.0  0.33176  0.76839  0.58437  1.0000
  H   H255      1.0  0.32789  0.71973  0.70383  1.0000
  C   C315      1.0  0.27858  0.67679  0.71883  1.0000
  H   H256      1.0  0.33126  0.67187  0.61552  1.0000
  H   H257      1.0  0.26137  0.71102  0.77995  1.0000
  H   H258      1.0  0.20284  0.68040  0.02034  1.0000
  H   H259      1.0  0.19189  0.66609  0.55632  1.0000
  S   S44       1.0  0.39543  0.81958  0.55499  1.0000
  H   H260      1.0  0.43549  0.68186  0.79121  1.0000
  H   H261      1.0  0.41698  0.68547  0.54973  1.0000
  H   H262      1.0  0.39025  0.96515  0.99651  1.0000
  S   S45       1.0  0.39345  0.66980  0.70245  1.0000
  C   C316      1.0  0.37438  0.75484  0.91148  1.0000
  H   H263      1.0  0.39129  0.65822  0.95906  1.0000
  H   H264      1.0  0.38256  0.67552  0.81994  1.0000
  C   C317      1.0  0.23169  0.66467  0.64671  1.0000
  C   C318      1.0  0.34590  0.69657  0.98438  1.0000
  C   C319      1.0  0.26185  0.64645  0.74127  1.0000
  C   C320      1.0  0.39964  0.72090  0.65134  1.0000
  H   H265      1.0  0.40570  0.65387  0.61705  1.0000
  H   H266      1.0  0.35993  0.69929  0.74432  1.0000
  H   H267      1.0  0.18195  0.67402  0.68618  1.0000
  H   H268      1.0  0.40576  0.76237  0.61250  1.0000
  C   C321      1.0  0.20232  0.65690  0.58008  1.0000
  H   H269      1.0  0.39515  0.73113  0.67971  1.0000
  C   C322      1.0  0.36993  0.78183  0.90013  1.0000
  C   C323      1.0  0.43530  0.69100  0.82266  1.0000
  C   C324      1.0  0.31415  0.69592  0.72014  1.0000
  C   C325      1.0  0.19154  0.68346  0.71738  1.0000
  C   C326      1.0  0.30161  0.79288  0.66681  1.0000
  C   C327      1.0  0.18079  0.69624  0.78781  1.0000
  H   H270      1.0  0.16354  0.69674  0.81087  1.0000
  C   C328      1.0  0.33803  0.75080  0.83869  1.0000
  C   C329      1.0  0.21827  0.67650  0.61565  1.0000
  C   C330      1.0  0.31865  0.76669  0.61338  1.0000
  C   C331      1.0  0.34223  0.72366  0.85016  1.0000
  C   C332      1.0  0.35158  0.77974  0.86390  1.0000
  C   C333      1.0  0.35968  0.72514  0.88723  1.0000
  H   H271      1.0  0.34795  0.80061  0.85540  1.0000
  C   C334      1.0  0.23595  0.70407  0.77010  1.0000
  C   C335      1.0  0.43643  0.91664  0.69043  1.0000
  C   C336      1.0  0.45167  0.93118  0.72892  1.0000
  C   C337      1.0  0.31422  0.64490  0.61253  1.0000
  C   C338      1.0  0.43461  0.93668  0.65869  1.0000
  H   H272      1.0  0.32989  0.64431  0.78118  1.0000
  H   H273      1.0  0.42362  0.92557  0.62842  1.0000
  H   H274      1.0  0.27320  0.64443  0.98060  1.0000
  S   S46       1.0  0.42253  0.74895  0.52820  1.0000
  H   H275      1.0  0.45416  0.73202  0.72247  1.0000
  C   C339      1.0  0.37653  0.66324  0.02152  1.0000
  H   H276      1.0  0.45350  0.91570  0.75333  1.0000
  C   C340      1.0  0.44985  0.63855  0.56888  1.0000
  H   H277      1.0  0.57295  0.24451  0.11648  1.0000
  H   H278      1.0  0.58484  0.19982  0.10058  1.0000
  C   C341      1.0  0.51915  0.27418  0.23200  1.0000
  C   C342      1.0  0.72147  0.20185  0.45623  1.0000
  C   C343      1.0  0.52877  0.30015  0.41956  1.0000
  C   C344      1.0  0.72959  0.21608  0.49681  1.0000
  C   C345      1.0  0.74215  0.28828  0.06644  1.0000
  C   C346      1.0  0.61838  0.29140  0.49521  1.0000
  H   H279      1.0  0.47903  0.27053  0.32379  1.0000
  C   C347      1.0  0.67322  0.21369  0.07046  1.0000
  H   H280      1.0  0.50040  0.18163  0.44794  1.0000
  C   C348      1.0  0.49563  0.25292  0.08900  1.0000
  C   C349      1.0  0.58423  0.24012  0.38899  1.0000
  H   H281      1.0  0.51796  0.25408  0.07552  1.0000
  H   H282      1.0  0.69770  0.21693  0.06211  1.0000
  C   C350      1.0  0.67102  0.25133  0.39940  1.0000
  C   C351      1.0  0.65598  0.23716  0.43849  1.0000
  C   C352      1.0  0.66991  0.25524  0.47572  1.0000
  C   C353      1.0  0.48730  0.14761  0.14143  1.0000
  H   H283      1.0  0.45567  0.29216  0.04742  1.0000
  H   H284      1.0  0.66092  0.23659  0.37101  1.0000
  H   H285      1.0  0.63458  0.21177  0.43995  1.0000
  S   S47       1.0  0.51313  0.07219  0.52176  1.0000
  C   C354      1.0  0.65020  0.15671  0.50684  1.0000
  H   H286      1.0  0.50892  0.24005  0.34577  1.0000
  H   H287      1.0  0.72618  0.21145  0.38946  1.0000
  C   C355      1.0  0.56956  0.25432  0.41481  1.0000
  C   C356      1.0  0.62822  0.27707  0.23326  1.0000
  C   C357      1.0  0.57786  0.27999  0.16519  1.0000
  H   H288      1.0  0.70571  0.21547  0.23140  1.0000
  H   H289      1.0  0.76120  0.17824  0.48739  1.0000
  C   C358      1.0  0.47235  0.98917  0.38355  1.0000
  C   C359      1.0  0.67071  0.23996  0.08990  1.0000
  C   C360      1.0  0.72109  0.27462  0.15635  1.0000
  H   H290      1.0  0.52060  0.28283  0.20003  1.0000
  C   C361      1.0  0.49924  0.20143  0.17038  1.0000
  C   C362      1.0  0.61219  0.17780  0.07295  1.0000
  H   H291      1.0  0.60807  0.25586  0.37320  1.0000
  S   S48       1.0  0.52464  0.16337  0.04414  1.0000
  C   C363      1.0  0.58155  0.27056  0.12428  1.0000
  C   C364      1.0  0.61728  0.21951  0.27670  1.0000
  C   C365      1.0  0.64965  0.24800  0.27570  1.0000
  C   C366      1.0  0.64403  0.18287  0.06170  1.0000
  C   C367      1.0  0.53697  0.25797  0.24445  1.0000
  P   P10       1.0  0.56077  0.24871  0.20646  1.0000
  H   H292      1.0  0.52385  0.28699  0.39001  1.0000
  S   S49       1.0  0.45560  0.19214  0.04355  1.0000
  C   C368      1.0  0.59565  0.24835  0.23342  1.0000
  H   H293      1.0  0.58126  0.07813  0.51685  1.0000
  C   C369      1.0  0.49518  0.26698  0.30181  1.0000
  C   C370      1.0  0.46338  0.22530  0.07945  1.0000
  H   H294      1.0  0.56772  0.19052  0.17929  1.0000
  C   C371      1.0  0.53185  0.20851  0.18237  1.0000
  C   C372      1.0  0.63868  0.23454  0.10154  1.0000
  H   H295      1.0  0.48063  0.29855  0.41912  1.0000
  C   C373      1.0  0.49875  0.27946  0.11550  1.0000
  C   C374      1.0  0.59033  0.21971  0.25588  1.0000
  H   H296      1.0  0.61313  0.19730  0.29369  1.0000
  C   C375      1.0  0.51982  0.15457  0.15274  1.0000
  H   H297      1.0  0.49242  0.00967  0.08648  1.0000
  C   C376      1.0  0.69777  0.28818  0.47314  1.0000
  C   C377      1.0  0.60959  0.20352  0.09314  1.0000
  H   H298      1.0  0.69146  0.21993  0.15785  1.0000
  H   H299      1.0  0.54568  0.23246  0.29627  1.0000
  H   H300      1.0  0.74321  0.26720  0.27276  1.0000
  C   C378      1.0  0.69961  0.28395  0.39700  1.0000
  C   C379      1.0  0.61746  0.12945  0.50037  1.0000
  C   C380      1.0  0.52347  0.19794  0.43074  1.0000
  H   H301      1.0  0.60022  0.28738  0.06161  1.0000
  C   C381      1.0  0.50276  0.99754  0.40411  1.0000
  C   C382      1.0  0.47714  0.17115  0.14993  1.0000
  P   P11       1.0  0.58996  0.29950  0.42165  1.0000
  C   C383      1.0  0.76193  0.27169  0.46530  1.0000
  H   H302      1.0  0.52790  0.13664  0.14478  1.0000
  C   C384      1.0  0.49854  0.27881  0.26065  1.0000
  C   C385      1.0  0.73721  0.26908  0.24021  1.0000
  C   C386      1.0  0.65509  0.27680  0.25419  1.0000
  P   P12       1.0  0.70860  0.27887  0.10373  1.0000
  C   C387      1.0  0.71605  0.24005  0.21695  1.0000
  H   H303      1.0  0.67056  0.24795  0.29187  1.0000
  C   C388      1.0  0.59672  0.29484  0.09279  1.0000
  C   C389      1.0  0.53311  0.24580  0.28582  1.0000
  C   C390      1.0  0.46962  0.27805  0.13296  1.0000
  C   C391      1.0  0.50692  0.97236  0.42308  1.0000
  C   C392      1.0  0.54220  0.18508  0.17263  1.0000
  C   C393      1.0  0.47692  0.00343  0.50829  1.0000
  C   C394      1.0  0.53925  0.23288  0.43606  1.0000
  H   H304      1.0  0.49098  0.21955  0.17574  1.0000
  H   H305      1.0  0.63605  0.25429  0.11652  1.0000
  H   H306      1.0  0.65749  0.18030  0.49118  1.0000
  H   H307      1.0  0.64598  0.16296  0.04581  1.0000
  C   C395      1.0  0.56850  0.20513  0.38402  1.0000
  C   C396      1.0  0.53806  0.18404  0.40476  1.0000
  H   H308      1.0  0.58025  0.19435  0.36471  1.0000
  H   H309      1.0  0.52614  0.15688  0.40162  1.0000
  C   C397      1.0  0.51221  0.25017  0.31425  1.0000
  H   H310      1.0  0.46698  0.00971  0.48105  1.0000
  C   C398      1.0  0.75346  0.25732  0.42517  1.0000
  H   H311      1.0  0.59659  0.26617  0.49693  1.0000
  C   C399      1.0  0.70806  0.24274  0.17512  1.0000
  H   H312      1.0  0.70608  0.17481  0.45204  1.0000
  H   H313      1.0  0.52795  0.24287  0.45752  1.0000
  S   S50       1.0  0.49714  0.06702  0.04266  1.0000
  H   H314      1.0  0.56531  0.19754  0.25745  1.0000
  C   C400      1.0  0.73313  0.22243  0.42064  1.0000
  H   H315      1.0  0.59988  0.13216  0.48003  1.0000
  H   H316      1.0  0.47036  0.12442  0.12481  1.0000
  C   C401      1.0  0.46572  0.02281  0.04125  1.0000
  H   H317      1.0  0.76204  0.27334  0.39756  1.0000
  S   S51       1.0  0.55454  0.16806  0.51039  1.0000
  H   H318      1.0  0.46988  0.00898  0.36850  1.0000
  H   H319      1.0  0.58947  0.15414  0.06538  1.0000
  C   C402      1.0  0.47013  0.00009  0.06674  1.0000
  C   C403      1.0  0.46613  0.96923  0.51668  1.0000
  H   H320      1.0  0.52296  0.02359  0.40580  1.0000
  H   H321      1.0  0.48480  0.29127  0.25065  1.0000
  S   S52       1.0  0.72015  0.29890  0.34768  1.0000
  H   H322      1.0  0.53020  0.97883  0.43963  1.0000
  C   C404      1.0  0.74980  0.25125  0.50103  1.0000
  H   H323      1.0  0.68021  0.29900  0.25412  1.0000
  H   H324      1.0  0.77725  0.29881  0.46851  1.0000
  H   H325      1.0  0.63302  0.29985  0.21732  1.0000
  H   H326      1.0  0.52348  0.30090  0.12216  1.0000
  C   C405      1.0  0.75058  0.30074  0.22152  1.0000
  H   H327      1.0  0.79976  0.15645  0.50106  1.0000
  C   C406      1.0  0.76300  0.17066  0.51901  1.0000
  C   C407      1.0  0.60690  0.09901  0.52128  1.0000
  Fe  Fe25      1.0  0.60281  0.19691  0.54701  1.0000
  Fe  Fe26      1.0  0.56598  0.17123  0.63158  1.0000
  S   S53       1.0  0.51460  0.14088  0.60129  1.0000
  S   S54       1.0  0.58275  0.17971  0.70022  1.0000
  Fe  Fe27      1.0  0.54055  0.12422  0.55437  1.0000
  H   H328      1.0  0.66132  0.19122  0.59081  1.0000
  Fe  Fe28      1.0  0.53180  0.18610  0.55941  1.0000
  H   H329      1.0  0.75399  0.28616  0.96066  1.0000
  S   S55       1.0  0.59115  0.15189  0.58744  1.0000
  S   S56       1.0  0.58060  0.21762  0.59323  1.0000
  Fe  Fe29      1.0  0.50096  0.14793  0.92634  1.0000
  S   S57       1.0  0.54164  0.13977  0.95457  1.0000
  S   S58       1.0  0.48357  0.13823  0.85796  1.0000
  H   H330      1.0  0.53457  0.26458  0.82984  1.0000
  H   H331      1.0  0.80495  0.13849  0.57290  1.0000
  Fe  Fe30      1.0  0.55779  0.18909  0.98827  1.0000
  C   C408      1.0  0.78498  0.15824  0.52662  1.0000
  H   H332      1.0  0.52893  0.09663  0.84363  1.0000
  C   C409      1.0  0.76881  0.15036  0.60001  1.0000
  S   S59       1.0  0.51974  0.19859  0.95621  1.0000
  C   C410      1.0  0.55472  0.16690  0.74373  1.0000
  C   C411      1.0  0.51950  0.14862  0.73857  1.0000
  C   C412      1.0  0.49817  0.13948  0.77403  1.0000
  C   C413      1.0  0.51167  0.14919  0.81475  1.0000
  C   C414      1.0  0.54689  0.16720  0.81997  1.0000
  C   C415      1.0  0.56828  0.17567  0.78462  1.0000
  H   H333      1.0  0.50867  0.14148  0.70736  1.0000
  H   H334      1.0  0.67851  0.11991  0.57659  1.0000
  H   H335      1.0  0.55761  0.17450  0.85122  1.0000
  H   H336      1.0  0.59549  0.18946  0.78899  1.0000
  H   H337      1.0  0.53254  0.08449  0.76919  1.0000
  C   C416      1.0  0.74379  0.17314  0.55195  1.0000
  C   C417      1.0  0.51305  0.02078  0.56965  1.0000
  H   H338      1.0  0.53141  0.04042  0.58999  1.0000
  C   C418      1.0  0.47472  0.21444  0.67605  1.0000
  C   C419      1.0  0.47992  0.27814  0.74251  1.0000
  C   C420      1.0  0.48236  0.23664  0.80835  1.0000
  C   C421      1.0  0.49515  0.23900  0.55587  1.0000
  C   C422      1.0  0.52136  0.26472  0.57976  1.0000
  C   C423      1.0  0.47177  0.21042  0.71990  1.0000
  H   H339      1.0  0.62649  0.21489  0.92859  1.0000
  H   H340      1.0  0.54400  0.26356  0.58649  1.0000
  C   C424      1.0  0.47825  0.05508  0.85161  1.0000
  C   C425      1.0  0.71573  0.24505  0.66415  1.0000
  H   H341      1.0  0.71570  0.25735  0.69334  1.0000
  C   C426      1.0  0.50956  0.06809  0.78616  1.0000
  C   C427      1.0  0.64072  0.25805  0.96839  1.0000
  C   C428      1.0  0.64517  0.24100  0.93464  1.0000
  C   C429      1.0  0.67432  0.25764  0.90926  1.0000
  C   C430      1.0  0.69871  0.29154  0.91695  1.0000
  H   H342      1.0  0.64040  0.26244  0.64348  1.0000
  C   C431      1.0  0.48834  0.29320  0.58642  1.0000
  H   H343      1.0  0.48820  0.05054  0.62282  1.0000
  C   C432      1.0  0.61039  0.29466  0.86815  1.0000
  H   H344      1.0  0.77102  0.14241  0.63138  1.0000
  H   H345      1.0  0.48845  0.23938  0.66228  1.0000
  C   C433      1.0  0.67300  0.15353  0.53358  1.0000
  C   C434      1.0  0.54115  0.03007  0.68320  1.0000
  Fe  Fe31      1.0  0.50398  0.11435  0.00776  1.0000
  H   H346      1.0  0.70827  0.26872  0.01273  1.0000
  H   H347      1.0  0.60692  0.24904  0.84398  1.0000
  C   C435      1.0  0.45608  0.27295  0.71110  1.0000
  C   C436      1.0  0.55204  0.24501  0.75507  1.0000
  C   C437      1.0  0.62263  0.27621  0.84687  1.0000
  H   H348      1.0  0.53675  0.21957  0.76695  1.0000
  C   C438      1.0  0.45533  0.17768  0.73675  1.0000
  H   H349      1.0  0.59849  0.24351  0.75805  1.0000
  H   H350      1.0  0.47673  0.06117  0.88428  1.0000
  Fe  Fe32      1.0  0.48629  0.17162  0.01085  1.0000
  H   H351      1.0  0.66127  0.21918  0.65698  1.0000
  H   H352      1.0  0.73206  0.16410  0.61842  1.0000
  H   H353      1.0  0.46213  0.18945  0.61578  1.0000
  H   H354      1.0  0.67788  0.24427  0.88348  1.0000
  H   H355      1.0  0.52677  0.00294  0.68651  1.0000
  H   H356      1.0  0.51212  0.98014  0.60525  1.0000
  S   S60       1.0  0.46280  0.12084  0.97805  1.0000
  H   H357      1.0  0.61994  0.09158  0.65352  1.0000
  C   C439      1.0  0.74682  0.16277  0.59253  1.0000
  H   H358      1.0  0.58544  0.02929  0.66118  1.0000
  C   C440      1.0  0.74631  0.25055  0.64689  1.0000
  C   C441      1.0  0.52665  0.05012  0.69269  1.0000
  H   H359      1.0  0.66517  0.27819  0.81474  1.0000
  C   C442      1.0  0.59395  0.07994  0.66429  1.0000
  H   H360      1.0  0.59490  0.12715  0.67109  1.0000
  C   C443      1.0  0.54607  0.08517  0.68718  1.0000
  C   C444      1.0  0.57458  0.04496  0.66877  1.0000
  C   C445      1.0  0.55707  0.29668  0.72796  1.0000
  S   S61       1.0  0.60603  0.23804  0.00298  1.0000
  H   H361      1.0  0.53535  0.10113  0.69381  1.0000
  C   C446      1.0  0.46239  0.26728  0.56298  1.0000
  C   C447      1.0  0.55373  0.28255  0.98542  1.0000
  C   C448      1.0  0.50827  0.24896  0.83866  1.0000
  H   H362      1.0  0.62056  0.07227  0.56525  1.0000
  C   C449      1.0  0.71552  0.21224  0.58916  1.0000
  H   H363      1.0  0.50173  0.26593  0.00101  1.0000
  C   C450      1.0  0.66520  0.29180  0.97622  1.0000
  C   C451      1.0  0.50774  0.07509  0.82863  1.0000
  C   C452      1.0  0.46810  0.05311  0.63712  1.0000
  C   C453      1.0  0.46673  0.22080  0.89365  1.0000
  C   C454      1.0  0.53698  0.26430  0.74474  1.0000
  C   C455      1.0  0.57976  0.10000  0.67385  1.0000
  C   C456      1.0  0.60715  0.29156  0.73610  1.0000
  C   C457      1.0  0.46298  0.98604  0.70405  1.0000
  C   C458      1.0  0.66196  0.12293  0.55495  1.0000
  H   H364      1.0  0.55544  0.26491  0.00656  1.0000
  C   C459      1.0  0.68512  0.22357  0.64377  1.0000
  C   C460      1.0  0.50219  0.98654  0.57810  1.0000
  P   P13       1.0  0.71518  0.18909  0.54270  1.0000
  C   C461      1.0  0.68509  0.20740  0.60637  1.0000
  H   H365      1.0  0.77008  0.23823  0.59694  1.0000
  P   P14       1.0  0.48344  0.03124  0.71125  1.0000
  C   C462      1.0  0.51807  0.29208  0.59479  1.0000
  P   P15       1.0  0.49225  0.24713  0.75357  1.0000
  C   C463      1.0  0.50043  0.24098  0.88103  1.0000
  C   C464      1.0  0.74624  0.23412  0.60963  1.0000
  C   C465      1.0  0.78791  0.14812  0.56709  1.0000
  C   C466      1.0  0.58701  0.25859  0.75046  1.0000
  H   H366      1.0  0.58490  0.28132  0.88054  1.0000
  H   H367      1.0  0.52064  0.24997  0.90397  1.0000
  H   H368      1.0  0.75602  0.26309  0.53167  1.0000
  C   C467      1.0  0.48183  0.04066  0.76634  1.0000
  C   C468      1.0  0.46597  0.24071  0.54733  1.0000
  H   H369      1.0  0.47101  0.12470  0.77004  1.0000
  C   C469      1.0  0.73435  0.28112  0.02351  1.0000
  H   H370      1.0  0.77003  0.26726  0.66269  1.0000
  S   S62       1.0  0.49642  0.20353  0.53633  1.0000
  C   C470      1.0  0.46100  0.04687  0.68020  1.0000
  C   C471      1.0  0.65535  0.29265  0.83012  1.0000
  H   H371      1.0  0.46089  0.21380  0.92647  1.0000
  H   H372      1.0  0.47784  0.97677  0.76515  1.0000
  S   S63       1.0  0.65618  0.23670  0.52621  1.0000
  H   H373      1.0  0.60311  0.28684  0.63238  1.0000
  H   H374      1.0  0.63855  0.28635  0.55401  1.0000
  C   C472      1.0  0.46006  0.18625  0.64955  1.0000
  C   C473      1.0  0.52345  0.28309  0.98226  1.0000
  C   C474      1.0  0.50029  0.02947  0.53475  1.0000
  C   C475      1.0  0.65116  0.28957  0.64323  1.0000
  C   C476      1.0  0.62908  0.09580  0.54868  1.0000
  C   C477      1.0  0.76023  0.29112  0.99381  1.0000
  H   H375      1.0  0.70184  0.29971  0.65383  1.0000
  Fe  Fe33      1.0  0.83393  0.41603  0.34167  1.0000
  S   S64       1.0  0.81400  0.36679  0.30654  1.0000
  S   S65       1.0  0.88190  0.43549  0.38282  1.0000
  Fe  Fe34      1.0  0.77279  0.42211  0.31326  1.0000
  S   S66       1.0  0.74992  0.37449  0.27536  1.0000
  S   S67       1.0  0.74422  0.45028  0.32165  1.0000
  Fe  Fe35      1.0  0.76210  0.35245  0.33132  1.0000
  Fe  Fe36      1.0  0.80321  0.39294  0.25386  1.0000
  S   S68       1.0  0.81700  0.38476  0.18791  1.0000
  S   S69       1.0  0.78237  0.39934  0.37065  1.0000
  S   S70       1.0  0.82576  0.44289  0.28768  1.0000
  C   C478      1.0  0.79938  0.45799  0.45202  1.0000
  Fe  Fe37      1.0  0.50522  0.36005  0.19769  1.0000
  S   S71       1.0  0.53887  0.40847  0.16408  1.0000
  Fe  Fe38      1.0  0.52663  0.39495  0.28430  1.0000
  S   S72       1.0  0.56272  0.44562  0.25636  1.0000
  S   S73       1.0  0.51528  0.38052  0.35328  1.0000
  Fe  Fe39      1.0  0.52040  0.43365  0.20969  1.0000
  S   S74       1.0  0.50926  0.47392  0.18293  1.0000
  Fe  Fe40      1.0  0.57749  0.41594  0.21336  1.0000
  S   S75       1.0  0.62838  0.42488  0.19064  1.0000
  S   S76       1.0  0.54453  0.36626  0.24460  1.0000
  C   C479      1.0  0.53535  0.40737  0.39702  1.0000
  C   C480      1.0  0.52154  0.39627  0.43724  1.0000
  C   C481      1.0  0.53830  0.41500  0.47347  1.0000
  C   C482      1.0  0.56890  0.44549  0.46976  1.0000
  C   C483      1.0  0.58194  0.45745  0.42935  1.0000
  C   C484      1.0  0.56539  0.43836  0.39311  1.0000
  H   H376      1.0  0.49797  0.37269  0.44039  1.0000
  C   C485      1.0  0.54799  0.51066  0.28722  1.0000
  H   H377      1.0  0.60548  0.48102  0.42605  1.0000
  H   H378      1.0  0.57631  0.44717  0.36231  1.0000
  C   C486      1.0  0.59145  0.32666  0.34164  1.0000
  C   C487      1.0  0.65947  0.43065  0.22806  1.0000
  C   C488      1.0  0.68462  0.42290  0.21697  1.0000
  C   C489      1.0  0.71028  0.42807  0.24573  1.0000
  C   C490      1.0  0.71162  0.44217  0.28530  1.0000
  C   C491      1.0  0.68692  0.45066  0.29594  1.0000
  C   C492      1.0  0.66041  0.44412  0.26788  1.0000
  H   H379      1.0  0.68441  0.41313  0.18592  1.0000
  H   H380      1.0  0.72963  0.42220  0.23675  1.0000
  H   H381      1.0  0.68825  0.46238  0.32598  1.0000
  H   H382      1.0  0.64144  0.45064  0.27649  1.0000
  C   C493      1.0  0.79598  0.42556  0.06654  1.0000
  C   C494      1.0  0.81178  0.40612  0.06508  1.0000
  C   C495      1.0  0.81805  0.39386  0.10260  1.0000
  C   C496      1.0  0.80797  0.40026  0.14169  1.0000
  C   C497      1.0  0.79132  0.41886  0.14305  1.0000
  C   C498      1.0  0.78584  0.43189  0.10568  1.0000
  H   H383      1.0  0.56651  0.32280  0.34796  1.0000
  H   H384      1.0  0.83103  0.37957  0.10139  1.0000
  H   H385      1.0  0.78312  0.42364  0.17292  1.0000
  H   H386      1.0  0.77353  0.44683  0.10708  1.0000
  C   C499      1.0  0.62287  0.31240  0.46089  1.0000
  C   C500      1.0  0.92534  0.46655  0.37305  1.0000
  C   C501      1.0  0.93508  0.48946  0.33972  1.0000
  H   H387      1.0  0.52696  0.61852  0.12659  1.0000
  H   H388      1.0  0.91589  0.48873  0.31903  1.0000
  S   S77       1.0  0.48359  0.38439  0.24004  1.0000
  H   H389      1.0  0.48492  0.40975  0.08717  1.0000
  C   C502      1.0  0.84824  0.51112  0.15180  1.0000
  H   H390      1.0  0.56522  0.36943  0.10566  1.0000
  C   C503      1.0  0.71279  0.33762  0.07108  1.0000
  C   C504      1.0  0.64376  0.40714  0.38577  1.0000
  C   C505      1.0  0.61162  0.39458  0.40338  1.0000
  C   C506      1.0  0.60848  0.40304  0.44457  1.0000
  C   C507      1.0  0.63717  0.42528  0.46765  1.0000
  C   C508      1.0  0.66970  0.43812  0.45030  1.0000
  C   C509      1.0  0.67271  0.42869  0.40911  1.0000
  C   C510      1.0  0.71273  0.51048  0.45867  1.0000
  C   C511      1.0  0.68455  0.51475  0.45304  1.0000
  C   C512      1.0  0.68887  0.54557  0.43915  1.0000
  C   C513      1.0  0.74543  0.53791  0.45161  1.0000
  H   H391      1.0  0.64630  0.40073  0.35371  1.0000
  H   H392      1.0  0.58901  0.37897  0.38499  1.0000
  H   H393      1.0  0.58355  0.39351  0.45798  1.0000
  H   H394      1.0  0.69716  0.43854  0.39425  1.0000
  H   H395      1.0  0.75143  0.48600  0.40449  1.0000
  C   C514      1.0  0.46982  0.52522  0.34901  1.0000
  H   H396      1.0  0.66690  0.54852  0.43490  1.0000
  H   H397      1.0  0.76768  0.53575  0.45718  1.0000
  H   H398      1.0  0.82833  0.51735  0.14867  1.0000
  C   C515      1.0  0.49103  0.49003  0.43980  1.0000
  H   H399      1.0  0.65917  0.49441  0.45988  1.0000
  C   C516      1.0  0.60886  0.31830  0.37140  1.0000
  H   H400      1.0  0.59352  0.34849  0.28094  1.0000
  C   C517      1.0  0.90216  0.41081  0.17213  1.0000
  C   C518      1.0  0.80213  0.31549  0.04927  1.0000
  C   C519      1.0  0.60392  0.33825  0.14212  1.0000
  H   H401      1.0  0.58776  0.51709  0.03073  1.0000
  H   H402      1.0  0.69653  0.38177  0.49195  1.0000
  C   C520      1.0  0.51827  0.49681  0.31107  1.0000
  C   C521      1.0  0.63929  0.34749  0.29403  1.0000
  C   C522      1.0  0.70147  0.31434  0.10432  1.0000
  H   H403      1.0  0.50594  0.35490  0.09558  1.0000
  H   H404      1.0  0.49439  0.48896  0.29517  1.0000
  C   C523      1.0  0.87408  0.52237  0.12189  1.0000
  C   C524      1.0  0.91432  0.44223  0.19195  1.0000
  H   H405      1.0  0.49483  0.49717  0.08876  1.0000
  C   C525      1.0  0.45986  0.58104  0.03740  1.0000
  H   H406      1.0  0.65135  0.35953  0.26470  1.0000
  C   C526      1.0  0.46275  0.38666  0.09734  1.0000
  C   C527      1.0  0.67465  0.35664  0.49314  1.0000
  H   H407      1.0  0.45584  0.62574  0.04510  1.0000
  C   C528      1.0  0.52321  0.36462  0.06918  1.0000
  C   C529      1.0  0.91440  0.45861  0.07862  1.0000
  C   C530      1.0  0.87248  0.48186  0.18848  1.0000
  C   C531      1.0  0.50476  0.47514  0.46587  1.0000
  H   H408      1.0  0.87069  0.46537  0.21376  1.0000
  H   H409      1.0  0.75264  0.32841  0.16623  1.0000
  H   H410      1.0  0.54713  0.49449  0.09032  1.0000
  C   C532      1.0  0.55681  0.37244  0.07489  1.0000
  H   H411      1.0  0.69552  0.39600  0.11222  1.0000
  C   C533      1.0  0.71022  0.36669  0.07378  1.0000
  C   C534      1.0  0.47573  0.48283  0.19192  1.0000
  C   C535      1.0  0.54149  0.50500  0.06295  1.0000
  H   H412      1.0  0.73414  0.32785  0.43273  1.0000
  H   H413      1.0  0.67399  0.35447  0.17041  1.0000
  C   C536      1.0  0.74293  0.46574  0.46780  1.0000
  C   C537      1.0  0.60771  0.32864  0.10162  1.0000
  C   C538      1.0  0.55087  0.50293  0.37403  1.0000
  C   C539      1.0  0.64134  0.32388  0.36124  1.0000
  H   H414      1.0  0.82728  0.48202  0.20809  1.0000
  H   H415      1.0  0.80053  0.47885  0.39093  1.0000
  H   H416      1.0  0.88816  0.44902  0.08756  1.0000
  C   C540      1.0  0.74967  0.56869  0.43748  1.0000
  H   H417      1.0  0.90127  0.40868  0.13824  1.0000
  C   C541      1.0  0.47738  0.51120  0.17246  1.0000
  C   C542      1.0  0.50384  0.30605  0.43641  1.0000
  P   P16       1.0  0.46592  0.52352  0.02684  1.0000
  C   C543      1.0  0.75992  0.47555  0.42905  1.0000
  H   H418      1.0  0.50952  0.45580  0.45360  1.0000
  H   H419      1.0  0.87418  0.53738  0.09553  1.0000
  H   H420      1.0  0.60192  0.53029  0.28780  1.0000
  H   H421      1.0  0.72463  0.33419  0.04349  1.0000
  C   C544      1.0  0.68658  0.32020  0.13964  1.0000
  C   C545      1.0  0.91413  0.44379  0.23611  1.0000
  H   H422      1.0  0.55281  0.50009  0.40744  1.0000
  H   H423      1.0  0.72470  0.59632  0.42015  1.0000
  C   C546      1.0  0.72140  0.57248  0.43107  1.0000
  H   H424      1.0  0.79135  0.43724  0.51434  1.0000
  C   C547      1.0  0.58928  0.31411  0.17392  1.0000
  P   P17       1.0  0.70647  0.47064  0.47761  1.0000
  C   C548      1.0  0.78800  0.47172  0.42128  1.0000
  H   H425      1.0  0.45839  0.40899  0.15506  1.0000
  C   C549      1.0  0.92194  0.45559  0.03674  1.0000
  H   H426      1.0  0.77491  0.58965  0.43155  1.0000
  C   C550      1.0  0.51217  0.36925  0.02985  1.0000
  H   H427      1.0  0.76725  0.32326  0.23925  1.0000
  C   C551      1.0  0.58046  0.51628  0.34992  1.0000
  C   C552      1.0  0.89855  0.49302  0.15859  1.0000
  H   H428      1.0  0.91909  0.52260  0.10186  1.0000
  H   H429      1.0  0.87931  0.36046  0.25872  1.0000
  C   C553      1.0  0.50051  0.57732  0.08292  1.0000
  H   H430      1.0  0.51315  0.56424  0.09420  1.0000
  H   H431      1.0  0.87959  0.35719  0.18080  1.0000
  C   C554      1.0  0.69638  0.37285  0.10961  1.0000
  C   C555      1.0  0.68440  0.34951  0.14245  1.0000
  C   C556      1.0  0.50859  0.60826  0.10126  1.0000
  C   C557      1.0  0.88961  0.38327  0.24014  1.0000
  H   H432      1.0  0.52782  0.40551  0.50428  1.0000
  H   H433      1.0  0.90117  0.41588  0.29415  1.0000
  H   H434      1.0  0.60444  0.52312  0.36486  1.0000
  C   C558      1.0  0.57906  0.52030  0.30657  1.0000
  H   H435      1.0  0.54686  0.51343  0.25351  1.0000
  C   C559      1.0  0.51159  0.50642  0.06184  1.0000
  C   C560      1.0  0.88993  0.38147  0.19623  1.0000
  H   H436      1.0  0.49656  0.54257  0.35436  1.0000
  H   H437      1.0  0.68180  0.34337  0.31599  1.0000
  H   H438      1.0  0.61964  0.34743  0.07725  1.0000
  C   C561      1.0  0.84765  0.49117  0.18528  1.0000
  H   H439      1.0  0.65425  0.36234  0.43512  1.0000
  C   C562      1.0  0.65086  0.34533  0.46052  1.0000
  C   C563      1.0  0.50863  0.32131  0.47583  1.0000
  H   H440      1.0  0.48912  0.32536  0.48944  1.0000
  C   C564      1.0  0.89933  0.51367  0.12544  1.0000
  H   H441      1.0  0.81963  0.40103  0.03516  1.0000
  H   H442      1.0  0.47544  0.42685  0.32203  1.0000
  H   H443      1.0  0.61280  0.36453  0.14907  1.0000
  C   C565      1.0  0.60668  0.34126  0.30322  1.0000
  C   C566      1.0  0.46862  0.61236  0.05514  1.0000
  H   H444      1.0  0.49924  0.52746  0.15362  1.0000
  C   C567      1.0  0.71230  0.30271  0.43404  1.0000
  H   H445      1.0  0.78319  0.31245  0.11171  1.0000
  C   C568      1.0  0.90177  0.41445  0.26008  1.0000
  H   H446      1.0  0.60565  0.39093  0.04593  1.0000
  C   C569      1.0  0.45980  0.41342  0.34874  1.0000
  H   H447      1.0  0.82095  0.45472  0.44554  1.0000
  C   C570      1.0  0.78264  0.44808  0.49066  1.0000
  P   P18       1.0  0.48095  0.47638  0.38559  1.0000
  C   C571      1.0  0.65651  0.33863  0.32296  1.0000
  H   H448      1.0  0.94372  0.45136  0.42639  1.0000
  P   P19       1.0  0.93046  0.48060  0.16166  1.0000
  C   C572      1.0  0.94054  0.47454  0.10849  1.0000
  S   S78       1.0  0.59212  0.46819  0.51491  1.0000
  C   C573      1.0  0.77629  0.30563  0.07910  1.0000
  H   H449      1.0  0.58635  0.33349  0.49957  1.0000
  C   C574      1.0  0.74245  0.30355  0.17993  1.0000
  C   C575      1.0  0.48479  0.51477  0.45667  1.0000
  C   C576      1.0  0.51949  0.49326  0.35487  1.0000
  H   H450      1.0  0.58722  0.32220  0.20529  1.0000
  S   S79       1.0  0.46967  0.30976  0.16564  1.0000
  C   C577      1.0  0.53860  0.33133  0.49799  1.0000
  C   C578      1.0  0.45837  0.43083  0.38434  1.0000
  H   H451      1.0  0.63352  0.43338  0.49827  1.0000
  H   H452      1.0  0.92315  0.46769  0.25205  1.0000
  C   C579      1.0  0.47613  0.56346  0.05072  1.0000
  C   C580      1.0  0.56371  0.32577  0.48111  1.0000
  H   H453      1.0  0.76482  0.33106  0.52339  1.0000
  H   H454      1.0  0.72037  0.38510  0.04864  1.0000
  C   C581      1.0  0.75459  0.45199  0.49862  1.0000
  H   H455      1.0  0.48743  0.54349  0.51195  1.0000
  C   C582      1.0  0.49243  0.52454  0.49889  1.0000
  H   H456      1.0  0.65517  0.31693  0.38290  1.0000
  H   H457      1.0  0.82101  0.38171  0.51161  1.0000
  H   H458      1.0  0.47386  0.52640  0.43758  1.0000
  H   H459      1.0  0.82842  0.32935  0.05913  1.0000
  H   H460      1.0  0.67786  0.30270  0.16563  1.0000
  C   C583      1.0  0.51270  0.48520  0.50785  1.0000
  C   C584      1.0  0.49274  0.62582  0.08729  1.0000
  C   C585      1.0  0.55914  0.31022  0.44148  1.0000
  C   C586      1.0  0.56435  0.51780  0.02950  1.0000
  H   H461      1.0  0.70838  0.30233  0.50174  1.0000
  C   C587      1.0  0.95079  0.46874  0.40034  1.0000
  C   C588      1.0  0.57951  0.38442  0.04122  1.0000
  C   C589      1.0  0.50391  0.52022  0.02690  1.0000
  H   H462      1.0  0.67977  0.40431  0.03185  1.0000
  H   H463      1.0  0.46231  0.56220  0.31636  1.0000
  C   C590      1.0  0.50647  0.50984  0.52441  1.0000
  C   C591      1.0  0.45491  0.49150  0.36216  1.0000
  Fe  Fe41      1.0  0.83612  0.43159  0.87672  1.0000
  S   S80       1.0  0.81791  0.46589  0.90188  1.0000
  S   S81       1.0  0.88640  0.44675  0.84246  1.0000
  Fe  Fe42      1.0  0.76675  0.36873  0.89289  1.0000
  S   S82       1.0  0.74414  0.39844  0.91899  1.0000
  C   C592      1.0  0.63018  0.30329  0.63691  1.0000
  Fe  Fe43      1.0  0.76952  0.43389  0.86535  1.0000
  S   S83       1.0  0.74286  0.45888  0.83299  1.0000
  Fe  Fe44      1.0  0.79353  0.42750  0.95376  1.0000
  C   C593      1.0  0.52716  0.53326  0.99354  1.0000
  S   S84       1.0  0.78910  0.40222  0.83640  1.0000
  S   S85       1.0  0.81475  0.39509  0.93124  1.0000
  C   C594      1.0  0.70288  0.43684  0.97885  1.0000
  C   C595      1.0  0.69401  0.30850  0.95058  1.0000
  Fe  Fe45      1.0  0.57429  0.44338  0.57905  1.0000
  S   S86       1.0  0.52023  0.42281  0.59906  1.0000
  Fe  Fe46      1.0  0.59345  0.41929  0.66031  1.0000
  S   S87       1.0  0.54040  0.39747  0.68521  1.0000
  S   S88       1.0  0.62790  0.40209  0.69096  1.0000
  Fe  Fe47      1.0  0.52390  0.37781  0.61978  1.0000
  H   H464      1.0  0.72327  0.52276  0.54240  1.0000
  Fe  Fe48      1.0  0.54186  0.44497  0.66251  1.0000
  S   S89       1.0  0.52144  0.47007  0.70759  1.0000
  S   S90       1.0  0.57625  0.39682  0.59549  1.0000
  S   S91       1.0  0.59673  0.46854  0.64170  1.0000
  C   C596      1.0  0.95204  0.44267  0.68724  1.0000
  C   C597      1.0  0.79411  0.30839  0.00664  1.0000
  S   S92       1.0  0.48129  0.32545  0.60517  1.0000
  H   H465      1.0  0.53815  0.31193  0.61321  1.0000
  C   C598      1.0  0.49705  0.48999  0.69696  1.0000
  C   C599      1.0  0.49092  0.49684  0.65601  1.0000
  C   C600      1.0  0.92296  0.42117  0.71034  1.0000
  C   C601      1.0  0.53478  0.38005  0.99573  1.0000
  C   C602      1.0  0.90281  0.43329  0.72742  1.0000
  C   C603      1.0  0.70969  0.44180  0.79503  1.0000
  C   C604      1.0  0.69494  0.46101  0.78244  1.0000
  C   C605      1.0  0.66951  0.44910  0.75117  1.0000
  C   C606      1.0  0.65876  0.41789  0.73187  1.0000
  C   C607      1.0  0.67336  0.39858  0.74469  1.0000
  C   C608      1.0  0.69850  0.41033  0.77625  1.0000
  H   H466      1.0  0.70344  0.48541  0.79678  1.0000
  H   H467      1.0  0.65853  0.46424  0.74172  1.0000
  H   H468      1.0  0.66548  0.37449  0.72998  1.0000
  H   H469      1.0  0.70981  0.39544  0.78534  1.0000
  H   H470      1.0  0.72029  0.46377  0.92035  1.0000
  H   H471      1.0  0.59327  0.44254  0.84610  1.0000
  C   C609      1.0  0.92980  0.47361  0.85736  1.0000
  C   C610      1.0  0.74603  0.32535  0.76742  1.0000
  H   H472      1.0  0.91993  0.48755  0.91818  1.0000
  C   C611      1.0  0.68089  0.43719  0.55372  1.0000
  H   H473      1.0  0.49810  0.35659  0.77499  1.0000
  C   C612      1.0  0.56845  0.38798  0.00157  1.0000
  P   P20       1.0  0.46868  0.35884  0.02237  1.0000
  C   C613      1.0  0.67586  0.32754  0.83474  1.0000
  C   C614      1.0  0.54864  0.32657  0.92905  1.0000
  C   C615      1.0  0.46524  0.51639  0.72414  1.0000
  H   H474      1.0  0.72430  0.45572  0.99683  1.0000
  H   H475      1.0  0.73145  0.32662  0.58625  1.0000
  H   H476      1.0  0.62749  0.34878  0.63330  1.0000
  C   C616      1.0  0.68440  0.46520  0.61983  1.0000
  C   C617      1.0  0.67363  0.43560  0.59660  1.0000
  H   H477      1.0  0.60748  0.33561  0.71234  1.0000
  H   H478      1.0  0.68841  0.34411  0.55246  1.0000
  H   H479      1.0  0.68829  0.38632  0.64627  1.0000
  H   H480      1.0  0.93377  0.49830  0.52960  1.0000
  C   C618      1.0  0.48976  0.44632  0.96178  1.0000
  H   H481      1.0  0.57525  0.54244  0.96924  1.0000
  H   H482      1.0  0.45740  0.34777  0.71779  1.0000
  H   H483      1.0  0.58600  0.39677  0.97541  1.0000
  H   H484      1.0  0.67843  0.46389  0.65304  1.0000
  H   H485      1.0  0.65883  0.41137  0.61163  1.0000
  S   S93       1.0  0.78888  0.44292  0.02056  1.0000
  H   H486      1.0  0.71009  0.33380  0.73404  1.0000
  H   H487      1.0  0.74214  0.44414  0.52876  1.0000
  C   C619      1.0  0.76867  0.37555  0.61159  1.0000
  H   H488      1.0  0.67192  0.41395  0.53618  1.0000
  C   C620      1.0  0.75589  0.34909  0.58202  1.0000
  P   P21       1.0  0.74518  0.37291  0.65878  1.0000
  C   C621      1.0  0.75833  0.35589  0.70133  1.0000
  C   C622      1.0  0.75468  0.41518  0.67183  1.0000
  C   C623      1.0  0.76453  0.42803  0.71278  1.0000
  C   C624      1.0  0.77226  0.46096  0.72221  1.0000
  C   C625      1.0  0.76994  0.48117  0.69111  1.0000
  C   C626      1.0  0.76051  0.46872  0.65017  1.0000
  C   C627      1.0  0.75304  0.43590  0.64048  1.0000
  C   C628      1.0  0.79174  0.36195  0.70333  1.0000
  C   C629      1.0  0.80214  0.34989  0.73726  1.0000
  C   C630      1.0  0.77929  0.33161  0.76927  1.0000
  H   H489      1.0  0.94672  0.51425  0.69313  1.0000
  C   C631      1.0  0.73563  0.33782  0.73395  1.0000
  C   C632      1.0  0.46663  0.55048  0.94784  1.0000
  C   C633      1.0  0.91121  0.46668  0.72052  1.0000
  C   C634      1.0  0.70247  0.49650  0.60013  1.0000
  H   H490      1.0  0.51631  0.62477  0.81158  1.0000
  H   H491      1.0  0.52237  0.54463  0.96664  1.0000
  C   C635      1.0  0.77476  0.35143  0.54615  1.0000
  H   H492      1.0  0.46824  0.51910  0.61745  1.0000
  H   H493      1.0  0.63288  0.35995  0.99085  1.0000
  C   C636      1.0  0.67869  0.35951  0.64432  1.0000
  H   H494      1.0  0.76602  0.41282  0.73777  1.0000
  H   H495      1.0  0.77951  0.47063  0.75401  1.0000
  H   H496      1.0  0.77531  0.50642  0.69894  1.0000
  H   H497      1.0  0.75876  0.48444  0.62607  1.0000
  H   H498      1.0  0.74557  0.42652  0.60868  1.0000
  H   H499      1.0  0.81001  0.37650  0.67928  1.0000
  H   H500      1.0  0.82810  0.35520  0.73924  1.0000
  H   H501      1.0  0.88126  0.41724  0.74716  1.0000
  C   C637      1.0  0.46989  0.63354  0.63750  1.0000
  C   C638      1.0  0.70961  0.49824  0.55713  1.0000
  H   H502      1.0  0.52106  0.57870  0.77673  1.0000
  C   C639      1.0  0.80653  0.37994  0.53957  1.0000
  C   C640      1.0  0.59209  0.31040  0.72445  1.0000
  C   C641      1.0  0.55726  0.53207  0.99491  1.0000
  C   C642      1.0  0.58388  0.37549  0.78921  1.0000
  C   C643      1.0  0.58397  0.40530  0.79867  1.0000
  H   H503      1.0  0.54592  0.34313  0.90724  1.0000
  C   C644      1.0  0.60212  0.40351  0.86977  1.0000
  C   C645      1.0  0.60294  0.37397  0.86016  1.0000
  C   C646      1.0  0.59320  0.35974  0.81978  1.0000
  P   P22       1.0  0.61521  0.35398  0.89994  1.0000
  C   C647      1.0  0.64911  0.38654  0.93134  1.0000
  C   C648      1.0  0.57929  0.32642  0.93232  1.0000
  H   H504      1.0  0.63432  0.30229  0.73320  1.0000
  H   H505      1.0  0.91664  0.39539  0.71621  1.0000
  C   C649      1.0  0.67391  0.41641  0.91213  1.0000
  H   H506      1.0  0.70159  0.34031  0.82299  1.0000
  C   C650      1.0  0.80094  0.40388  0.60505  1.0000
  H   H507      1.0  0.81410  0.31671  0.98340  1.0000
  H   H508      1.0  0.60931  0.41484  0.90072  1.0000
  C   C651      1.0  0.63109  0.32973  0.87349  1.0000
  H   H509      1.0  0.51821  0.42898  0.99665  1.0000
  C   C652      1.0  0.64397  0.33822  0.63732  1.0000
  C   C653      1.0  0.70066  0.44135  0.93578  1.0000
  C   C654      1.0  0.70011  0.34597  0.64983  1.0000
  C   C655      1.0  0.66380  0.34602  0.85623  1.0000
  H   H510      1.0  0.57746  0.36523  0.75766  1.0000
  H   H511      1.0  0.57761  0.41787  0.77446  1.0000
  H   H512      1.0  0.59342  0.33691  0.81151  1.0000
  H   H513      1.0  0.71297  0.33423  0.95760  1.0000
  H   H514      1.0  0.67319  0.42029  0.87861  1.0000
  H   H515      1.0  0.48935  0.57296  0.95835  1.0000
  H   H516      1.0  0.89605  0.47622  0.73483  1.0000
  H   H517      1.0  0.94872  0.46488  0.79930  1.0000
  H   H518      1.0  0.94048  0.49024  0.60518  1.0000
  H   H519      1.0  0.84451  0.42803  0.56425  1.0000
  H   H520      1.0  0.50061  0.48932  0.62960  1.0000
  H   H521      1.0  0.68030  0.37295  0.85944  1.0000
  C   C656      1.0  0.93931  0.49051  0.89613  1.0000
  C   C657      1.0  0.52031  0.62541  0.77790  1.0000
  H   H522      1.0  0.48860  0.49482  0.76272  1.0000
  C   C658      1.0  0.68597  0.31079  0.64931  1.0000
  C   C659      1.0  0.59291  0.41922  0.83901  1.0000
  H   H523      1.0  0.66203  0.30501  0.00251  1.0000
  H   H524      1.0  0.52640  0.38237  0.96468  1.0000
  C   C660      1.0  0.81969  0.40607  0.56915  1.0000
  H   H525      1.0  0.46646  0.61831  0.66497  1.0000
  C   C661      1.0  0.65129  0.38248  0.97487  1.0000
  C   C662      1.0  0.49436  0.30812  0.76624  1.0000
  C   C663      1.0  0.58147  0.30388  0.96035  1.0000
  H   H526      1.0  0.46501  0.57313  0.88906  1.0000
  C   C664      1.0  0.49335  0.42236  0.98490  1.0000
  C   C665      1.0  0.94007  0.48816  0.69716  1.0000
  H   H527      1.0  0.45513  0.45793  0.92994  1.0000
  H   H528      1.0  0.51184  0.47040  0.95461  1.0000
  C   C666      1.0  0.45953  0.52366  0.68320  1.0000
  C   C667      1.0  0.48407  0.49994  0.73091  1.0000
  C   C668      1.0  0.45778  0.43929  0.94790  1.0000
  C   C669      1.0  0.67796  0.40763  0.99845  1.0000
  C   C670      1.0  0.69854  0.46855  0.53351  1.0000
  H   H529      1.0  0.71040  0.51939  0.61812  1.0000
  C   C671      1.0  0.46305  0.32806  0.72551  1.0000
  H   H530      1.0  0.81176  0.42429  0.62782  1.0000
  H   H531      1.0  0.54600  0.31150  0.71750  1.0000
  S   S94       1.0  0.73508  0.31203  0.88464  1.0000
  H   H532      1.0  0.72866  0.31146  0.79266  1.0000
  H   H533      1.0  0.45554  0.52387  0.75060  1.0000
  H   H534      1.0  0.51250  0.51748  0.55706  1.0000
  C   C672      1.0  0.48611  0.33305  0.75757  1.0000
  C   C673      1.0  0.52286  0.59942  0.75834  1.0000
  H   H535      1.0  0.52968  0.62455  0.65673  1.0000
  H   H536      1.0  0.51256  0.31247  0.79086  1.0000
  H   H537      1.0  0.90165  0.44385  0.01372  1.0000
  C   C674      1.0  0.52789  0.62558  0.69064  1.0000
  C   C675      1.0  0.47248  0.51371  0.64925  1.0000
  H   H538      1.0  0.60449  0.30245  0.96251  1.0000
  C   C676      1.0  0.52685  0.59964  0.71478  1.0000
  C   C677      1.0  0.52090  0.30498  0.95395  1.0000
  H   H539      1.0  0.52812  0.57909  0.69953  1.0000
  H   H540      1.0  0.49727  0.30493  0.95092  1.0000
  C   C678      1.0  0.46501  0.39051  0.99278  1.0000
  H   H541      1.0  0.78744  0.32283  0.79611  1.0000
  H   H542      1.0  0.54214  0.34316  0.52855  1.0000
  C   C679      1.0  0.64191  0.30301  0.52814  1.0000
  C   C680      1.0  0.67007  0.33552  0.52712  1.0000
  H   H543      1.0  0.52380  0.47387  0.52747  1.0000
  C   C681      1.0  0.50619  0.71425  0.23884  1.0000
  C   C682      1.0  0.48716  0.72841  0.25360  1.0000
  C   C683      1.0  0.48933  0.78184  0.32527  1.0000
  H   H544      1.0  0.51437  0.79314  0.38568  1.0000
  H   H545      1.0  0.52899  0.75253  0.14346  1.0000
  H   H546      1.0  0.50845  0.69578  0.25759  1.0000
  C   C684      1.0  0.52151  0.72316  0.19931  1.0000
  H   H547      1.0  0.46752  0.84292  0.12888  1.0000
  C   C685      1.0  0.49056  0.83890  0.24545  1.0000
  H   H548      1.0  0.50216  0.89582  0.16914  1.0000
  H   H549      1.0  0.49857  0.64958  0.10187  1.0000
  S   S95       1.0  0.45805  0.84512  0.48873  1.0000
  H   H550      1.0  0.48413  0.91905  0.43511  1.0000
  C   C686      1.0  0.46205  0.81067  0.18096  1.0000
  H   H551      1.0  0.48220  0.76827  0.04961  1.0000
  H   H552      1.0  0.51693  0.89323  0.24381  1.0000
  H   H553      1.0  0.49716  0.83840  0.27803  1.0000
  C   C687      1.0  0.48091  0.93876  0.42089  1.0000
  C   C688      1.0  0.51791  0.74632  0.17460  1.0000
  C   C689      1.0  0.46244  0.78107  0.39140  1.0000
  H   H554      1.0  0.49535  0.77717  0.16853  1.0000
  C   C690      1.0  0.49865  0.76030  0.18908  1.0000
  H   H555      1.0  0.53543  0.71149  0.18731  1.0000
  C   C691      1.0  0.46634  0.72364  0.08681  1.0000
  C   C692      1.0  0.49092  0.78579  0.36906  1.0000
  C   C693      1.0  0.45901  0.77264  0.30362  1.0000
  H   H556      1.0  0.51183  0.78640  0.30828  1.0000
  H   H557      1.0  0.46474  0.70582  0.40073  1.0000
  C   C694      1.0  0.47052  0.80887  0.22296  1.0000
  C   C695      1.0  0.48315  0.75155  0.22882  1.0000
  H   H558      1.0  0.48759  0.72082  0.07736  1.0000
  H   H559      1.0  0.47495  0.72070  0.28389  1.0000
  C   C696      1.0  0.47375  0.84190  0.16159  1.0000
  C   C697      1.0  0.50187  0.87017  0.22611  1.0000
  C   C698      1.0  0.49346  0.87166  0.18419  1.0000
  P   P23       1.0  0.45688  0.76834  0.24700  1.0000
  H   H560      1.0  0.46367  0.78463  0.42527  1.0000
  H   H561      1.0  0.46033  0.95508  0.29920  1.0000
  C   C699      1.0  0.46329  0.75054  0.07112  1.0000
  H   H562      1.0  0.45966  0.93532  0.22672  1.0000
  H   H563      1.0  0.48731  0.72892  0.90649  1.0000
  H   H564      1.0  0.48791  0.70786  0.83450  1.0000
  C   C700      1.0  0.48513  0.71089  0.70390  1.0000
  C   C701      1.0  0.46519  0.96579  0.73561  1.0000
  C   C702      1.0  0.53973  0.73451  0.73861  1.0000
  H   H565      1.0  0.56383  0.73560  0.74324  1.0000
  C   C703      1.0  0.52590  0.65216  0.71001  1.0000
  C   C704      1.0  0.53240  0.75598  0.76200  1.0000
  H   H566      1.0  0.56105  0.75468  0.64719  1.0000
  C   C705      1.0  0.51612  0.71179  0.70940  1.0000
  H   H567      1.0  0.51918  0.67111  0.76983  1.0000
  H   H568      1.0  0.49580  0.77170  0.77417  1.0000
  H   H569      1.0  0.61806  0.79167  0.61813  1.0000
  H   H570      1.0  0.55063  0.77338  0.78458  1.0000
  C   C706      1.0  0.50159  0.75511  0.75611  1.0000
  C   C707      1.0  0.62445  0.72199  0.63657  1.0000
  C   C708      1.0  0.47807  0.73268  0.72702  1.0000
  C   C709      1.0  0.46441  0.71739  0.88762  1.0000
  P   P24       1.0  0.52668  0.68531  0.67820  1.0000
  C   C710      1.0  0.49968  0.68615  0.59940  1.0000
  C   C711      1.0  0.57849  0.74519  0.64439  1.0000
  C   C712      1.0  0.56875  0.71217  0.65702  1.0000
  H   H571      1.0  0.58578  0.67575  0.66271  1.0000
  C   C713      1.0  0.59212  0.70080  0.65308  1.0000
  C   C714      1.0  0.49707  0.66681  0.63492  1.0000
  H   H572      1.0  0.64229  0.71300  0.63360  1.0000
  H   H573      1.0  0.46633  0.69354  0.68179  1.0000
  C   C715      1.0  0.61083  0.76629  0.62789  1.0000
  S   S96       1.0  0.46579  0.91764  0.56403  1.0000
  C   C716      1.0  0.63379  0.75469  0.62394  1.0000
  H   H574      1.0  0.65885  0.77105  0.61112  1.0000
  H   H575      1.0  0.51949  0.71222  0.59713  1.0000
  C   C717      1.0  0.46482  0.70573  0.84702  1.0000
  C   C718      1.0  0.47875  0.96049  0.55163  1.0000
  C   C719      1.0  0.52201  0.65179  0.75393  1.0000
  H   H576      1.0  0.47816  0.68721  0.53942  1.0000
  C   C720      1.0  0.47621  0.67202  0.56649  1.0000
