data_image0
_chemical_formula_structural       FeS2FeS2FeSFeS3FeS2FeS2FeSFeS3FeS2FeS2FeSFeS3C2H3CH2C3H2C6H4C2H2C6H4CH2CH2C3H2C2HCH3C4H3C4HPC12HCH3C2H4CH2C2H3C2HC6PC5HC12HCH6CH8C2HC6PC4H5CHCH3C3H2C2H3C3H2C3H3CHCHCH4C2HCHC2HC2H4C3HC3H3C6PC18H16C2H3C2H2C2HCHCHC2HPC5HC2PCHC2H2CH2C4HC3H3C3HC2H5C3HC3HCH2CHCH5CHCH2PC2HC3H4CHFeS2FeS2FeSFeS3FeS2FeS2FeSFeS3FeS2FeS2FeSFeS3C2HC6H4C5H4C3HC6H4C5H8CHCH3C3H2C2HCH3CHCHCHCHC3HCH5C2HCHC3HCHC3H4C3HCH2CHCH6C7HCPHC5PC19HCH15C4HPC4H2CHC4H2CHC3H3CH2CPCH4C5H2CHCHCHC2HCPH2CHCHCHC2HCHCH3CHC3H3CHC2PC2HCHC2PH3C6HC2HC10HC2HCHCHC2H2C3HCHCHC2HC2H6CHCH3CH3CHC2FeS2FeS2FeSFeS3FeS2FeS2FeSFeS3FeS2FeSHFeSFeS3C3H2C4H2C4H2C6H4C2HC6H4C3HC3HC3HC3H3C4H2CHC2HCH3C2HC7HC2HC7PC8H2C8H11C2H7C2H2SHC6PC18H14CH3C6PC10H12CHCH2C3HCHC3PC2H2C2H3C2PH4C2H4CH2C2HCHC5HC2H2CHC8H2C3H3C2HCH2C2HCH2CPCPH3CHC3H2CH3CHCHC3HCH4PH3C2HC2HCH2C5HFeS2FeS2FeSFeS3FeS2FeS2FeSFeS3FeS2FeS2FeSFeS3C3H3C7H4C2HC3H3C3HC6H4C2H5CHC2HPC2HC3HCHC2HC2HCH2CHC4HCHCHC5HCHC3HC3HC2H2C2HC4HCPH2C2HC3HC4H2CHCHC2HPHCHCH5CH2C5H2CH2C7H3C2HCHC3H2C2HC3H2CHCH5CHCH2CH2C3HC2H2PC3H3CHC7PC3HC13H15C2H2C3HC2H3CHCH5CHC2HCHC2H3CHC2HC2HPCH2CH2C6HCH2CHCHC3H2CHCHC3HC3H2CHC3HC2H3CHC2HC2H3CPC2HCH2C2H2FeS2FeS2FeSFeS3FeS2FeS2FeSFeHS2CHCH2C2H2C4HCHSC6H2C6H5CHC2H4C2HC2HC2H2CHC5H3CH3CH2CHC2H2PCH2C2H2C2H5C6H2C4HC2H4CH2CHC4HCH2CH3C2HCH4CHC2H4C3HC4HCHCH2CHCFeS2FeS2FeSFeS3FeS2FeSHFeSFeS3CHC2HC7H2C6H7C4HC2H5CSHCHCH2CH2C2HC2H2CH3CH3C3HC3H2C5H5C2H3CHC5PC3HC2HC11HCH2CHCHCH2C2HCHCHCPC3H3C7HCHC2HC2HCH6C6HC4HCHCH4CH2CH2C2PH2CH2C3FeS2FeS2FeSFeS3FeS2FeS2FeSFeS3HCH2C3HCH4CH2CHC2H2CHCH3CHC6H4C3PC4HC11HC2H5CH7C2H5CH6C6HC2H2C4HC2HC3PC3H2CHC11H3CHCH2CH11CHC4PC18H12CH7C2HC2HC3HC2H3CH2CFeS2FeS2FeSFeS3FeSHFeS2FeSFeS3C2H2CH3CHC2HCHCHCHC6H4C3H2C2H2C2H2C2HC4HC2SCH2C4HC4H4CH3CH7CH4CH2CHC5HPHC2HCHC2HCH3CHCHCH3C5PC2HC3H2C6HCH2CHC7PC18H11CH3CH2C2HCHCHC2H2C2H2FeS2FeS2FeSFeS3FeSHFeS2FeSFeS3FeS2FeS2FeSFeS3C4H2C3H2C4HC6H4C2H4C6H4C3H2C2H3CHC3H3CH5CHC2H3C2HC2H3CH2C3HCPC4HC2PC2H3C2H3CHC2H2CH2CHCH2C2H2CH3C9PC8HC10H10C3H5CH2C2H8C3H2CHPHC7PC14H3CHCH4C2H9C2H2CH2C6PC2HCHC2H2CHC5H2C4HC6HC6H3C3H2CHSHC2H3CHC4HC3H2C5HCHC3H2PC2H2CH2C2H2C4H2C2HC4HCHCH2CH3CPHCHCH2C2HCH4CHC2HCFeS2FeS2FeSFeS3FeS2FeS2FeSFeS3FeS2FeS2FeSFeS3C5H2C6H5CHC2H3C2H2CH4C6H4CH3C2HC5H4CH2C4H4C6PC16H17CHC4H5CHC4HCH2CH3C2HC4HC3HCHC2H6PC8H2CH4CHC3H2C8HC2HC2H2C4HCH4CHC2H3CHC4HC4H4CH2C4HPHPC2H2C7H2C6H4CHCHC2H2PCHC6PC5H4CHCH3C2HC2H3C2H2CH2C2HC2FeS2FeS2FeSFeS3FeS2FeS2FeSFeS3FeS2FeS2FeSFeS3C3H2C4H3C2H3C6H4CH4C8H4CH4C3HCHCHCHC4HC3HCHC2H4C3HCHC8PC18H21CHC3HC5H4CH2CHCH3CHCHCH3CH2C4PHCHC4HCH3C3HC5HC4H4C3H2C2H5CH3C4HCHCH3C5H2CHCHC2H3C3H4C3PC8HPC4H3CHCH2C4H2PC2HCHC2HC2H2C5H2C2HCHC2H2CH2CHCH2CHC3H3FeS2FeS2FeSFeS3FeS2FeS2FeSFeS3FeS2FeS2FeSFeS3CHC2H3C6H4C3H5CHCHCHPCHC6H4C5H2CHC6H2CHC4PC18HC2H19CHC2PHC3HC2HCPCHC6HCH2C2PH4CH7CHC3HC3H2CH4C5HCH2CHC4HC2HCPCHCHC8HC3HC3H2CH6CHC8HC3HC2HCH3CH3CHCHCHC3HCHC2HCHCHC2H3CHCHCHCHCH3C2HCH2CH2C3HC3
_chemical_formula_sum              "Fe128 S256 C1920 H1536 P64"
_cell_length_a       61.4841
_cell_length_b       61.6539
_cell_length_c       40.4378
_cell_angle_alpha    89.6951
_cell_angle_beta     89.5697
_cell_angle_gamma    87.983

_space_group_name_H-M_alt    "P 1"
_space_group_IT_number       1

loop_
  _space_group_symop_operation_xyz
  'x, y, z'

loop_
  _atom_site_type_symbol
  _atom_site_label
  _atom_site_symmetry_multiplicity
  _atom_site_fract_x
  _atom_site_fract_y
  _atom_site_fract_z
  _atom_site_occupancy
  Fe  Fe1       1.0  0.23279  0.06070  0.18458  1.0000
  S   S1        1.0  0.20822  0.07565  0.14880  1.0000
  S   S2        1.0  0.22354  0.03128  0.21794  1.0000
  Fe  Fe2       1.0  0.26490  0.09756  0.16842  1.0000
  S   S3        1.0  0.24247  0.11388  0.13193  1.0000
  S   S4        1.0  0.29906  0.10992  0.17685  1.0000
  Fe  Fe3       1.0  0.21626  0.10813  0.17021  1.0000
  S   S5        1.0  0.19246  0.13730  0.17743  1.0000
  Fe  Fe4       1.0  0.23645  0.08038  0.11352  1.0000
  S   S6        1.0  0.23732  0.06909  0.05925  1.0000
  S   S7        1.0  0.23917  0.09338  0.20784  1.0000
  S   S8        1.0  0.26052  0.06384  0.14829  1.0000
  Fe  Fe5       1.0  0.09867  0.23597  0.36125  1.0000
  S   S9        1.0  0.08962  0.26035  0.32070  1.0000
  S   S10       1.0  0.09153  0.24734  0.41466  1.0000
  Fe  Fe6       1.0  0.12006  0.20424  0.31088  1.0000
  S   S11       1.0  0.11242  0.22656  0.26868  1.0000
  S   S12       1.0  0.13909  0.17183  0.30431  1.0000
  Fe  Fe7       1.0  0.12365  0.25336  0.30142  1.0000
  S   S13       1.0  0.15077  0.27381  0.27976  1.0000
  Fe  Fe8       1.0  0.07875  0.23145  0.29120  1.0000
  S   S14       1.0  0.05106  0.22942  0.25215  1.0000
  S   S15       1.0  0.13308  0.23059  0.34285  1.0000
  S   S16       1.0  0.08604  0.20757  0.33274  1.0000
  Fe  Fe9       1.0  0.26979  0.36488  0.27961  1.0000
  S   S17       1.0  0.24265  0.38434  0.25456  1.0000
  S   S18       1.0  0.28536  0.33419  0.25550  1.0000
  Fe  Fe10      1.0  0.26073  0.38790  0.34718  1.0000
  S   S19       1.0  0.23347  0.40891  0.32609  1.0000
  S   S20       1.0  0.27417  0.38777  0.40031  1.0000
  Fe  Fe11      1.0  0.22327  0.37802  0.30113  1.0000
  S   S21       1.0  0.18803  0.36755  0.30600  1.0000
  Fe  Fe12      1.0  0.25506  0.41386  0.28109  1.0000
  S   S22       1.0  0.26439  0.44697  0.25719  1.0000
  S   S23       1.0  0.24940  0.35713  0.32446  1.0000
  S   S24       1.0  0.28330  0.39428  0.30391  1.0000
  C   C1        1.0  0.26156  0.38774  0.44030  1.0000
  C   C2        1.0  0.23908  0.39087  0.44486  1.0000
  H   H1        1.0  0.26332  0.05156  0.39205  1.0000
  H   H2        1.0  0.22872  0.39331  0.42358  1.0000
  H   H3        1.0  0.24776  0.22898  0.29621  1.0000
  C   C3        1.0  0.25557  0.47184  0.23658  1.0000
  H   H4        1.0  0.28967  0.18924  0.16051  1.0000
  H   H5        1.0  0.21886  0.32278  0.35380  1.0000
  C   C4        1.0  0.09392  0.23619  0.45552  1.0000
  C   C5        1.0  0.10090  0.21467  0.46164  1.0000
  C   C6        1.0  0.28510  0.24525  0.13753  1.0000
  H   H6        1.0  0.10495  0.20411  0.44106  1.0000
  H   H7        1.0  0.25789  0.29455  0.33926  1.0000
  C   C7        1.0  0.16120  0.29939  0.29040  1.0000
  C   C8        1.0  0.14900  0.31525  0.30779  1.0000
  C   C9        1.0  0.15748  0.33601  0.31268  1.0000
  C   C10       1.0  0.17843  0.34090  0.30113  1.0000
  C   C11       1.0  0.19089  0.32476  0.28500  1.0000
  C   C12       1.0  0.18218  0.30429  0.27917  1.0000
  H   H8        1.0  0.13275  0.31182  0.31630  1.0000
  H   H9        1.0  0.14767  0.34844  0.32512  1.0000
  H   H10       1.0  0.20698  0.32834  0.27620  1.0000
  H   H11       1.0  0.19160  0.29221  0.26546  1.0000
  C   C13       1.0  0.02205  0.22730  0.24701  1.0000
  C   C14       1.0  0.00722  0.22880  0.27347  1.0000
  H   H12       1.0  0.01322  0.23080  0.29830  1.0000
  H   H13       1.0  0.25665  0.16031  0.11246  1.0000
  C   C15       1.0  0.17914  0.14724  0.21385  1.0000
  C   C16       1.0  0.17796  0.13485  0.24284  1.0000
  C   C17       1.0  0.16576  0.14271  0.27025  1.0000
  C   C18       1.0  0.15464  0.16306  0.26918  1.0000
  C   C19       1.0  0.15603  0.17558  0.24029  1.0000
  C   C20       1.0  0.16829  0.16773  0.21290  1.0000
  H   H14       1.0  0.18614  0.11903  0.24394  1.0000
  H   H15       1.0  0.16476  0.13286  0.29239  1.0000
  H   H16       1.0  0.14753  0.19122  0.23895  1.0000
  H   H17       1.0  0.16916  0.17750  0.19069  1.0000
  C   C21       1.0  0.23794  0.08127  0.01905  1.0000
  H   H18       1.0  0.25066  0.32326  0.39135  1.0000
  H   H19       1.0  0.18023  0.41117  0.35074  1.0000
  C   C22       1.0  0.25802  0.15514  0.24712  1.0000
  H   H20       1.0  0.23502  0.11447  0.03508  1.0000
  H   H21       1.0  0.20331  0.20458  0.11487  1.0000
  C   C23       1.0  0.22879  0.00262  0.22524  1.0000
  C   C24       1.0  0.32343  0.21716  0.99060  1.0000
  C   C25       1.0  0.29519  0.09335  0.06360  1.0000
  H   H22       1.0  0.32394  0.22724  0.08575  1.0000
  H   H23       1.0  0.25950  0.30238  0.01018  1.0000
  C   C26       1.0  0.30291  0.31172  0.41629  1.0000
  C   C27       1.0  0.30999  0.32610  0.23456  1.0000
  H   H24       1.0  0.30748  0.27825  0.40329  1.0000
  C   C28       1.0  0.23632  0.10376  0.01401  1.0000
  H   H25       1.0  0.29812  0.29468  0.22250  1.0000
  H   H26       1.0  0.21767  0.16880  0.13509  1.0000
  H   H27       1.0  0.21671  0.00836  0.14626  1.0000
  C   C29       1.0  0.29338  0.15453  0.16659  1.0000
  C   C30       1.0  0.30801  0.13679  0.17029  1.0000
  C   C31       1.0  0.26190  0.15894  0.08691  1.0000
  C   C32       1.0  0.15553  0.25138  0.44175  1.0000
  H   H28       1.0  0.27608  0.15195  0.16717  1.0000
  H   H29       1.0  0.25237  0.99756  0.18625  1.0000
  H   H30       1.0  0.20595  0.03494  0.04937  1.0000
  C   C33       1.0  0.32044  0.24153  0.36653  1.0000
  C   C34       1.0  0.99664  0.29126  0.26885  1.0000
  C   C35       1.0  0.13151  0.02634  0.06539  1.0000
  C   C36       1.0  0.13653  0.04664  0.05197  1.0000
  H   H31       1.0  0.08874  0.05810  0.01210  1.0000
  P   P1        1.0  0.16299  0.05785  0.05734  1.0000
  C   C37       1.0  0.16090  0.08402  0.07720  1.0000
  C   C38       1.0  0.17963  0.04095  0.08454  1.0000
  C   C39       1.0  0.17291  0.03782  0.11747  1.0000
  C   C40       1.0  0.18609  0.02577  0.13944  1.0000
  C   C41       1.0  0.20621  0.01704  0.12886  1.0000
  C   C42       1.0  0.21307  0.02019  0.09621  1.0000
  C   C43       1.0  0.19984  0.03204  0.07409  1.0000
  C   C44       1.0  0.17978  0.09576  0.08168  1.0000
  C   C45       1.0  0.17879  0.11553  0.09843  1.0000
  C   C46       1.0  0.15895  0.12374  0.11093  1.0000
  C   C47       1.0  0.14004  0.11220  0.10654  1.0000
  C   C48       1.0  0.14100  0.09229  0.09003  1.0000
  H   H32       1.0  0.24115  0.05030  0.99467  1.0000
  C   C49       1.0  0.12105  0.05790  0.03243  1.0000
  H   H33       1.0  0.03536  0.27133  0.21567  1.0000
  H   H34       1.0  0.19537  0.08941  0.07265  1.0000
  H   H35       1.0  0.23406  0.17688  0.06766  1.0000
  C   C50       1.0  0.17434  0.05972  0.01608  1.0000
  C   C51       1.0  0.21381  0.01442  0.39892  1.0000
  H   H36       1.0  0.14336  0.01687  0.07950  1.0000
  H   H37       1.0  0.02894  0.27708  0.27534  1.0000
  H   H38       1.0  0.15771  0.04512  0.12637  1.0000
  H   H39       1.0  0.18120  0.02382  0.16509  1.0000
  C   C52       1.0  0.02009  0.27886  0.22401  1.0000
  H   H40       1.0  0.31341  0.05414  0.11708  1.0000
  H   H41       1.0  0.28127  0.06440  0.08310  1.0000
  C   C53       1.0  0.25602  0.16625  0.02874  1.0000
  C   C54       1.0  0.15175  0.23929  0.47037  1.0000
  H   H42       1.0  0.15840  0.13878  0.12469  1.0000
  H   H43       1.0  0.12473  0.11848  0.11665  1.0000
  H   H44       1.0  0.17340  0.29736  0.47659  1.0000
  C   C55       1.0  0.02352  0.15926  0.13460  1.0000
  C   C56       1.0  0.30407  0.29445  0.39392  1.0000
  H   H45       1.0  0.13839  0.33817  0.48856  1.0000
  C   C57       1.0  0.30117  0.17568  0.16288  1.0000
  C   C58       1.0  0.09557  0.02931  0.04118  1.0000
  C   C59       1.0  0.26381  0.25332  0.13296  1.0000
  C   C60       1.0  0.25952  0.27574  0.13110  1.0000
  C   C61       1.0  0.27655  0.29026  0.13360  1.0000
  C   C62       1.0  0.29781  0.28199  0.13892  1.0000
  P   P2        1.0  0.27066  0.31904  0.12861  1.0000
  C   C63       1.0  0.24828  0.32584  0.15625  1.0000
  C   C64       1.0  0.29369  0.33539  0.13792  1.0000
  C   C65       1.0  0.29213  0.35188  0.16182  1.0000
  C   C66       1.0  0.30966  0.36522  0.16723  1.0000
  C   C67       1.0  0.31105  0.21733  0.24584  1.0000
  H   H46       1.0  0.18784  0.48795  0.06042  1.0000
  C   C68       1.0  0.31290  0.33292  0.11907  1.0000
  C   C69       1.0  0.22871  0.33549  0.14470  1.0000
  C   C70       1.0  0.21216  0.34165  0.16708  1.0000
  C   C71       1.0  0.21505  0.33827  0.20100  1.0000
  C   C72       1.0  0.23431  0.32828  0.21249  1.0000
  C   C73       1.0  0.25067  0.32174  0.19017  1.0000
  C   C74       1.0  0.26421  0.32553  0.08614  1.0000
  C   C75       1.0  0.26065  0.34734  0.07684  1.0000
  C   C76       1.0  0.25634  0.35283  0.04388  1.0000
  C   C77       1.0  0.25579  0.33662  0.01991  1.0000
  C   C78       1.0  0.25960  0.31490  0.02888  1.0000
  C   C79       1.0  0.26387  0.30934  0.06185  1.0000
  H   H47       1.0  0.27175  0.00055  0.26858  1.0000
  C   C80       1.0  0.29758  0.22438  0.22007  1.0000
  H   H48       1.0  0.19649  0.04243  0.41894  1.0000
  H   H49       1.0  0.24297  0.28180  0.12725  1.0000
  H   H50       1.0  0.12487  0.07330  0.02108  1.0000
  H   H51       1.0  0.27754  0.35463  0.17652  1.0000
  H   H52       1.0  0.30845  0.37762  0.18613  1.0000
  H   H53       1.0  0.22604  0.29615  0.30291  1.0000
  C   C81       1.0  0.21905  0.18316  0.15020  1.0000
  H   H54       1.0  0.31433  0.32076  0.09986  1.0000
  H   H55       1.0  0.22619  0.33850  0.11864  1.0000
  H   H56       1.0  0.19720  0.34942  0.15827  1.0000
  H   H57       1.0  0.20248  0.34363  0.21842  1.0000
  H   H58       1.0  0.23696  0.32616  0.23879  1.0000
  H   H59       1.0  0.26561  0.31428  0.19953  1.0000
  H   H60       1.0  0.26134  0.36011  0.09511  1.0000
  H   H61       1.0  0.25364  0.36971  0.03689  1.0000
  C   C82       1.0  0.13666  0.37738  0.39544  1.0000
  C   C83       1.0  0.13043  0.39246  0.37101  1.0000
  H   H62       1.0  0.26723  0.29247  0.06802  1.0000
  C   C84       1.0  0.28224  0.23894  0.35332  1.0000
  C   C85       1.0  0.11574  0.30164  0.43824  1.0000
  C   C86       1.0  0.12636  0.30654  0.40866  1.0000
  C   C87       1.0  0.14193  0.32254  0.40788  1.0000
  C   C88       1.0  0.14707  0.33383  0.43678  1.0000
  C   C89       1.0  0.29874  0.33290  0.40492  1.0000
  P   P3        1.0  0.16700  0.35486  0.43511  1.0000
  C   C90       1.0  0.31051  0.20493  0.01210  1.0000
  C   C91       1.0  0.22376  0.16054  0.27653  1.0000
  C   C92       1.0  0.25905  0.13345  0.25730  1.0000
  C   C93       1.0  0.27922  0.27862  0.30323  1.0000
  H   H63       1.0  0.26592  0.22372  0.19864  1.0000
  H   H64       1.0  0.10382  0.28910  0.43880  1.0000
  H   H65       1.0  0.12250  0.29782  0.38632  1.0000
  H   H66       1.0  0.14955  0.32629  0.38448  1.0000
  H   H67       1.0  0.04137  0.17857  0.09998  1.0000
  C   C94       1.0  0.25699  0.99120  0.31477  1.0000
  H   H68       1.0  0.00684  0.28139  0.17528  1.0000
  C   C95       1.0  0.13575  0.32921  0.46621  1.0000
  H   H69       1.0  0.29991  0.19982  0.06243  1.0000
  H   H70       1.0  0.27432  0.19035  0.29207  1.0000
  H   H71       1.0  0.04385  0.13718  0.20557  1.0000
  C   C96       1.0  0.14611  0.40470  0.35501  1.0000
  C   C97       1.0  0.21081  0.20326  0.13898  1.0000
  C   C98       1.0  0.01359  0.22481  0.21491  1.0000
  H   H72       1.0  0.21265  0.39371  0.48024  1.0000
  H   H73       1.0  0.22127  0.46626  0.23835  1.0000
  C   C99       1.0  0.24266  0.28047  0.26200  1.0000
  C   C100      1.0  0.26229  0.27107  0.25060  1.0000
  H   H74       1.0  0.24771  0.00639  0.31684  1.0000
  H   H75       1.0  0.14139  0.41606  0.33560  1.0000
  H   H76       1.0  0.18282  0.24950  0.32434  1.0000
  C   C101      1.0  0.28061  0.20000  0.27192  1.0000
  C   C102      1.0  0.29626  0.31956  0.34894  1.0000
  C   C103      1.0  0.28119  0.14735  0.07922  1.0000
  H   H77       1.0  0.22861  0.28142  0.24598  1.0000
  H   H78       1.0  0.26355  0.26498  0.22557  1.0000
  C   C104      1.0  0.17431  0.38690  0.38789  1.0000
  C   C105      1.0  0.15871  0.37428  0.40368  1.0000
  C   C106      1.0  0.24123  0.28887  0.29399  1.0000
  H   H79       1.0  0.16782  0.22439  0.28360  1.0000
  H   H80       1.0  0.11347  0.39452  0.36425  1.0000
  H   H81       1.0  0.08287  0.26610  0.47857  1.0000
  C   C107      1.0  0.21143  0.34341  0.44371  1.0000
  H   H82       1.0  0.22803  0.06630  0.41401  1.0000
  C   C108      1.0  0.24249  0.12528  0.27713  1.0000
  H   H83       1.0  0.28839  0.09976  0.99708  1.0000
  C   C109      1.0  0.16393  0.27207  0.44416  1.0000
  H   H84       1.0  0.29059  0.13975  0.09902  1.0000
  H   H85       1.0  0.02472  0.22366  0.19411  1.0000
  H   H86       1.0  0.30065  0.19413  0.39560  1.0000
  H   H87       1.0  0.26699  0.20989  0.37020  1.0000
  C   C110      1.0  0.30083  0.29828  0.35997  1.0000
  C   C111      1.0  0.19331  0.34320  0.42266  1.0000
  H   H88       1.0  0.24599  0.33726  0.44836  1.0000
  C   C112      1.0  0.23462  0.32826  0.40031  1.0000
  H   H89       1.0  0.19142  0.38487  0.39382  1.0000
  C   C113      1.0  0.23196  0.33603  0.43250  1.0000
  C   C114      1.0  0.25940  0.28797  0.31456  1.0000
  H   H90       1.0  0.20974  0.17051  0.28384  1.0000
  C   C115      1.0  0.22962  0.04950  0.40634  1.0000
  C   C116      1.0  0.21676  0.32795  0.37922  1.0000
  H   H91       1.0  0.00985  0.13990  0.17352  1.0000
  H   H92       1.0  0.21175  0.13235  0.30138  1.0000
  H   H93       1.0  0.16640  0.28159  0.42195  1.0000
  H   H94       1.0  0.15132  0.24494  0.41780  1.0000
  C   C117      1.0  0.16822  0.28081  0.47520  1.0000
  C   C118      1.0  0.23984  0.06770  0.99118  1.0000
  C   C119      1.0  0.16799  0.40205  0.36366  1.0000
  H   H95       1.0  0.15980  0.40077  0.45472  1.0000
  C   C120      1.0  0.24044  0.16891  0.25685  1.0000
  C   C121      1.0  0.22824  0.18121  0.18165  1.0000
  C   C122      1.0  0.23001  0.39108  0.47710  1.0000
  H   H96       1.0  0.28824  0.48297  0.23069  1.0000
  H   H97       1.0  0.23390  0.16530  0.19004  1.0000
  H   H98       1.0  0.26707  0.01330  0.37461  1.0000
  C   C123      1.0  0.10332  0.09243  0.17217  1.0000
  C   C124      1.0  0.12531  0.09073  0.18076  1.0000
  C   C125      1.0  0.13548  0.10861  0.19390  1.0000
  C   C126      1.0  0.12368  0.12816  0.19860  1.0000
  C   C127      1.0  0.10170  0.13020  0.18953  1.0000
  C   C128      1.0  0.09153  0.11208  0.17653  1.0000
  P   P4        1.0  0.08668  0.15568  0.19574  1.0000
  C   C129      1.0  0.07890  0.15860  0.23876  1.0000
  C   C130      1.0  0.10299  0.17823  0.18347  1.0000
  C   C131      1.0  0.09793  0.19911  0.19557  1.0000
  C   C132      1.0  0.11007  0.21673  0.18537  1.0000
  C   C133      1.0  0.12743  0.21365  0.16323  1.0000
  C   C134      1.0  0.13236  0.19299  0.15061  1.0000
  C   C135      1.0  0.12006  0.17537  0.16040  1.0000
  C   C136      1.0  0.06028  0.17124  0.24754  1.0000
  C   C137      1.0  0.05367  0.17284  0.28059  1.0000
  C   C138      1.0  0.06569  0.16205  0.30522  1.0000
  C   C139      1.0  0.08466  0.15012  0.29688  1.0000
  C   C140      1.0  0.09127  0.14838  0.26381  1.0000
  C   C141      1.0  0.06223  0.15654  0.17110  1.0000
  C   C142      1.0  0.06137  0.16805  0.14102  1.0000
  C   C143      1.0  0.04206  0.16940  0.12290  1.0000
  C   C144      1.0  0.23353  0.00616  0.38556  1.0000
  C   C145      1.0  0.02431  0.14757  0.16428  1.0000
  C   C146      1.0  0.04359  0.14612  0.18241  1.0000
  H   H99       1.0  0.09539  0.07850  0.16223  1.0000
  H   H100      1.0  0.13452  0.07558  0.17730  1.0000
  H   H101      1.0  0.15255  0.10734  0.20049  1.0000
  H   H102      1.0  0.13171  0.14174  0.20938  1.0000
  H   H103      1.0  0.07454  0.11298  0.16981  1.0000
  H   H104      1.0  0.08463  0.20191  0.21292  1.0000
  H   H105      1.0  0.10608  0.23277  0.19505  1.0000
  H   H106      1.0  0.13702  0.22731  0.15593  1.0000
  H   H107      1.0  0.14582  0.19057  0.13344  1.0000
  H   H108      1.0  0.12397  0.15960  0.14997  1.0000
  H   H109      1.0  0.05094  0.18018  0.22901  1.0000
  H   H110      1.0  0.03951  0.18295  0.28712  1.0000
  H   H111      1.0  0.06078  0.16366  0.33091  1.0000
  H   H112      1.0  0.09462  0.14269  0.31614  1.0000
  H   H113      1.0  0.10622  0.13936  0.25823  1.0000
  H   H114      1.0  0.07544  0.17626  0.13170  1.0000
  C   C147      1.0  0.22485  0.13880  0.28667  1.0000
  C   C148      1.0  0.24948  0.04121  0.39391  1.0000
  H   H115      1.0  0.24309  0.10833  0.28443  1.0000
  H   H116      1.0  0.27250  0.12285  0.24914  1.0000
  H   H117      1.0  0.19243  0.20156  0.24888  1.0000
  C   C149      1.0  0.19631  0.33558  0.39020  1.0000
  C   C150      1.0  0.28046  0.26995  0.27125  1.0000
  H   H118      1.0  0.26735  0.24558  0.34268  1.0000
  H   H119      1.0  0.29555  0.26271  0.26196  1.0000
  C   C151      1.0  0.18532  0.22519  0.28645  1.0000
  C   C152      1.0  0.27121  0.48678  0.22623  1.0000
  H   H120      1.0  0.19994  0.00417  0.40158  1.0000
  C   C153      1.0  0.22919  0.19943  0.20220  1.0000
  H   H121      1.0  0.12427  0.36813  0.40767  1.0000
  C   C154      1.0  0.28195  0.21869  0.36905  1.0000
  H   H122      1.0  0.27088  0.16105  0.23136  1.0000
  C   C155      1.0  0.27577  0.21872  0.21951  1.0000
  C   C156      1.0  0.16448  0.39134  0.47630  1.0000
  H   H123      1.0  0.31299  0.19992  0.29207  1.0000
  P   P5        1.0  0.23966  0.19699  0.24373  1.0000
  C   C157      1.0  0.28828  0.14549  0.04625  1.0000
  C   C158      1.0  0.22196  0.21342  0.27008  1.0000
  C   C159      1.0  0.26719  0.20625  0.24528  1.0000
  C   C160      1.0  0.22099  0.21963  0.19068  1.0000
  C   C161      1.0  0.21181  0.22151  0.15920  1.0000
  H   H124      1.0  0.20509  0.23704  0.15079  1.0000
  C   C162      1.0  0.29542  0.07436  0.08259  1.0000
  C   C163      1.0  0.19381  0.23931  0.30954  1.0000
  P   P6        1.0  0.30233  0.27630  0.33051  1.0000
  C   C164      1.0  0.27551  0.15495  0.02099  1.0000
  H   H125      1.0  0.17533  0.09491  0.01475  1.0000
  C   C165      1.0  0.17808  0.07996  0.00132  1.0000
  C   C166      1.0  0.19931  0.21232  0.26678  1.0000
  H   H126      1.0  0.22131  0.23384  0.20630  1.0000
  H   H127      1.0  0.28859  0.22790  0.13880  1.0000
  C   C167      1.0  0.11103  0.01781  0.06016  1.0000
  H   H128      1.0  0.25070  0.24217  0.13062  1.0000
  H   H129      1.0  0.29212  0.38234  0.46537  1.0000
  C   C168      1.0  0.29556  0.33677  0.37123  1.0000
  C   C169      1.0  0.23041  0.22758  0.29345  1.0000
  C   C170      1.0  0.30088  0.20983  0.38341  1.0000
  C   C171      1.0  0.27925  0.48710  0.33638  1.0000
  H   H130      1.0  0.29252  0.35320  0.36233  1.0000
  C   C172      1.0  0.00379  0.28441  0.20126  1.0000
  C   C173      1.0  0.31012  0.20911  0.04608  1.0000
  C   C174      1.0  0.21633  0.24046  0.31313  1.0000
  H   H131      1.0  0.29793  0.34639  0.42208  1.0000
  H   H132      1.0  0.27848  0.47051  0.34531  1.0000
  H   H133      1.0  0.30541  0.30878  0.44245  1.0000
  C   C175      1.0  0.24924  0.16830  0.06169  1.0000
  C   C176      1.0  0.30251  0.20542  0.27208  1.0000
  C   C177      1.0  0.31170  0.30520  0.22068  1.0000
  H   H134      1.0  0.22280  0.25153  0.33094  1.0000
  C   C178      1.0  0.23361  0.47731  0.23059  1.0000
  C   C179      1.0  0.16878  0.36882  0.47432  1.0000
  H   H135      1.0  0.31125  0.29262  0.14175  1.0000
  H   H136      1.0  0.21028  0.35015  0.46823  1.0000
  H   H137      1.0  0.14472  0.22348  0.46852  1.0000
  H   H138      1.0  0.18317  0.33654  0.37263  1.0000
  H   H139      1.0  0.24602  0.17312  0.00911  1.0000
  C   C180      1.0  0.10061  0.04932  0.02722  1.0000
  C   C181      1.0  0.08857  0.24954  0.48280  1.0000
  C   C182      1.0  0.27471  0.38467  0.46848  1.0000
  H   H140      1.0  0.12628  0.08333  0.08794  1.0000
  C   C183      1.0  0.30200  0.25960  0.14086  1.0000
  C   C184      1.0  0.01648  0.28213  0.25778  1.0000
  C   C185      1.0  0.12037  0.31300  0.46697  1.0000
  H   H141      1.0  0.20615  0.00155  0.26613  1.0000
  C   C186      1.0  0.21768  0.99218  0.25122  1.0000
  H   H142      1.0  0.00846  0.16061  0.12082  1.0000
  H   H143      1.0  0.28037  0.09813  0.05084  1.0000
  C   C187      1.0  0.25151  0.01955  0.38383  1.0000
  H   H144      1.0  0.31844  0.25331  0.14508  1.0000
  C   C188      1.0  0.30160  0.25035  0.35146  1.0000
  H   H145      1.0  0.19355  0.12423  0.10254  1.0000
  H   H146      1.0  0.30437  0.23369  0.20000  1.0000
  H   H147      1.0  0.22899  0.01406  0.08828  1.0000
  H   H148      1.0  0.25264  0.34092  0.99432  1.0000
  H   H149      1.0  0.29339  0.32294  0.32299  1.0000
  C   C189      1.0  0.21183  0.03607  0.40902  1.0000
  H   H150      1.0  0.20185  0.99902  0.33274  1.0000
  C   C190      1.0  0.31361  0.06848  0.10148  1.0000
  H   H151      1.0  0.30116  0.19176  0.00303  1.0000
  H   H152      1.0  0.28035  0.15344  0.99527  1.0000
  P   P7        1.0  0.31329  0.13050  0.03677  1.0000
  C   C191      1.0  0.31368  0.10607  0.06184  1.0000
  C   C192      1.0  0.32357  0.22462  0.05925  1.0000
  H   H153      1.0  0.25063  0.48489  0.30644  1.0000
  C   C193      1.0  0.32010  0.22129  0.38228  1.0000
  C   C194      1.0  0.32366  0.17940  0.16274  1.0000
  C   C195      1.0  0.31341  0.12373  0.99307  1.0000
  H   H154      1.0  0.07976  0.02261  0.03700  1.0000
  H   H155      1.0  0.99381  0.29353  0.29510  1.0000
  H   H156      1.0  0.31944  0.16726  0.08246  1.0000
  H   H157      1.0  0.17461  0.02504  0.00804  1.0000
  C   C196      1.0  0.17773  0.04077  0.99734  1.0000
  H   H158      1.0  0.10723  0.00214  0.07060  1.0000
  Fe  Fe13      1.0  0.23956  0.06666  0.79987  1.0000
  S   S25       1.0  0.21082  0.07877  0.83105  1.0000
  S   S26       1.0  0.24558  0.02976  0.78856  1.0000
  Fe  Fe14      1.0  0.25696  0.11342  0.79433  1.0000
  S   S27       1.0  0.22907  0.12771  0.82398  1.0000
  S   S28       1.0  0.27878  0.13779  0.76868  1.0000
  Fe  Fe15      1.0  0.23466  0.09916  0.85871  1.0000
  S   S29       1.0  0.23555  0.11064  0.91320  1.0000
  Fe  Fe16      1.0  0.20786  0.10652  0.79416  1.0000
  S   S30       1.0  0.17574  0.11603  0.76825  1.0000
  S   S31       1.0  0.26375  0.08572  0.82988  1.0000
  S   S32       1.0  0.23541  0.09351  0.76218  1.0000
  Fe  Fe17      1.0  0.22577  0.36451  0.66343  1.0000
  S   S33       1.0  0.24994  0.35421  0.62430  1.0000
  S   S34       1.0  0.20639  0.33645  0.68446  1.0000
  Fe  Fe18      1.0  0.24297  0.41159  0.66598  1.0000
  S   S35       1.0  0.26832  0.40335  0.62646  1.0000
  S   S36       1.0  0.23612  0.44742  0.68338  1.0000
  Fe  Fe19      1.0  0.24212  0.38614  0.59931  1.0000
  S   S37       1.0  0.23053  0.38828  0.54522  1.0000
  Fe  Fe20      1.0  0.27413  0.37169  0.65452  1.0000
  S   S38       1.0  0.30752  0.35436  0.65985  1.0000
  S   S39       1.0  0.21629  0.39565  0.63715  1.0000
  S   S40       1.0  0.25051  0.38077  0.69540  1.0000
  Fe  Fe21      1.0  0.10991  0.22122  0.68604  1.0000
  S   S41       1.0  0.08987  0.25084  0.70209  1.0000
  S   S42       1.0  0.13494  0.20860  0.72397  1.0000
  Fe  Fe22      1.0  0.09411  0.22541  0.61366  1.0000
  S   S43       1.0  0.07324  0.25496  0.62552  1.0000
  S   S44       1.0  0.09984  0.20938  0.56279  1.0000
  Fe  Fe23      1.0  0.10189  0.26599  0.65494  1.0000
  S   S45       1.0  0.11320  0.30066  0.64851  1.0000
  Fe  Fe24      1.0  0.06261  0.23744  0.67210  1.0000
  S   S46       1.0  0.02546  0.24034  0.68396  1.0000
  S   S47       1.0  0.12317  0.23743  0.64053  1.0000
  S   S48       1.0  0.08212  0.20674  0.65842  1.0000
  C   C197      1.0  0.00456  0.23642  0.71472  1.0000
  C   C198      1.0  0.00920  0.23072  0.74757  1.0000
  H   H159      1.0  0.02595  0.22833  0.75498  1.0000
  C   C199      1.0  0.18101  0.32628  0.67206  1.0000
  C   C200      1.0  0.17481  0.30599  0.68435  1.0000
  C   C201      1.0  0.15433  0.29773  0.67685  1.0000
  C   C202      1.0  0.13971  0.30976  0.65704  1.0000
  C   C203      1.0  0.14603  0.32991  0.64432  1.0000
  C   C204      1.0  0.16662  0.33808  0.65157  1.0000
  H   H160      1.0  0.18580  0.29675  0.70019  1.0000
  H   H161      1.0  0.14966  0.28229  0.68699  1.0000
  H   H162      1.0  0.13481  0.33940  0.62914  1.0000
  H   H163      1.0  0.17110  0.35376  0.64210  1.0000
  C   C205      1.0  0.12060  0.32677  0.56025  1.0000
  C   C206      1.0  0.04441  0.33660  0.87668  1.0000
  C   C207      1.0  0.24524  0.31984  0.75541  1.0000
  C   C208      1.0  0.17573  0.24755  0.63214  1.0000
  C   C209      1.0  0.24314  0.38799  0.50526  1.0000
  H   H164      1.0  0.28005  0.03523  0.73160  1.0000
  H   H165      1.0  0.29856  0.31598  0.76649  1.0000
  H   H166      1.0  0.27597  0.38231  0.52201  1.0000
  H   H167      1.0  0.23696  0.33996  0.55540  1.0000
  C   C210      1.0  0.09735  0.22020  0.52176  1.0000
  C   C211      1.0  0.09021  0.24162  0.51560  1.0000
  C   C212      1.0  0.99717  0.17248  0.73276  1.0000
  H   H168      1.0  0.08565  0.25200  0.53608  1.0000
  C   C213      1.0  0.16534  0.14197  0.75495  1.0000
  C   C214      1.0  0.14702  0.14313  0.73420  1.0000
  C   C215      1.0  0.13789  0.16330  0.72361  1.0000
  C   C216      1.0  0.14659  0.18264  0.73449  1.0000
  C   C217      1.0  0.16497  0.18151  0.75509  1.0000
  C   C218      1.0  0.17440  0.16133  0.76506  1.0000
  H   H169      1.0  0.13978  0.12830  0.72641  1.0000
  H   H170      1.0  0.12401  0.16390  0.70735  1.0000
  H   H171      1.0  0.17191  0.19635  0.76361  1.0000
  H   H172      1.0  0.18837  0.16074  0.78117  1.0000
  C   C219      1.0  0.04957  0.29190  0.72197  1.0000
  C   C220      1.0  0.23966  0.00852  0.75962  1.0000
  C   C221      1.0  0.23000  0.01254  0.72875  1.0000
  C   C222      1.0  0.24761  0.33894  0.80735  1.0000
  C   C223      1.0  0.02153  0.11723  0.70085  1.0000
  H   H173      1.0  0.22533  0.02901  0.72189  1.0000
  H   H174      1.0  0.18064  0.31017  0.59589  1.0000
  H   H175      1.0  0.24316  0.32065  0.72889  1.0000
  H   H176      1.0  0.15884  0.27648  0.61500  1.0000
  H   H177      1.0  0.19345  0.21754  0.64222  1.0000
  H   H178      1.0  0.28628  0.34103  0.72156  1.0000
  H   H179      1.0  0.19476  0.23942  0.54129  1.0000
  H   H180      1.0  0.08681  0.32229  0.57204  1.0000
  C   C224      1.0  0.30078  0.15198  0.78546  1.0000
  H   H181      1.0  0.26673  0.47452  0.90852  1.0000
  C   C225      1.0  0.16668  0.40216  0.50634  1.0000
  H   H182      1.0  0.12587  0.26384  0.56002  1.0000
  H   H183      1.0  0.06837  0.29242  0.83987  1.0000
  H   H184      1.0  0.20547  0.21236  0.58400  1.0000
  C   C226      1.0  0.23970  0.07634  0.95872  1.0000
  C   C227      1.0  0.23740  0.09876  0.95359  1.0000
  C   C228      1.0  0.26547  0.18372  0.93465  1.0000
  H   H185      1.0  0.24088  0.06560  0.93766  1.0000
  H   H186      1.0  0.10805  0.19015  0.49882  1.0000
  C   C229      1.0  0.30197  0.33261  0.71978  1.0000
  C   C230      1.0  0.18868  0.22936  0.62349  1.0000
  H   H187      1.0  0.16674  0.17753  0.55841  1.0000
  C   C231      1.0  0.12463  0.28142  0.55993  1.0000
  H   H188      1.0  0.17058  0.24995  0.65760  1.0000
  H   H189      1.0  0.05673  0.15169  0.62772  1.0000
  H   H190      1.0  0.25237  0.28445  0.81985  1.0000
  C   C232      1.0  0.31381  0.40438  0.69268  1.0000
  H   H191      1.0  0.06760  0.17309  0.57875  1.0000
  C   C233      1.0  0.14082  0.31651  0.55393  1.0000
  H   H192      1.0  0.20621  0.28897  0.77734  1.0000
  C   C234      1.0  0.28702  0.44489  0.57092  1.0000
  H   H193      1.0  0.27486  0.42780  0.52880  1.0000
  C   C235      1.0  0.19086  0.29867  0.54743  1.0000
  H   H194      1.0  0.32335  0.17705  0.89649  1.0000
  C   C236      1.0  0.21780  0.24729  0.72412  1.0000
  C   C237      1.0  0.19681  0.23952  0.72089  1.0000
  C   C238      1.0  0.17936  0.24969  0.73767  1.0000
  H   H195      1.0  0.09031  0.28228  0.57124  1.0000
  C   C239      1.0  0.26398  0.12609  0.60239  1.0000
  H   H196      1.0  0.28213  0.45040  0.68826  1.0000
  H   H197      1.0  0.23116  0.23950  0.71061  1.0000
  H   H198      1.0  0.19397  0.22561  0.70544  1.0000
  H   H199      1.0  0.16305  0.24385  0.73486  1.0000
  H   H200      1.0  0.99606  0.22376  0.79616  1.0000
  C   C240      1.0  0.27284  0.21909  0.79528  1.0000
  C   C241      1.0  0.25431  0.46881  0.73788  1.0000
  H   H201      1.0  0.24179  0.30311  0.63552  1.0000
  C   C242      1.0  0.17312  0.39065  0.53464  1.0000
  H   H202      1.0  0.06283  0.13365  0.70520  1.0000
  C   C243      1.0  0.06707  0.19214  0.73871  1.0000
  C   C244      1.0  0.30332  0.19417  0.93306  1.0000
  C   C245      1.0  0.22661  0.99526  0.70644  1.0000
  H   H203      1.0  0.00629  0.29265  0.72888  1.0000
  C   C246      1.0  0.10239  0.31440  0.56634  1.0000
  H   H204      1.0  0.23616  0.43573  0.54263  1.0000
  C   C247      1.0  0.24819  0.29985  0.77193  1.0000
  C   C248      1.0  0.24497  0.33926  0.77308  1.0000
  C   C249      1.0  0.29438  0.48872  0.65111  1.0000
  H   H205      1.0  0.01311  0.09518  0.61234  1.0000
  H   H206      1.0  0.29989  0.17608  0.74662  1.0000
  H   H207      1.0  0.16926  0.27553  0.77051  1.0000
  H   H208      1.0  0.11909  0.34432  0.56094  1.0000
  C   C250      1.0  0.18289  0.26747  0.75796  1.0000
  C   C251      1.0  0.17549  0.25963  0.57485  1.0000
  C   C252      1.0  0.03918  0.24935  0.81324  1.0000
  H   H209      1.0  0.22998  0.09785  0.55407  1.0000
  C   C253      1.0  0.28966  0.28726  0.67139  1.0000
  H   H210      1.0  0.26179  0.45328  0.74455  1.0000
  H   H211      1.0  0.29188  0.27738  0.77845  1.0000
  C   C254      1.0  0.19242  0.31142  0.57594  1.0000
  H   H212      1.0  0.06882  0.20875  0.74649  1.0000
  C   C255      1.0  0.29828  0.10404  0.94698  1.0000
  H   H213      1.0  0.02331  0.12327  0.72577  1.0000
  H   H214      1.0  0.26808  0.48570  0.77916  1.0000
  H   H215      1.0  0.04395  0.27546  0.72077  1.0000
  H   H216      1.0  0.00895  0.20198  0.65283  1.0000
  H   H217      1.0  0.28111  0.12919  0.60529  1.0000
  H   H218      1.0  0.29327  0.27413  0.72002  1.0000
  C   C256      1.0  0.02111  0.19495  0.63622  1.0000
  C   C257      1.0  0.03106  0.17456  0.64287  1.0000
  C   C258      1.0  0.10440  0.29177  0.56597  1.0000
  C   C259      1.0  0.30899  0.31829  0.74520  1.0000
  C   C260      1.0  0.29492  0.43871  0.68181  1.0000
  C   C261      1.0  0.18901  0.24162  0.56645  1.0000
  C   C262      1.0  0.18522  0.04201  0.96464  1.0000
  H   H219      1.0  0.21925  0.99878  0.68272  1.0000
  C   C263      1.0  0.06345  0.14985  0.71515  1.0000
  P   P8        1.0  0.24879  0.27465  0.74919  1.0000
  H   H220      1.0  0.29070  0.23170  0.90333  1.0000
  C   C264      1.0  0.25954  0.46136  0.60695  1.0000
  C   C265      1.0  0.24106  0.47035  0.70977  1.0000
  C   C266      1.0  0.20902  0.32614  0.57886  1.0000
  C   C267      1.0  0.22652  0.13092  0.62146  1.0000
  C   C268      1.0  0.24876  0.13496  0.62484  1.0000
  P   P9        1.0  0.20663  0.14113  0.65113  1.0000
  C   C269      1.0  0.19480  0.11736  0.66910  1.0000
  C   C270      1.0  0.21950  0.15695  0.68239  1.0000
  C   C271      1.0  0.22017  0.15010  0.71553  1.0000
  C   C272      1.0  0.23115  0.16213  0.73890  1.0000
  C   C273      1.0  0.24146  0.18102  0.72950  1.0000
  C   C274      1.0  0.24025  0.18837  0.69681  1.0000
  C   C275      1.0  0.22912  0.17649  0.67336  1.0000
  C   C276      1.0  0.20853  0.10059  0.68154  1.0000
  C   C277      1.0  0.19974  0.08197  0.69537  1.0000
  C   C278      1.0  0.17721  0.07990  0.69671  1.0000
  C   C279      1.0  0.16345  0.09634  0.68388  1.0000
  C   C280      1.0  0.17217  0.11503  0.67009  1.0000
  C   C281      1.0  0.18622  0.15910  0.63269  1.0000
  C   C282      1.0  0.18455  0.16180  0.59826  1.0000
  C   C283      1.0  0.16825  0.17561  0.58496  1.0000
  C   C284      1.0  0.15368  0.18689  0.60587  1.0000
  C   C285      1.0  0.15551  0.18455  0.64011  1.0000
  C   C286      1.0  0.17181  0.17087  0.65346  1.0000
  C   C287      1.0  0.28982  0.00245  0.66515  1.0000
  H   H221      1.0  0.15457  0.32645  0.54901  1.0000
  C   C288      1.0  0.25928  0.23381  0.77784  1.0000
  H   H222      1.0  0.25457  0.14450  0.64511  1.0000
  H   H223      1.0  0.21241  0.13548  0.72363  1.0000
  H   H224      1.0  0.23217  0.15643  0.76424  1.0000
  H   H225      1.0  0.25069  0.18968  0.74752  1.0000
  H   H226      1.0  0.24835  0.20298  0.68955  1.0000
  H   H227      1.0  0.22851  0.18217  0.64799  1.0000
  H   H228      1.0  0.22604  0.10212  0.68127  1.0000
  H   H229      1.0  0.21037  0.06938  0.70588  1.0000
  H   H230      1.0  0.17043  0.06576  0.70837  1.0000
  H   H231      1.0  0.14599  0.09484  0.68549  1.0000
  H   H232      1.0  0.16116  0.12764  0.66081  1.0000
  H   H233      1.0  0.19567  0.15336  0.58157  1.0000
  H   H234      1.0  0.14423  0.19327  0.65639  1.0000
  H   H235      1.0  0.17308  0.16925  0.68007  1.0000
  H   H236      1.0  0.28694  0.09242  0.93778  1.0000
  C   C289      1.0  0.06716  0.32193  0.69530  1.0000
  C   C290      1.0  0.06481  0.33405  0.72427  1.0000
  C   C291      1.0  0.05480  0.32514  0.75216  1.0000
  C   C292      1.0  0.04722  0.30389  0.75126  1.0000
  H   H237      1.0  0.18870  0.09673  0.95740  1.0000
  P   P10       1.0  0.03527  0.29157  0.78746  1.0000
  C   C293      1.0  0.04938  0.26583  0.79546  1.0000
  C   C294      1.0  0.03880  0.30892  0.82273  1.0000
  C   C295      1.0  0.05656  0.30556  0.84402  1.0000
  C   C296      1.0  0.05929  0.31934  0.87094  1.0000
  H   H238      1.0  0.14096  0.19747  0.59555  1.0000
  H   H239      1.0  0.30384  0.44053  0.56526  1.0000
  C   C297      1.0  0.02402  0.32641  0.82850  1.0000
  H   H240      1.0  0.02246  0.25135  0.82138  1.0000
  C   C298      1.0  0.29922  0.10829  0.98087  1.0000
  C   C299      1.0  0.07205  0.22656  0.80993  1.0000
  C   C300      1.0  0.08237  0.24287  0.79230  1.0000
  C   C301      1.0  0.07115  0.26246  0.78523  1.0000
  H   H241      1.0  0.28770  0.41776  0.72292  1.0000
  H   H242      1.0  0.00005  0.28314  0.83450  1.0000
  C   C302      1.0  0.19534  0.22641  0.59065  1.0000
  H   H243      1.0  0.04657  0.34728  0.89751  1.0000
  C   C303      1.0  0.22156  0.26490  0.74500  1.0000
  C   C304      1.0  0.25721  0.11290  0.57670  1.0000
  C   C305      1.0  0.10265  0.20680  0.49451  1.0000
  H   H244      1.0  0.07526  0.32864  0.67383  1.0000
  H   H245      1.0  0.07098  0.35027  0.72515  1.0000
  H   H246      1.0  0.05333  0.33481  0.77432  1.0000
  C   C306      1.0  0.29308  0.00241  0.73405  1.0000
  H   H247      1.0  0.29393  0.00241  0.76083  1.0000
  H   H248      1.0  0.04233  0.21703  0.83357  1.0000
  C   C307      1.0  0.26560  0.38470  0.50071  1.0000
  P   P11       1.0  0.32466  0.21160  0.94653  1.0000
  C   C308      1.0  0.99309  0.28447  0.81003  1.0000
  H   H249      1.0  0.08073  0.21134  0.81517  1.0000
  H   H250      1.0  0.09904  0.24025  0.78380  1.0000
  H   H251      1.0  0.07955  0.27494  0.77179  1.0000
  H   H252      1.0  0.17866  0.34007  0.50215  1.0000
  C   C309      1.0  0.28156  0.45716  0.59915  1.0000
  C   C310      1.0  0.17498  0.35736  0.50308  1.0000
  C   C311      1.0  0.05426  0.17887  0.59444  1.0000
  C   C312      1.0  0.04406  0.19900  0.58776  1.0000
  C   C313      1.0  0.99929  0.16925  0.69850  1.0000
  H   H253      1.0  0.03721  0.19937  0.71322  1.0000
  H   H254      1.0  0.30640  0.13041  0.82670  1.0000
  C   C314      1.0  0.00635  0.28824  0.78224  1.0000
  H   H255      1.0  0.30987  0.48407  0.56150  1.0000
  C   C315      1.0  0.04716  0.16567  0.70787  1.0000
  H   H256      1.0  0.28165  0.30245  0.62478  1.0000
  C   C316      1.0  0.23604  0.11240  0.98151  1.0000
  H   H257      1.0  0.02021  0.22306  0.60436  1.0000
  C   C317      1.0  0.29802  0.42017  0.70146  1.0000
  C   C318      1.0  0.24487  0.28837  0.68369  1.0000
  H   H258      1.0  0.24270  0.35456  0.76001  1.0000
  C   C319      1.0  0.31534  0.33608  0.69224  1.0000
  P   P12       1.0  0.02498  0.16012  0.68060  1.0000
  H   H259      1.0  0.09722  0.18056  0.76043  1.0000
  H   H260      1.0  0.29417  0.15366  0.87813  1.0000
  C   C320      1.0  0.04917  0.18682  0.71970  1.0000
  H   H261      1.0  0.27797  0.20984  0.96290  1.0000
  C   C321      1.0  0.01567  0.10131  0.63703  1.0000
  H   H262      1.0  0.18251  0.35960  0.55499  1.0000
  C   C322      1.0  0.29087  0.16563  0.89721  1.0000
  H   H263      1.0  0.26907  0.10590  0.55951  1.0000
  C   C323      1.0  0.04799  0.16679  0.62209  1.0000
  C   C324      1.0  0.22437  0.32814  0.55346  1.0000
  H   H264      1.0  0.23579  0.31611  0.50643  1.0000
  C   C325      1.0  0.15627  0.24784  0.50141  1.0000
  H   H265      1.0  0.24910  0.18576  0.94447  1.0000
  C   C326      1.0  0.05938  0.30095  0.69408  1.0000
  H   H266      1.0  0.24353  0.22860  0.77016  1.0000
  H   H267      1.0  0.31584  0.38969  0.70738  1.0000
  H   H268      1.0  0.09382  0.14295  0.74020  1.0000
  C   C327      1.0  0.30437  0.24220  0.90413  1.0000
  H   H269      1.0  0.07302  0.31667  0.88729  1.0000
  C   C328      1.0  0.01865  0.12346  0.64179  1.0000
  C   C329      1.0  0.25781  0.48733  0.75764  1.0000
  C   C330      1.0  0.23520  0.10841  0.57361  1.0000
  H   H270      1.0  0.18817  0.02735  0.95041  1.0000
  H   H271      1.0  0.15220  0.23855  0.52329  1.0000
  H   H272      1.0  0.22753  0.29000  0.68849  1.0000
  C   C331      1.0  0.28526  0.02101  0.71753  1.0000
  H   H273      1.0  0.25733  0.15723  0.90279  1.0000
  C   C332      1.0  0.24324  0.45381  0.58650  1.0000
  C   C333      1.0  0.25293  0.29601  0.65355  1.0000
  P   P13       1.0  0.16879  0.28022  0.54438  1.0000
  C   C334      1.0  0.14305  0.29374  0.55408  1.0000
  C   C335      1.0  0.16901  0.26255  0.60789  1.0000
  H   H274      1.0  0.30708  0.28756  0.66712  1.0000
  C   C336      1.0  0.24880  0.44200  0.55810  1.0000
  H   H275      1.0  0.26772  0.20272  0.80025  1.0000
  C   C337      1.0  0.20391  0.27504  0.76174  1.0000
  C   C338      1.0  0.29991  0.24635  0.79992  1.0000
  P   P14       1.0  0.30251  0.46510  0.62718  1.0000
  H   H276      1.0  0.17555  0.39912  0.55769  1.0000
  H   H277      1.0  0.25231  0.31890  0.85064  1.0000
  H   H278      1.0  0.04944  0.20863  0.56690  1.0000
  C   C339      1.0  0.18902  0.06219  0.95024  1.0000
  C   C340      1.0  0.28640  0.26110  0.78268  1.0000
  C   C341      1.0  0.25028  0.31914  0.82407  1.0000
  C   C342      1.0  0.08306  0.17629  0.74632  1.0000
  C   C343      1.0  0.32103  0.27509  0.88501  1.0000
  C   C344      1.0  0.02755  0.20706  0.60872  1.0000
  H   H279      1.0  0.20972  0.33622  0.60071  1.0000
  C   C345      1.0  0.22356  0.31481  0.52568  1.0000
  C   C346      1.0  0.17712  0.36826  0.53305  1.0000
  H   H280      1.0  0.20299  0.11320  0.59385  1.0000
  C   C347      1.0  0.30814  0.17045  0.76875  1.0000
  C   C348      1.0  0.18540  0.08113  0.96856  1.0000
  C   C349      1.0  0.21994  0.11723  0.59604  1.0000
  C   C350      1.0  0.29318  0.22534  0.80621  1.0000
  C   C351      1.0  0.27002  0.16777  0.91095  1.0000
  C   C352      1.0  0.30743  0.17884  0.90798  1.0000
  C   C353      1.0  0.16516  0.26845  0.50406  1.0000
  C   C354      1.0  0.25919  0.28026  0.70815  1.0000
  C   C355      1.0  0.26610  0.25494  0.77097  1.0000
  C   C356      1.0  0.28168  0.27964  0.70161  1.0000
  H   H281      1.0  0.19510  0.06322  0.92504  1.0000
  C   C357      1.0  0.08118  0.15512  0.73473  1.0000
  C   C358      1.0  0.25042  0.29964  0.80649  1.0000
  H   H282      1.0  0.24755  0.35407  0.82086  1.0000
  C   C359      1.0  0.27068  0.43753  0.55031  1.0000
  H   H283      1.0  0.31573  0.25124  0.80816  1.0000
  C   C360      1.0  0.28194  0.19712  0.94528  1.0000
  H   H284      1.0  0.01797  0.13425  0.62059  1.0000
  C   C361      1.0  0.30783  0.44184  0.65356  1.0000
  C   C362      1.0  0.02205  0.13150  0.67371  1.0000
  H   H285      1.0  0.22629  0.45655  0.59330  1.0000
  H   H286      1.0  0.01823  0.08414  0.71706  1.0000
  C   C363      1.0  0.01571  0.08711  0.66410  1.0000
  C   C364      1.0  0.30350  0.26127  0.88516  1.0000
  C   C365      1.0  0.28376  0.02108  0.68308  1.0000
  H   H287      1.0  0.28943  0.26514  0.86999  1.0000
  C   C366      1.0  0.27533  0.29564  0.64751  1.0000
  H   H288      1.0  0.01328  0.06997  0.66038  1.0000
  C   C367      1.0  0.01854  0.09509  0.69601  1.0000
  H   H289      1.0  0.01098  0.17022  0.74897  1.0000
  C   C368      1.0  0.31170  0.14477  0.81390  1.0000
  C   C369      1.0  0.05045  0.22978  0.82028  1.0000
  H   H290      1.0  0.20724  0.28919  0.50174  1.0000
  C   C370      1.0  0.20708  0.29984  0.52288  1.0000
  C   C371      1.0  0.31161  0.11498  0.92488  1.0000
  H   H291      1.0  0.16386  0.41959  0.50757  1.0000
  H   H292      1.0  0.27766  0.03553  0.67039  1.0000
  H   H293      1.0  0.01531  0.35358  0.85977  1.0000
  H   H294      1.0  0.23445  0.12977  0.97793  1.0000
  H   H295      1.0  0.31082  0.11164  0.89861  1.0000
  H   H296      1.0  0.06127  0.29159  0.67160  1.0000
  C   C372      1.0  0.32313  0.42553  0.64421  1.0000
  H   H297      1.0  0.32066  0.28955  0.86959  1.0000
  C   C373      1.0  0.32294  0.23669  0.92295  1.0000
  H   H298      1.0  0.01040  0.32951  0.81205  1.0000
  H   H299      1.0  0.25485  0.46985  0.62940  1.0000
  H   H300      1.0  0.31204  0.47859  0.69509  1.0000
  C   C374      1.0  0.02680  0.34014  0.85544  1.0000
  H   H301      1.0  0.23472  0.48851  0.87675  1.0000
  H   H302      1.0  0.30379  0.21390  0.81941  1.0000
  H   H303      1.0  0.28871  0.00282  0.63845  1.0000
  C   C375      1.0  0.99670  0.28996  0.75090  1.0000
  H   H304      1.0  0.11191  0.30924  0.48980  1.0000
  C   C376      1.0  0.99214  0.22817  0.77094  1.0000
  C   C377      1.0  0.26763  0.48957  0.89472  1.0000
  Fe  Fe25      1.0  0.25689  0.86112  0.31745  1.0000
  S   S49       1.0  0.22590  0.85104  0.34148  1.0000
  S   S50       1.0  0.28573  0.83935  0.33373  1.0000
  Fe  Fe26      1.0  0.23382  0.90106  0.28450  1.0000
  S   S51       1.0  0.20116  0.89262  0.30665  1.0000
  S   S52       1.0  0.24191  0.92867  0.24719  1.0000
  Fe  Fe27      1.0  0.21985  0.88594  0.35409  1.0000
  S   S53       1.0  0.20537  0.89429  0.40527  1.0000
  Fe  Fe28      1.0  0.20974  0.85784  0.29260  1.0000
  S   S54       1.0  0.18864  0.82897  0.27991  1.0000
  S   S55       1.0  0.25190  0.89614  0.33286  1.0000
  S   S56       1.0  0.24132  0.86625  0.26790  1.0000
  Fe  Fe29      1.0  0.10973  0.76858  0.14983  1.0000
  S   S57       1.0  0.09292  0.74588  0.18486  1.0000
  S   S58       1.0  0.13083  0.79801  0.15899  1.0000
  Fe  Fe30      1.0  0.09205  0.74607  0.08745  1.0000
  S   S59       1.0  0.07392  0.72181  0.11827  1.0000
  S   S60       1.0  0.10028  0.74307  0.03190  1.0000
  Fe  Fe31      1.0  0.06340  0.74966  0.15179  1.0000
  S   S61       1.0  0.02828  0.75878  0.17071  1.0000
  Fe  Fe32      1.0  0.10427  0.71941  0.14935  1.0000
  S   S62       1.0  0.11681  0.68538  0.16410  1.0000
  S   S63       1.0  0.07976  0.77426  0.11851  1.0000
  S   S64       1.0  0.12292  0.74181  0.11699  1.0000
  Fe  Fe33      1.0  0.25678  0.58653  0.08972  1.0000
  S   S65       1.0  0.22578  0.58334  0.11923  1.0000
  S   S66       1.0  0.25957  0.57302  0.03677  1.0000
  Fe  Fe34      1.0  0.28062  0.60449  0.15101  1.0000
  S   S67       1.0  0.25129  0.60129  0.18404  1.0000
  H   H305      1.0  0.31951  0.92280  0.40232  1.0000
  Fe  Fe35      1.0  0.24714  0.56842  0.15960  1.0000
  S   S68       1.0  0.23422  0.53670  0.18322  1.0000
  Fe  Fe36      1.0  0.23254  0.61595  0.14108  1.0000
  S   S69       1.0  0.21437  0.64897  0.14314  1.0000
  S   S70       1.0  0.27790  0.57077  0.12923  1.0000
  S   S71       1.0  0.26212  0.61993  0.10878  1.0000
  C   C378      1.0  0.25637  0.58523  0.99698  1.0000
  C   C379      1.0  0.24532  0.57662  0.31272  1.0000
  C   C380      1.0  0.25600  0.60774  0.99232  1.0000
  H   H306      1.0  0.23356  0.53384  0.09445  1.0000
  H   H307      1.0  0.25786  0.61822  0.01339  1.0000
  C   C381      1.0  0.09982  0.68578  0.99804  1.0000
  C   C382      1.0  0.26510  0.50654  0.21000  1.0000
  C   C383      1.0  0.24316  0.51192  0.20386  1.0000
  C   C384      1.0  0.27514  0.81901  0.41222  1.0000
  H   H308      1.0  0.18032  0.92363  0.35612  1.0000
  H   H309      1.0  0.27740  0.51754  0.20196  1.0000
  C   C385      1.0  0.17354  0.72310  0.05916  1.0000
  C   C386      1.0  0.29874  0.55209  0.25372  1.0000
  C   C387      1.0  0.26999  0.84390  0.19594  1.0000
  C   C388      1.0  0.19703  0.98273  0.33874  1.0000
  H   H310      1.0  0.05866  0.76493  0.01257  1.0000
  H   H311      1.0  0.21048  0.50092  0.21009  1.0000
  C   C389      1.0  0.14399  0.67541  0.15807  1.0000
  C   C390      1.0  0.16086  0.68926  0.15048  1.0000
  C   C391      1.0  0.18231  0.68081  0.14676  1.0000
  C   C392      1.0  0.18709  0.65841  0.14959  1.0000
  C   C393      1.0  0.17027  0.64452  0.15729  1.0000
  C   C394      1.0  0.14885  0.65304  0.16178  1.0000
  H   H312      1.0  0.15742  0.70651  0.14799  1.0000
  H   H313      1.0  0.19533  0.69170  0.14167  1.0000
  H   H314      1.0  0.17378  0.62730  0.16007  1.0000
  H   H315      1.0  0.13595  0.64223  0.16808  1.0000
  C   C395      1.0  0.00677  0.74954  0.19731  1.0000
  C   C396      1.0  0.00525  0.72789  0.20758  1.0000
  H   H316      1.0  0.01747  0.71599  0.19951  1.0000
  C   C397      1.0  0.17333  0.82047  0.24538  1.0000
  C   C398      1.0  0.16408  0.79988  0.24640  1.0000
  C   C399      1.0  0.15122  0.79259  0.22017  1.0000
  C   C400      1.0  0.14728  0.80595  0.19263  1.0000
  C   C401      1.0  0.15683  0.82639  0.19136  1.0000
  C   C402      1.0  0.16978  0.83362  0.21752  1.0000
  H   H317      1.0  0.16672  0.78958  0.26783  1.0000
  H   H318      1.0  0.14404  0.77684  0.22150  1.0000
  H   H319      1.0  0.15396  0.83683  0.17013  1.0000
  H   H320      1.0  0.17674  0.84949  0.21636  1.0000
  C   C403      1.0  0.21815  0.89249  0.44471  1.0000
  C   C404      1.0  0.24075  0.89065  0.44789  1.0000
  C   C405      1.0  0.06781  0.76073  0.99043  1.0000
  H   H321      1.0  0.25077  0.89010  0.42586  1.0000
  C   C406      1.0  0.32084  0.75511  0.39785  1.0000
  C   C407      1.0  0.23620  0.95718  0.23935  1.0000
  C   C408      1.0  0.26765  0.96028  0.41525  1.0000
  H   H322      1.0  0.28539  0.87458  0.20114  1.0000
  C   C409      1.0  0.27897  0.95119  0.30563  1.0000
  C   C410      1.0  0.15780  0.72821  0.03536  1.0000
  C   C411      1.0  0.11919  0.64259  0.08689  1.0000
  H   H323      1.0  0.29709  0.62563  0.23220  1.0000
  C   C412      1.0  0.24718  0.96758  0.21321  1.0000
  C   C413      1.0  0.30268  0.82142  0.30988  1.0000
  C   C414      1.0  0.30604  0.82436  0.27591  1.0000
  H   H324      1.0  0.15185  0.74483  0.03201  1.0000
  H   H325      1.0  0.25521  0.55697  0.23530  1.0000
  H   H326      1.0  0.29751  0.83751  0.26316  1.0000
  C   C415      1.0  0.10599  0.55340  0.01131  1.0000
  C   C416      1.0  0.17136  0.95412  0.33267  1.0000
  C   C417      1.0  0.18490  0.94019  0.35131  1.0000
  C   C418      1.0  0.27060  0.86655  0.19480  1.0000
  H   H327      1.0  0.20009  0.64094  0.07614  1.0000
  H   H328      1.0  0.31163  0.80189  0.35229  1.0000
  C   C419      1.0  0.23021  0.95672  0.43300  1.0000
  H   H329      1.0  0.31423  0.75754  0.22050  1.0000
  C   C420      1.0  0.13300  0.64950  0.03139  1.0000
  C   C421      1.0  0.29010  0.80030  0.15903  1.0000
  H   H330      1.0  0.32328  0.75954  0.37215  1.0000
  C   C422      1.0  0.31426  0.80451  0.32620  1.0000
  H   H331      1.0  0.21746  0.56168  0.05728  1.0000
  H   H332      1.0  0.30450  0.58797  0.39964  1.0000
  H   H333      1.0  0.28449  0.83473  0.20338  1.0000
  C   C423      1.0  0.25188  0.87895  0.18693  1.0000
  C   C424      1.0  0.30726  0.76911  0.20292  1.0000
  H   H334      1.0  0.31106  0.74986  0.30305  1.0000
  C   C425      1.0  0.23583  0.82113  0.41731  1.0000
  C   C426      1.0  0.18028  0.70148  0.06438  1.0000
  C   C427      1.0  0.27707  0.83053  0.44180  1.0000
  C   C428      1.0  0.14043  0.55118  0.04005  1.0000
  C   C429      1.0  0.32125  0.81082  0.25875  1.0000
  C   C430      1.0  0.31164  0.79252  0.15536  1.0000
  C   C431      1.0  0.25811  0.83688  0.45937  1.0000
  H   H335      1.0  0.21450  0.59061  0.32927  1.0000
  C   C432      1.0  0.21045  0.96895  0.35817  1.0000
  C   C433      1.0  0.17089  0.68497  0.04641  1.0000
  H   H336      1.0  0.28378  0.81266  0.14217  1.0000
  C   C434      1.0  0.20530  0.89372  0.47368  1.0000
  C   C435      1.0  0.09621  0.80749  0.23599  1.0000
  C   C436      1.0  0.08315  0.81156  0.20837  1.0000
  C   C437      1.0  0.06314  0.80169  0.20578  1.0000
  C   C438      1.0  0.05614  0.78785  0.23089  1.0000
  C   C439      1.0  0.06915  0.78366  0.25869  1.0000
  C   C440      1.0  0.08952  0.79319  0.26070  1.0000
  P   P15       1.0  0.06130  0.76340  0.28835  1.0000
  C   C441      1.0  0.03216  0.76384  0.29454  1.0000
  C   C442      1.0  0.07139  0.73801  0.27122  1.0000
  C   C443      1.0  0.09287  0.73056  0.27710  1.0000
  C   C444      1.0  0.10100  0.71148  0.26218  1.0000
  C   C445      1.0  0.08786  0.69991  0.24099  1.0000
  C   C446      1.0  0.06665  0.70752  0.23442  1.0000
  C   C447      1.0  0.05853  0.72661  0.24921  1.0000
  C   C448      1.0  0.02168  0.74479  0.30354  1.0000
  H   H337      1.0  0.18010  0.73579  0.07410  1.0000
  H   H338      1.0  0.18778  0.89531  0.47158  1.0000
  C   C449      1.0  0.21991  0.52994  0.07893  1.0000
  C   C450      1.0  0.01991  0.78345  0.29218  1.0000
  C   C451      1.0  0.07232  0.76831  0.32870  1.0000
  C   C452      1.0  0.07488  0.78963  0.33967  1.0000
  C   C453      1.0  0.08307  0.79342  0.37122  1.0000
  C   C454      1.0  0.08831  0.77598  0.39225  1.0000
  C   C455      1.0  0.08519  0.75473  0.38185  1.0000
  C   C456      1.0  0.07707  0.75089  0.35027  1.0000
  H   H339      1.0  0.11185  0.81497  0.23769  1.0000
  H   H340      1.0  0.08886  0.82189  0.18856  1.0000
  H   H341      1.0  0.05327  0.80421  0.18390  1.0000
  H   H342      1.0  0.04084  0.77993  0.22815  1.0000
  H   H343      1.0  0.10044  0.78933  0.28092  1.0000
  H   H344      1.0  0.10349  0.73973  0.29254  1.0000
  H   H345      1.0  0.11766  0.70589  0.26630  1.0000
  H   H346      1.0  0.09433  0.68541  0.22880  1.0000
  H   H347      1.0  0.05676  0.69900  0.21700  1.0000
  H   H348      1.0  0.04245  0.73282  0.24274  1.0000
  H   H349      1.0  0.03078  0.72954  0.30612  1.0000
  C   C457      1.0  0.08822  0.75009  0.99314  1.0000
  C   C458      1.0  0.26464  0.51637  0.30208  1.0000
  H   H350      1.0  0.21272  0.96214  0.27832  1.0000
  H   H351      1.0  0.02769  0.79843  0.28596  1.0000
  H   H352      1.0  0.07052  0.80334  0.32390  1.0000
  H   H353      1.0  0.08527  0.80991  0.37938  1.0000
  H   H354      1.0  0.09463  0.77895  0.41669  1.0000
  H   H355      1.0  0.08896  0.74121  0.39831  1.0000
  H   H356      1.0  0.07436  0.73436  0.34278  1.0000
  C   C459      1.0  0.31879  0.64786  0.25559  1.0000
  C   C460      1.0  0.18042  0.80317  0.02279  1.0000
  H   H357      1.0  0.26309  0.94114  0.35028  1.0000
  H   H358      1.0  0.10971  0.54292  0.06192  1.0000
  S   S72       1.0  0.31208  0.62193  0.16295  1.0000
  H   H359      1.0  0.25329  0.80631  0.37642  1.0000
  C   C461      1.0  0.20756  0.73458  0.17028  1.0000
  C   C462      1.0  0.19130  0.73604  0.19457  1.0000
  C   C463      1.0  0.19523  0.72738  0.22603  1.0000
  C   C464      1.0  0.21539  0.71726  0.23321  1.0000
  C   C465      1.0  0.23188  0.71588  0.20899  1.0000
  C   C466      1.0  0.22781  0.72465  0.17741  1.0000
  P   P16       1.0  0.25740  0.70169  0.21819  1.0000
  C   C467      1.0  0.27392  0.71673  0.24616  1.0000
  C   C468      1.0  0.25125  0.67560  0.23567  1.0000
  C   C469      1.0  0.26436  0.66599  0.26038  1.0000
  C   C470      1.0  0.26010  0.64519  0.27220  1.0000
  C   C471      1.0  0.24281  0.63387  0.25937  1.0000
  C   C472      1.0  0.22950  0.64346  0.23514  1.0000
  C   C473      1.0  0.23366  0.66427  0.22339  1.0000
  C   C474      1.0  0.29629  0.71148  0.24838  1.0000
  C   C475      1.0  0.30953  0.72334  0.26895  1.0000
  C   C476      1.0  0.30063  0.74056  0.28747  1.0000
  C   C477      1.0  0.27838  0.74584  0.28563  1.0000
  C   C478      1.0  0.26502  0.73394  0.26509  1.0000
  C   C479      1.0  0.27342  0.69767  0.18092  1.0000
  C   C480      1.0  0.28509  0.71498  0.16788  1.0000
  C   C481      1.0  0.29871  0.71185  0.14034  1.0000
  C   C482      1.0  0.30066  0.69145  0.12551  1.0000
  C   C483      1.0  0.28885  0.67425  0.13802  1.0000
  C   C484      1.0  0.27527  0.67728  0.16561  1.0000
  H   H360      1.0  0.20427  0.74074  0.14569  1.0000
  H   H361      1.0  0.17556  0.74362  0.18886  1.0000
  H   H362      1.0  0.18247  0.72820  0.24467  1.0000
  H   H363      1.0  0.21804  0.71017  0.25749  1.0000
  H   H364      1.0  0.23995  0.72338  0.15798  1.0000
  H   H365      1.0  0.27817  0.67420  0.27011  1.0000
  H   H366      1.0  0.27057  0.63764  0.29071  1.0000
  H   H367      1.0  0.23999  0.61753  0.26774  1.0000
  H   H368      1.0  0.21630  0.63459  0.22464  1.0000
  H   H369      1.0  0.22350  0.67122  0.20399  1.0000
  H   H370      1.0  0.30360  0.69817  0.23423  1.0000
  H   H371      1.0  0.27159  0.75939  0.29976  1.0000
  H   H372      1.0  0.24794  0.73843  0.26379  1.0000
  H   H373      1.0  0.28400  0.73078  0.17944  1.0000
  C   C485      1.0  0.31052  0.63626  0.22860  1.0000
  H   H374      1.0  0.28058  0.86659  0.40553  1.0000
  H   H375      1.0  0.29063  0.65834  0.12684  1.0000
  H   H376      1.0  0.26666  0.66350  0.17504  1.0000
  C   C486      1.0  0.19462  0.78992  0.14015  1.0000
  C   C487      1.0  0.20283  0.78025  0.11133  1.0000
  C   C488      1.0  0.22530  0.77722  0.10697  1.0000
  C   C489      1.0  0.23956  0.78407  0.13132  1.0000
  C   C490      1.0  0.23144  0.79399  0.16033  1.0000
  C   C491      1.0  0.20880  0.79675  0.16456  1.0000
  P   P17       1.0  0.24977  0.80403  0.19121  1.0000
  C   C492      1.0  0.24094  0.79702  0.23251  1.0000
  C   C493      1.0  0.28574  0.77683  0.20667  1.0000
  C   C494      1.0  0.24966  0.80766  0.25971  1.0000
  C   C495      1.0  0.24317  0.80242  0.29185  1.0000
  C   C496      1.0  0.22774  0.78665  0.29712  1.0000
  C   C497      1.0  0.21928  0.77565  0.27025  1.0000
  C   C498      1.0  0.22612  0.78053  0.23807  1.0000
  C   C499      1.0  0.25067  0.83336  0.18865  1.0000
  C   C500      1.0  0.23189  0.84602  0.18101  1.0000
  C   C501      1.0  0.23254  0.86868  0.18011  1.0000
  H   H377      1.0  0.17718  0.79213  0.14360  1.0000
  H   H378      1.0  0.19172  0.77491  0.09265  1.0000
  H   H379      1.0  0.20203  0.80417  0.18679  1.0000
  H   H380      1.0  0.27623  0.77082  0.22705  1.0000
  H   H381      1.0  0.31037  0.57868  0.18199  1.0000
  H   H382      1.0  0.26137  0.82016  0.25619  1.0000
  H   H383      1.0  0.24974  0.81106  0.31256  1.0000
  H   H384      1.0  0.22204  0.78331  0.32196  1.0000
  H   H385      1.0  0.20711  0.76364  0.27431  1.0000
  H   H386      1.0  0.21961  0.77156  0.21775  1.0000
  H   H387      1.0  0.21653  0.83863  0.17657  1.0000
  H   H388      1.0  0.23169  0.76957  0.08470  1.0000
  C   C502      1.0  0.23759  0.83233  0.44704  1.0000
  H   H389      1.0  0.17518  0.79772  0.04701  1.0000
  C   C503      1.0  0.28155  0.96793  0.28266  1.0000
  H   H390      1.0  0.31101  0.51941  0.26516  1.0000
  H   H391      1.0  0.25267  0.52197  0.28414  1.0000
  C   C504      1.0  0.31025  0.56578  0.20019  1.0000
  C   C505      1.0  0.22508  0.57191  0.25170  1.0000
  C   C506      1.0  0.29760  0.52122  0.33331  1.0000
  H   H392      1.0  0.25871  0.95820  0.19828  1.0000
  C   C507      1.0  0.27474  0.94958  0.44405  1.0000
  H   H393      1.0  0.22560  0.94019  0.47952  1.0000
  C   C508      1.0  0.12314  0.61313  0.04781  1.0000
  C   C509      1.0  0.23735  0.94603  0.46172  1.0000
  C   C510      1.0  0.22135  0.96975  0.25825  1.0000
  P   P18       1.0  0.23615  0.97821  0.37277  1.0000
  C   C511      1.0  0.11792  0.54862  0.03987  1.0000
  C   C512      1.0  0.99917  0.74523  0.30892  1.0000
  H   H394      1.0  0.21718  0.56974  0.22811  1.0000
  H   H395      1.0  0.21526  0.93606  0.37657  1.0000
  C   C513      1.0  0.31063  0.53260  0.24743  1.0000
  C   C514      1.0  0.26556  0.95449  0.33336  1.0000
  H   H396      1.0  0.17082  0.61835  0.09815  1.0000
  H   H397      1.0  0.14936  0.54747  0.06251  1.0000
  H   H398      1.0  0.29196  0.94682  0.44844  1.0000
  C   C515      1.0  0.14884  0.71174  0.01677  1.0000
  C   C516      1.0  0.17258  0.79334  0.99439  1.0000
  P   P19       1.0  0.18038  0.56193  0.01221  1.0000
  H   H399      1.0  0.21787  0.87836  0.17508  1.0000
  H   H400      1.0  0.19658  0.58645  0.27493  1.0000
  H   H401      1.0  0.28776  0.90269  0.38312  1.0000
  H   H402      1.0  0.12152  0.59620  0.04185  1.0000
  C   C517      1.0  0.24676  0.56484  0.25576  1.0000
  C   C518      1.0  0.30762  0.86615  0.43987  1.0000
  H   H403      1.0  0.15631  0.94831  0.32280  1.0000
  H   H404      1.0  0.11126  0.60961  0.09783  1.0000
  H   H405      1.0  0.19047  0.66696  0.99410  1.0000
  H   H406      1.0  0.09979  0.68463  0.02476  1.0000
  C   C519      1.0  0.13106  0.62743  0.02396  1.0000
  H   H407      1.0  0.32405  0.81341  0.23261  1.0000
  H   H408      1.0  0.21993  0.81832  0.40712  1.0000
  C   C520      1.0  0.20461  0.94740  0.36336  1.0000
  C   C521      1.0  0.29928  0.75700  0.44826  1.0000
  H   H409      1.0  0.29018  0.77271  0.40232  1.0000
  C   C522      1.0  0.15518  0.68997  0.02228  1.0000
  H   H410      1.0  0.20019  0.82830  0.04200  1.0000
  C   C523      1.0  0.19415  0.50413  0.05973  1.0000
  C   C524      1.0  0.15127  0.55846  0.01154  1.0000
  C   C525      1.0  0.19281  0.54107  0.03821  1.0000
  C   C526      1.0  0.18485  0.51998  0.03875  1.0000
  C   C527      1.0  0.21158  0.50917  0.08001  1.0000
  H   H411      1.0  0.17144  0.51580  0.02306  1.0000
  C   C528      1.0  0.24530  0.96358  0.40923  1.0000
  C   C529      1.0  0.21064  0.54577  0.05799  1.0000
  H   H412      1.0  0.12783  0.67395  0.06957  1.0000
  H   H413      1.0  0.08854  0.55140  0.01117  1.0000
  C   C530      1.0  0.22752  0.49711  0.21448  1.0000
  H   H414      1.0  0.28484  0.76315  0.46087  1.0000
  C   C531      1.0  0.19434  0.82052  0.01994  1.0000
  C   C532      1.0  0.18556  0.58788  0.03081  1.0000
  C   C533      1.0  0.20192  0.60103  0.01826  1.0000
  C   C534      1.0  0.20687  0.62027  0.03428  1.0000
  C   C535      1.0  0.19570  0.62645  0.06307  1.0000
  C   C536      1.0  0.17931  0.61360  0.07562  1.0000
  C   C537      1.0  0.17438  0.59430  0.05977  1.0000
  C   C538      1.0  0.25716  0.56733  0.28617  1.0000
  H   H415      1.0  0.27961  0.96604  0.39781  1.0000
  H   H416      1.0  0.28932  0.81441  0.39767  1.0000
  C   C539      1.0  0.29848  0.56859  0.22964  1.0000
  C   C540      1.0  0.12691  0.65696  0.06309  1.0000
  C   C541      1.0  0.31493  0.74382  0.46474  1.0000
  H   H417      1.0  0.21289  0.95946  0.42935  1.0000
  H   H418      1.0  0.22305  0.83828  0.45989  1.0000
  H   H419      1.0  0.31462  0.69681  0.47119  1.0000
  C   C542      1.0  0.27703  0.79264  0.18494  1.0000
  C   C543      1.0  0.25036  0.89015  0.47951  1.0000
  H   H420      1.0  0.21983  0.63008  0.02494  1.0000
  C   C544      1.0  0.25461  0.81432  0.40006  1.0000
  H   H421      1.0  0.25214  0.89655  0.18734  1.0000
  H   H422      1.0  0.16223  0.58422  0.07074  1.0000
  C   C545      1.0  0.32017  0.63790  0.19725  1.0000
  C   C546      1.0  0.99739  0.78382  0.29762  1.0000
  H   H423      1.0  0.19235  0.69741  0.08297  1.0000
  C   C547      1.0  0.29829  0.89578  0.40209  1.0000
  H   H424      1.0  0.11446  0.64860  0.11119  1.0000
  H   H425      1.0  0.29125  0.96508  0.26053  1.0000
  C   C548      1.0  0.11733  0.62067  0.07931  1.0000
  P   P20       1.0  0.28432  0.55596  0.29256  1.0000
  C   C549      1.0  0.22358  0.58360  0.30865  1.0000
  P   P21       1.0  0.30325  0.83920  0.45578  1.0000
  H   H426      1.0  0.17554  0.66825  0.05182  1.0000
  H   H427      1.0  0.25684  0.78153  0.12728  1.0000
  H   H428      1.0  0.30807  0.72512  0.13090  1.0000
  C   C550      1.0  0.29414  0.87529  0.41519  1.0000
  H   H429      1.0  0.31154  0.64607  0.27983  1.0000
  C   C551      1.0  0.25959  0.94244  0.46724  1.0000
  C   C552      1.0  0.30224  0.76256  0.41495  1.0000
  C   C553      1.0  0.28163  0.52961  0.31160  1.0000
  H   H430      1.0  0.25905  0.84605  0.48204  1.0000
  H   H431      1.0  0.31153  0.68881  0.10459  1.0000
  C   C554      1.0  0.21346  0.58124  0.27812  1.0000
  H   H432      1.0  0.28939  0.58372  0.23369  1.0000
  H   H433      1.0  0.28660  0.93535  0.30114  1.0000
  H   H434      1.0  0.13640  0.71604  0.99902  1.0000
  C   C555      1.0  0.17750  0.97535  0.32619  1.0000
  H   H435      1.0  0.21143  0.59615  0.99680  1.0000
  C   C556      1.0  0.29609  0.57385  0.35297  1.0000
  H   H436      1.0  0.16123  0.78036  0.99707  1.0000
  C   C557      1.0  0.32025  0.77704  0.17746  1.0000
  C   C558      1.0  0.31619  0.90707  0.41289  1.0000
  C   C559      1.0  0.25476  0.97464  0.33841  1.0000
  H   H437      1.0  0.21872  0.49704  0.09657  1.0000
  C   C560      1.0  0.24360  0.99002  0.20627  1.0000
  H   H438      1.0  0.06739  0.70018  0.99706  1.0000
  H   H439      1.0  0.26789  0.88900  0.48145  1.0000
  H   H440      1.0  0.25264  0.57814  0.33675  1.0000
  H   H441      1.0  0.13548  0.62120  0.99984  1.0000
  P   P22       1.0  0.14232  0.66838  0.00041  1.0000
  H   H442      1.0  0.32262  0.83678  0.38968  1.0000
  H   H443      1.0  0.32186  0.79886  0.13589  1.0000
  H   H444      1.0  0.31178  0.55742  0.99189  1.0000
  C   C561      1.0  0.27058  0.98793  0.28724  1.0000
  C   C562      1.0  0.32203  0.52975  0.21763  1.0000
  H   H445      1.0  0.28563  0.56214  0.36442  1.0000
  C   C563      1.0  0.29885  0.57442  0.31845  1.0000
  C   C564      1.0  0.32188  0.54637  0.19405  1.0000
  H   H446      1.0  0.16732  0.98597  0.31093  1.0000
  C   C565      1.0  0.31234  0.59006  0.30443  1.0000
  H   H447      1.0  0.31487  0.59120  0.27804  1.0000
  H   H448      1.0  0.31140  0.53072  0.33982  1.0000
  C   C566      1.0  0.30669  0.58852  0.37304  1.0000
  C   C567      1.0  0.32007  0.60395  0.35884  1.0000
  C   C568      1.0  0.26345  0.49525  0.31455  1.0000
  C   C569      1.0  0.29629  0.50009  0.34583  1.0000
  C   C570      1.0  0.32289  0.60470  0.32457  1.0000
  H   H449      1.0  0.30874  0.49355  0.36227  1.0000
  Fe  Fe37      1.0  0.20778  0.87357  0.65655  1.0000
  S   S73       1.0  0.22876  0.88518  0.69787  1.0000
  S   S74       1.0  0.17840  0.85142  0.65877  1.0000
  Fe  Fe38      1.0  0.23891  0.89056  0.60196  1.0000
  S   S75       1.0  0.26213  0.90277  0.64025  1.0000
  S   S76       1.0  0.25080  0.89099  0.54764  1.0000
  Fe  Fe39      1.0  0.25695  0.87129  0.66729  1.0000
  S   S77       1.0  0.27993  0.84554  0.69042  1.0000
  Fe  Fe40      1.0  0.23232  0.91613  0.66790  1.0000
  S   S78       1.0  0.22819  0.95231  0.68471  1.0000
  S   S79       1.0  0.23578  0.85853  0.62779  1.0000
  S   S80       1.0  0.20932  0.90522  0.62782  1.0000
  Fe  Fe41      1.0  0.10629  0.77440  0.78401  1.0000
  S   S81       1.0  0.10367  0.74281  0.75680  1.0000
  S   S82       1.0  0.13030  0.80180  0.77635  1.0000
  Fe  Fe42      1.0  0.07656  0.75894  0.84135  1.0000
  S   S83       1.0  0.07203  0.72649  0.81773  1.0000
  S   S84       1.0  0.06030  0.76854  0.89056  1.0000
  Fe  Fe43      1.0  0.10814  0.72651  0.80660  1.0000
  S   S85       1.0  0.13321  0.70153  0.82689  1.0000
  Fe  Fe44      1.0  0.06735  0.74542  0.76995  1.0000
  S   S86       1.0  0.04112  0.73763  0.73097  1.0000
  S   S87       1.0  0.11249  0.75800  0.83297  1.0000
  S   S88       1.0  0.07010  0.77804  0.79429  1.0000
  Fe  Fe45      1.0  0.27380  0.61079  0.77225  1.0000
  S   S89       1.0  0.24824  0.59393  0.74321  1.0000
  S   S90       1.0  0.30583  0.62080  0.74771  1.0000
  Fe  Fe46      1.0  0.24931  0.60328  0.83897  1.0000
  S   S91       1.0  0.22239  0.58565  0.81403  1.0000
  S   S92       1.0  0.24897  0.61570  0.89263  1.0000
  Fe  Fe47      1.0  0.24874  0.56825  0.78317  1.0000
  S   S93       1.0  0.25396  0.53086  0.77561  1.0000
  Fe  Fe48      1.0  0.22398  0.61248  0.77589  1.0000
  S   S94       1.0  0.19505  0.63132  0.75334  1.0000
  S   S95       1.0  0.27555  0.58450  0.81123  1.0000
  S   S96       1.0  0.24957  0.63080  0.80178  1.0000
  C   C571      1.0  0.22847  0.78823  0.60911  1.0000
  C   C572      1.0  0.24825  0.50787  0.74984  1.0000
  C   C573      1.0  0.23497  0.50942  0.72180  1.0000
  H   H450      1.0  0.31104  0.93459  0.59744  1.0000
  H   H451      1.0  0.14940  0.82928  0.89479  1.0000
  H   H452      1.0  0.22744  0.52494  0.71518  1.0000
  C   C574      1.0  0.26041  0.73804  0.62156  1.0000
  C   C575      1.0  0.15067  0.68264  0.80559  1.0000
  C   C576      1.0  0.16698  0.67115  0.82343  1.0000
  C   C577      1.0  0.18101  0.65574  0.80772  1.0000
  C   C578      1.0  0.17865  0.65141  0.77401  1.0000
  C   C579      1.0  0.16257  0.66316  0.75609  1.0000
  C   C580      1.0  0.14870  0.67875  0.77172  1.0000
  H   H453      1.0  0.16868  0.67407  0.84961  1.0000
  H   H454      1.0  0.19338  0.64693  0.82178  1.0000
  H   H455      1.0  0.16062  0.65993  0.73003  1.0000
  H   H456      1.0  0.13621  0.68740  0.75771  1.0000
  C   C581      1.0  0.28838  0.52016  0.87568  1.0000
  C   C582      1.0  0.01243  0.74315  0.72470  1.0000
  H   H457      1.0  0.28905  0.80379  0.56307  1.0000
  C   C583      1.0  0.25252  0.58076  0.93696  1.0000
  C   C584      1.0  0.25178  0.60328  0.93238  1.0000
  C   C585      1.0  0.26602  0.96345  0.62403  1.0000
  H   H458      1.0  0.25178  0.57022  0.91576  1.0000
  H   H459      1.0  0.30217  0.80491  0.70421  1.0000
  H   H460      1.0  0.27146  0.69847  0.67821  1.0000
  C   C586      1.0  0.07101  0.76079  0.92978  1.0000
  C   C587      1.0  0.09125  0.74997  0.93254  1.0000
  C   C588      1.0  0.00239  0.77641  0.57494  1.0000
  H   H461      1.0  0.10034  0.74565  0.91042  1.0000
  C   C589      1.0  0.16682  0.83644  0.69197  1.0000
  C   C590      1.0  0.16999  0.84182  0.72511  1.0000
  C   C591      1.0  0.15884  0.83085  0.75044  1.0000
  C   C592      1.0  0.14453  0.81423  0.74313  1.0000
  C   C593      1.0  0.14186  0.80835  0.71007  1.0000
  C   C594      1.0  0.15282  0.81951  0.68468  1.0000
  H   H462      1.0  0.18038  0.85501  0.73117  1.0000
  H   H463      1.0  0.16099  0.83561  0.77588  1.0000
  H   H464      1.0  0.13102  0.79555  0.70399  1.0000
  H   H465      1.0  0.15014  0.81528  0.65914  1.0000
  C   C595      1.0  0.28518  0.93303  0.70434  1.0000
  C   C596      1.0  0.24210  0.96951  0.74543  1.0000
  H   H466      1.0  0.24665  0.95305  0.75248  1.0000
  H   H467      1.0  0.30381  0.76143  0.57112  1.0000
  H   H468      1.0  0.24082  0.83059  0.75483  1.0000
  H   H469      1.0  0.01185  0.72410  0.68017  1.0000
  H   H470      1.0  0.29957  0.51002  0.72810  1.0000
  C   C597      1.0  0.05274  0.78445  0.69230  1.0000
  H   H471      1.0  0.16186  0.62312  0.90279  1.0000
  C   C598      1.0  0.30421  0.83350  0.67358  1.0000
  C   C599      1.0  0.18849  0.57703  0.94807  1.0000
  H   H472      1.0  0.99823  0.79381  0.62122  1.0000
  P   P23       1.0  0.30520  0.95958  0.65834  1.0000
  C   C600      1.0  0.25904  0.94507  0.57261  1.0000
  C   C601      1.0  0.19209  0.81865  0.96018  1.0000
  H   H473      1.0  0.30402  0.54395  0.75386  1.0000
  C   C602      1.0  0.23753  0.89126  0.50851  1.0000
  C   C603      1.0  0.21488  0.89298  0.50538  1.0000
  C   C604      1.0  0.19151  0.76504  0.66149  1.0000
  H   H474      1.0  0.20474  0.89399  0.52735  1.0000
  C   C605      1.0  0.09114  0.86008  0.73252  1.0000
  H   H475      1.0  0.06294  0.79235  0.58124  1.0000
  C   C606      1.0  0.03716  0.87279  0.70948  1.0000
  C   C607      1.0  0.20389  0.79399  0.88811  1.0000
  H   H476      1.0  0.28001  0.77297  0.51974  1.0000
  C   C608      1.0  0.29496  0.74149  0.79247  1.0000
  C   C609      1.0  0.25005  0.78546  0.70787  1.0000
  H   H477      1.0  0.21561  0.64918  0.95453  1.0000
  C   C610      1.0  0.10152  0.87513  0.75242  1.0000
  H   H478      1.0  0.12882  0.89595  0.75706  1.0000
  H   H479      1.0  0.01265  0.75995  0.52996  1.0000
  C   C611      1.0  0.08875  0.83511  0.80409  1.0000
  H   H480      1.0  0.04359  0.77445  0.95705  1.0000
  C   C612      1.0  0.16481  0.76031  0.93013  1.0000
  C   C613      1.0  0.17959  0.72552  0.94971  1.0000
  C   C614      1.0  0.28020  0.76650  0.64767  1.0000
  C   C615      1.0  0.25463  0.57183  0.96908  1.0000
  H   H481      1.0  0.19068  0.79334  0.54787  1.0000
  C   C616      1.0  0.26025  0.75791  0.63845  1.0000
  H   H482      1.0  0.18813  0.78190  0.65493  1.0000
  C   C617      1.0  0.03557  0.79904  0.69996  1.0000
  H   H483      1.0  0.26859  0.91225  0.73842  1.0000
  C   C618      1.0  0.22580  0.82464  0.70807  1.0000
  C   C619      1.0  0.23935  0.81927  0.73463  1.0000
  C   C620      1.0  0.18123  0.79647  0.82846  1.0000
  C   C621      1.0  0.13977  0.80239  0.92572  1.0000
  C   C622      1.0  0.25057  0.51713  0.85982  1.0000
  H   H484      1.0  0.28154  0.70300  0.52413  1.0000
  C   C623      1.0  0.13644  0.82232  0.90918  1.0000
  H   H485      1.0  0.25564  0.80933  0.61445  1.0000
  C   C624      1.0  0.30334  0.66586  0.73866  1.0000
  C   C625      1.0  0.16986  0.79413  0.85827  1.0000
  C   C626      1.0  0.21279  0.75600  0.65919  1.0000
  H   H486      1.0  0.19589  0.82558  0.93627  1.0000
  C   C627      1.0  0.04947  0.83381  0.80702  1.0000
  C   C628      1.0  0.03112  0.79449  0.60390  1.0000
  C   C629      1.0  0.30904  0.53903  0.80604  1.0000
  H   H487      1.0  0.05091  0.77043  0.53387  1.0000
  C   C630      1.0  0.24170  0.80534  0.59967  1.0000
  C   C631      1.0  0.30159  0.49094  0.68374  1.0000
  H   H488      1.0  0.23490  0.96391  0.60002  1.0000
  H   H489      1.0  0.13822  0.75845  0.89563  1.0000
  C   C632      1.0  0.12058  0.88469  0.74138  1.0000
  C   C633      1.0  0.24562  0.98679  0.76761  1.0000
  H   H490      1.0  0.10607  0.82138  0.84563  1.0000
  C   C634      1.0  0.16798  0.63250  0.92310  1.0000
  C   C635      1.0  0.13912  0.56323  0.98295  1.0000
  C   C636      1.0  0.19682  0.57532  0.91585  1.0000
  C   C637      1.0  0.25180  0.95831  0.59866  1.0000
  H   H491      1.0  0.09159  0.84457  0.68444  1.0000
  C   C638      1.0  0.16447  0.71482  0.93069  1.0000
  P   P24       1.0  0.23483  0.77285  0.64617  1.0000
  H   H492      1.0  0.24629  0.83173  0.56520  1.0000
  H   H493      1.0  0.17950  0.59166  0.95530  1.0000
  C   C639      1.0  0.14955  0.72676  0.91133  1.0000
  C   C640      1.0  0.01757  0.76982  0.55052  1.0000
  H   H494      1.0  0.03642  0.80391  0.62472  1.0000
  C   C641      1.0  0.09966  0.82534  0.93101  1.0000
  C   C642      1.0  0.31742  0.91731  0.67785  1.0000
  C   C643      1.0  0.20384  0.79790  0.82841  1.0000
  H   H495      1.0  0.20722  0.52808  0.97804  1.0000
  C   C644      1.0  0.11806  0.68249  0.94494  1.0000
  C   C645      1.0  0.09949  0.69125  0.92937  1.0000
  C   C646      1.0  0.08108  0.69721  0.94807  1.0000
  C   C647      1.0  0.31471  0.89802  0.69558  1.0000
  H   H496      1.0  0.12540  0.86128  0.66568  1.0000
  H   H497      1.0  0.31550  0.53065  0.94665  1.0000
  C   C648      1.0  0.05099  0.82470  0.83872  1.0000
  H   H498      1.0  0.04426  0.87874  0.79249  1.0000
  C   C649      1.0  0.31518  0.64635  0.73351  1.0000
  H   H499      1.0  0.03648  0.81983  0.85178  1.0000
  C   C650      1.0  0.30287  0.93512  0.68263  1.0000
  C   C651      1.0  0.29477  0.94190  0.59746  1.0000
  H   H500      1.0  0.15234  0.79266  0.85756  1.0000
  P   P25       1.0  0.06648  0.84787  0.74696  1.0000
  H   H501      1.0  0.25752  0.66117  0.67736  1.0000
  C   C652      1.0  0.23955  0.73897  0.53880  1.0000
  H   H502      1.0  0.28579  0.92587  0.55249  1.0000
  C   C653      1.0  0.28384  0.73801  0.52097  1.0000
  H   H503      1.0  0.08408  0.83404  0.93292  1.0000
  H   H504      1.0  0.21371  0.82416  0.53245  1.0000
  H   H505      1.0  0.13212  0.67852  0.92975  1.0000
  H   H506      1.0  0.09948  0.69383  0.90278  1.0000
  H   H507      1.0  0.06692  0.70461  0.93608  1.0000
  C   C654      1.0  0.32433  0.71115  0.51737  1.0000
  H   H508      1.0  0.31452  0.72429  0.62618  1.0000
  H   H509      1.0  0.30050  0.60847  0.92088  1.0000
  C   C655      1.0  0.23650  0.81804  0.57182  1.0000
  C   C656      1.0  0.23144  0.49088  0.70208  1.0000
  C   C657      1.0  0.21681  0.73458  0.67009  1.0000
  C   C658      1.0  0.12310  0.79449  0.94578  1.0000
  C   C659      1.0  0.20503  0.79653  0.56218  1.0000
  H   H510      1.0  0.10359  0.83817  0.79063  1.0000
  H   H511      1.0  0.17244  0.79705  0.80532  1.0000
  C   C660      1.0  0.14970  0.74943  0.91108  1.0000
  H   H512      1.0  0.28083  0.78247  0.65858  1.0000
  H   H513      1.0  0.00066  0.91390  0.72764  1.0000
  C   C661      1.0  0.19823  0.64742  0.95203  1.0000
  C   C662      1.0  0.15352  0.64192  0.94624  1.0000
  C   C663      1.0  0.11659  0.56072  0.98290  1.0000
  C   C664      1.0  0.28155  0.52533  0.68840  1.0000
  C   C665      1.0  0.27495  0.52363  0.65556  1.0000
  C   C666      1.0  0.29297  0.81879  0.55078  1.0000
  C   C667      1.0  0.25102  0.71911  0.53565  1.0000
  H   H514      1.0  0.02606  0.82925  0.72273  1.0000
  H   H515      1.0  0.24778  0.94044  0.55361  1.0000
  H   H516      1.0  0.23309  0.72755  0.67031  1.0000
  C   C668      1.0  0.05929  0.76608  0.95889  1.0000
  C   C669      1.0  0.25357  0.61667  0.96028  1.0000
  H   H517      1.0  0.29696  0.87247  0.56711  1.0000
  C   C670      1.0  0.11856  0.86522  0.68981  1.0000
  H   H518      1.0  0.27592  0.53905  0.70326  1.0000
  C   C671      1.0  0.27992  0.72598  0.61704  1.0000
  C   C672      1.0  0.00937  0.78874  0.60175  1.0000
  C   C673      1.0  0.22469  0.81073  0.68104  1.0000
  H   H519      1.0  0.24131  0.77373  0.53508  1.0000
  H   H520      1.0  0.20016  0.77020  0.59586  1.0000
  C   C674      1.0  0.31891  0.76660  0.56038  1.0000
  C   C675      1.0  0.31170  0.81318  0.68578  1.0000
  H   H521      1.0  0.09443  0.81121  0.72616  1.0000
  C   C676      1.0  0.27763  0.72803  0.78633  1.0000
  C   C677      1.0  0.00225  0.73420  0.69696  1.0000
  C   C678      1.0  0.21228  0.53971  0.92876  1.0000
  H   H522      1.0  0.04949  0.76920  0.68039  1.0000
  H   H523      1.0  0.25355  0.63408  0.95701  1.0000
  C   C679      1.0  0.26964  0.76926  0.81304  1.0000
  H   H524      1.0  0.11380  0.84894  0.89867  1.0000
  C   C680      1.0  0.21519  0.79653  0.85823  1.0000
  H   H525      1.0  0.11551  0.73660  0.96539  1.0000
  H   H526      1.0  0.28976  0.83774  0.59530  1.0000
  H   H527      1.0  0.27315  0.94614  0.70694  1.0000
  H   H528      1.0  0.21249  0.79987  0.80519  1.0000
  H   H529      1.0  0.29847  0.52536  0.80703  1.0000
  C   C681      1.0  0.30457  0.59158  0.92634  1.0000
  H   H530      1.0  0.23275  0.79733  0.85822  1.0000
  C   C682      1.0  0.26977  0.52861  0.85963  1.0000
  H   H531      1.0  0.08706  0.77713  0.69706  1.0000
  H   H532      1.0  0.19219  0.75616  0.96332  1.0000
  C   C683      1.0  0.09955  0.85556  0.70078  1.0000
  H   H533      1.0  0.26229  0.79570  0.75483  1.0000
  H   H534      1.0  0.27020  0.54379  0.84616  1.0000
  C   C684      1.0  0.27306  0.71859  0.52663  1.0000
  C   C685      1.0  0.04607  0.78796  0.57942  1.0000
  C   C686      1.0  0.09979  0.74479  0.96393  1.0000
  H   H535      1.0  0.21534  0.55551  0.88132  1.0000
  C   C687      1.0  0.17869  0.80074  0.96285  1.0000
  C   C688      1.0  0.20861  0.55663  0.90615  1.0000
  H   H536      1.0  0.00696  0.76323  0.76747  1.0000
  H   H537      1.0  0.29633  0.80433  0.50269  1.0000
  P   P26       1.0  0.16644  0.78938  0.92673  1.0000
  C   C689      1.0  0.28054  0.93690  0.57198  1.0000
  C   C690      1.0  0.27213  0.75784  0.52420  1.0000
  C   C691      1.0  0.21036  0.78359  0.58971  1.0000
  H   H538      1.0  0.01902  0.79486  0.69428  1.0000
  H   H539      1.0  0.25922  0.77016  0.70858  1.0000
  H   H540      1.0  0.12566  0.77977  0.96012  1.0000
  C   C692      1.0  0.25013  0.75831  0.53303  1.0000
  H   H541      1.0  0.04336  0.86363  0.68842  1.0000
  C   C693      1.0  0.20395  0.54133  0.96097  1.0000
  C   C694      1.0  0.26022  0.69335  0.69724  1.0000
  C   C695      1.0  0.25241  0.67235  0.69674  1.0000
  C   C696      1.0  0.23826  0.66559  0.72161  1.0000
  C   C697      1.0  0.23227  0.67961  0.74745  1.0000
  C   C698      1.0  0.24073  0.70044  0.74883  1.0000
  C   C699      1.0  0.25417  0.70747  0.72294  1.0000
  P   P27       1.0  0.23374  0.71824  0.78289  1.0000
  C   C700      1.0  0.23056  0.70231  0.82012  1.0000
  C   C701      1.0  0.25608  0.73548  0.79197  1.0000
  C   C702      1.0  0.25225  0.75589  0.80655  1.0000
  H   H542      1.0  0.30444  0.77260  0.81021  1.0000
  C   C703      1.0  0.21377  0.70714  0.84299  1.0000
  C   C704      1.0  0.21160  0.69448  0.87155  1.0000
  C   C705      1.0  0.22652  0.67738  0.87799  1.0000
  C   C706      1.0  0.24374  0.67307  0.85608  1.0000
  C   C707      1.0  0.24576  0.68543  0.82721  1.0000
  C   C708      1.0  0.20901  0.73311  0.77158  1.0000
  C   C709      1.0  0.18881  0.72343  0.77543  1.0000
  C   C710      1.0  0.16954  0.73518  0.76834  1.0000
  C   C711      1.0  0.17031  0.75640  0.75624  1.0000
  C   C712      1.0  0.19038  0.76577  0.75062  1.0000
  C   C713      1.0  0.20969  0.75409  0.75794  1.0000
  C   C714      1.0  0.07137  0.82056  0.85290  1.0000
  C   C715      1.0  0.23712  0.79121  0.68046  1.0000
  H   H543      1.0  0.23217  0.64930  0.72117  1.0000
  H   H544      1.0  0.22133  0.67395  0.76654  1.0000
  H   H545      1.0  0.26039  0.72368  0.72286  1.0000
  H   H546      1.0  0.23587  0.76138  0.81301  1.0000
  H   H547      1.0  0.28113  0.71179  0.77724  1.0000
  H   H548      1.0  0.20221  0.72050  0.83886  1.0000
  H   H549      1.0  0.19822  0.69780  0.88848  1.0000
  H   H550      1.0  0.22482  0.66735  0.89983  1.0000
  H   H551      1.0  0.25532  0.65982  0.86123  1.0000
  H   H552      1.0  0.25907  0.68160  0.81027  1.0000
  H   H553      1.0  0.18790  0.70688  0.78434  1.0000
  H   H554      1.0  0.15397  0.72781  0.77232  1.0000
  H   H555      1.0  0.15532  0.76539  0.75067  1.0000
  H   H556      1.0  0.19090  0.78205  0.74038  1.0000
  H   H557      1.0  0.22505  0.76143  0.75290  1.0000
  C   C716      1.0  0.29945  0.73388  0.62871  1.0000
  C   C717      1.0  0.21803  0.81382  0.55336  1.0000
  H   H558      1.0  0.19445  0.58854  0.89836  1.0000
  H   H559      1.0  0.21298  0.79229  0.91085  1.0000
  C   C718      1.0  0.17444  0.75248  0.67280  1.0000
  C   C719      1.0  0.17854  0.73099  0.68276  1.0000
  C   C720      1.0  0.19974  0.72211  0.68167  1.0000
  H   H560      1.0  0.03363  0.83584  0.79566  1.0000
  C   C721      1.0  0.03929  0.77564  0.55274  1.0000
  C   C722      1.0  0.31249  0.54924  0.77556  1.0000
  H   H561      1.0  0.15809  0.75959  0.67464  1.0000
  H   H562      1.0  0.16537  0.72137  0.69215  1.0000
  H   H563      1.0  0.20299  0.70562  0.69033  1.0000
  C   C723      1.0  0.31162  0.68566  0.72723  1.0000
  H   H564      1.0  0.27993  0.71035  0.60491  1.0000
  C   C724      1.0  0.29963  0.75429  0.64349  1.0000
  H   H565      1.0  0.14416  0.88670  0.70173  1.0000
  H   H566      1.0  0.30307  0.58207  0.87566  1.0000
  H   H567      1.0  0.19118  0.71621  0.96461  1.0000
  H   H568      1.0  0.16456  0.69727  0.93054  1.0000
  H   H569      1.0  0.26665  0.78515  0.82378  1.0000
  C   C725      1.0  0.25146  0.79966  0.73456  1.0000
  H   H570      1.0  0.21644  0.83983  0.70798  1.0000
  C   C726      1.0  0.18108  0.79344  0.88843  1.0000
  C   C727      1.0  0.06837  0.83934  0.78962  1.0000
  H   H571      1.0  0.21412  0.81538  0.66069  1.0000
  C   C728      1.0  0.18380  0.65738  0.97464  1.0000
  H   H572      1.0  0.24541  0.73166  0.61250  1.0000
  C   C729      1.0  0.17993  0.74819  0.94922  1.0000
  C   C730      1.0  0.29096  0.76218  0.80555  1.0000
  H   H573      1.0  0.26444  0.53622  0.64485  1.0000
  H   H574      1.0  0.28785  0.66568  0.75150  1.0000
  H   H575      1.0  0.25523  0.55439  0.97227  1.0000
  C   C731      1.0  0.16124  0.65489  0.97184  1.0000
  H   H576      1.0  0.01560  0.90711  0.78372  1.0000
  C   C732      1.0  0.04530  0.86849  0.74127  1.0000
  C   C733      1.0  0.02151  0.89741  0.76304  1.0000
  H   H577      1.0  0.24282  0.70406  0.53997  1.0000
  C   C734      1.0  0.29689  0.98341  0.68168  1.0000
  C   C735      1.0  0.29491  0.50900  0.70242  1.0000
  H   H578      1.0  0.27613  0.50437  0.61148  1.0000
  P   P28       1.0  0.31217  0.73760  0.50842  1.0000
  C   C736      1.0  0.19034  0.63526  0.92601  1.0000
  H   H579      1.0  0.30498  0.59632  0.97911  1.0000
  H   H580      1.0  0.31489  0.76054  0.65195  1.0000
  C   C737      1.0  0.32285  0.69418  0.49452  1.0000
  H   H581      1.0  0.07255  0.81252  0.87675  1.0000
  H   H582      1.0  0.09499  0.87931  0.77659  1.0000
  C   C738      1.0  0.09023  0.82568  0.83552  1.0000
  C   C739      1.0  0.03766  0.88118  0.76795  1.0000
  C   C740      1.0  0.12917  0.87963  0.71017  1.0000
  C   C741      1.0  0.28250  0.91377  0.72205  1.0000
  C   C742      1.0  0.28145  0.50547  0.63686  1.0000
  C   C743      1.0  0.02101  0.88903  0.70464  1.0000
  H   H583      1.0  0.29501  0.88121  0.73103  1.0000
  C   C744      1.0  0.28766  0.95541  0.62353  1.0000
  H   H584      1.0  0.22245  0.73937  0.54557  1.0000
  H   H585      1.0  0.14686  0.56880  0.96056  1.0000
  C   C745      1.0  0.03965  0.81848  0.71611  1.0000
  H   H586      1.0  0.00786  0.73645  0.59906  1.0000
  C   C746      1.0  0.06104  0.82345  0.72454  1.0000
  H   H587      1.0  0.30241  0.70064  0.73125  1.0000
  C   C747      1.0  0.07394  0.78896  0.70160  1.0000
  C   C748      1.0  0.07806  0.80828  0.71799  1.0000
  C   C749      1.0  0.23265  0.97354  0.71442  1.0000
  H   H588      1.0  0.13798  0.71849  0.89614  1.0000
  H   H589      1.0  0.30516  0.96955  0.72958  1.0000
  C   C750      1.0  0.30701  0.58473  0.95914  1.0000
  H   H590      1.0  0.22186  0.52544  0.92145  1.0000
  C   C751      1.0  0.24954  0.49752  0.87709  1.0000
  H   H591      1.0  0.20163  0.62794  0.90816  1.0000
  C   C752      1.0  0.01313  0.90128  0.73143  1.0000
  C   C753      1.0  0.11831  0.67932  0.97944  1.0000
  C   C754      1.0  0.10307  0.80582  0.94816  1.0000
  H   H592      1.0  0.31151  0.73578  0.78710  1.0000
  C   C755      1.0  0.30611  0.57650  0.90067  1.0000
  C   C756      1.0  0.11638  0.83366  0.91165  1.0000
  C   C757      1.0  0.31685  0.84416  0.65009  1.0000
  H   H593      1.0  0.13626  0.63945  0.94369  1.0000
  H   H594      1.0  0.30338  0.87355  0.50720  1.0000
  C   C758      1.0  0.29713  0.81915  0.51672  1.0000
  H   H595      1.0  0.10734  0.56437  0.96070  1.0000
  C   C759      1.0  0.31850  0.54703  0.83484  1.0000
  C   C760      1.0  0.30158  0.83871  0.50052  1.0000
  C   C761      1.0  0.29732  0.89630  0.71779  1.0000
  H   H596      1.0  0.31139  0.85988  0.64072  1.0000
  C   C762      1.0  0.29909  0.98373  0.71624  1.0000
  C   C763      1.0  0.29758  0.85749  0.55312  1.0000
  H   H597      1.0  0.01471  0.89222  0.68006  1.0000
  H   H598      1.0  0.25308  0.98328  0.79127  1.0000
  H   H599      1.0  0.23666  0.52328  0.84584  1.0000
  C   C764      1.0  0.99958  0.75616  0.74607  1.0000
  H   H600      1.0  0.09024  0.79951  0.96359  1.0000
  C   C765      1.0  0.08131  0.69462  0.98240  1.0000
  C   C766      1.0  0.29334  0.83793  0.56901  1.0000
  H   H601      1.0  0.25976  0.97293  0.64468  1.0000
  C   C767      1.0  0.19193  0.56002  0.97092  1.0000
  C   C768      1.0  0.30144  0.85798  0.51898  1.0000
  H   H602      1.0  0.30073  0.49461  0.90822  1.0000
  H   H603      1.0  0.32421  0.78973  0.59926  1.0000
  H   H604      1.0  0.00536  0.69925  0.62038  1.0000
  C   C769      1.0  0.31094  0.55450  0.90757  1.0000
  P   P29       1.0  0.31332  0.53480  0.87473  1.0000
  C   C770      1.0  0.31087  0.56275  0.96632  1.0000
  C   C771      1.0  0.31280  0.54766  0.94065  1.0000
  H   H605      1.0  0.21043  0.84215  0.98650  1.0000
  C   C772      1.0  0.28694  0.50093  0.89425  1.0000
  H   H606      1.0  0.22116  0.49250  0.68056  1.0000
  H   H607      1.0  0.32431  0.49203  0.84766  1.0000
  C   C773      1.0  0.99210  0.72922  0.59991  1.0000
  C   C774      1.0  0.20013  0.82829  0.98866  1.0000
  H   H608      1.0  0.32473  0.97648  0.59732  1.0000
  H   H609      1.0  0.26500  0.93396  0.48942  1.0000
  Fe  Fe49      1.0  0.62002  0.22195  0.29204  1.0000
  S   S97       1.0  0.62829  0.24705  0.32957  1.0000
  S   S98       1.0  0.64943  0.20144  0.27390  1.0000
  Fe  Fe50      1.0  0.57251  0.24088  0.28324  1.0000
  S   S99       1.0  0.57846  0.26702  0.32114  1.0000
  S   S100      1.0  0.54189  0.24188  0.24910  1.0000
  Fe  Fe51      1.0  0.61117  0.27105  0.29574  1.0000
  S   S101      1.0  0.62346  0.30464  0.28093  1.0000
  Fe  Fe52      1.0  0.59539  0.24077  0.35202  1.0000
  S   S102      1.0  0.59371  0.23063  0.40716  1.0000
  S   S103      1.0  0.60453  0.24641  0.25695  1.0000
  S   S104      1.0  0.58778  0.21422  0.31545  1.0000
  Fe  Fe53      1.0  0.39643  0.23899  0.10152  1.0000
  S   S105      1.0  0.39845  0.20974  0.13565  1.0000
  S   S106      1.0  0.40151  0.22876  0.04707  1.0000
  Fe  Fe54      1.0  0.38114  0.26876  0.15949  1.0000
  S   S107      1.0  0.38183  0.24114  0.19568  1.0000
  S   S108      1.0  0.37230  0.30313  0.17795  1.0000
  Fe  Fe55      1.0  0.41459  0.23165  0.17264  1.0000
  S   S109      1.0  0.44254  0.22162  0.20897  1.0000
  Fe  Fe56      1.0  0.36601  0.22182  0.15567  1.0000
  H   H610      1.0  0.34836  0.24758  0.04854  1.0000
  S   S110      1.0  0.41441  0.26013  0.13742  1.0000
  S   S111      1.0  0.36359  0.25031  0.12065  1.0000
  C   C775      1.0  0.34828  0.31144  0.20014  1.0000
  H   H611      1.0  0.53853  0.29202  0.19082  1.0000
  C   C776      1.0  0.51850  0.30130  0.26851  1.0000
  H   H612      1.0  0.36011  0.34308  0.21120  1.0000
  H   H613      1.0  0.36321  0.24372  0.26461  1.0000
  C   C777      1.0  0.33721  0.23616  0.03834  1.0000
  C   C778      1.0  0.33708  0.23255  0.00424  1.0000
  H   H614      1.0  0.57908  0.29184  0.48454  1.0000
  H   H615      1.0  0.39474  0.27384  0.02281  1.0000
  C   C779      1.0  0.49913  0.34097  0.31418  1.0000
  C   C780      1.0  0.58311  0.27470  0.48219  1.0000
  C   C781      1.0  0.33670  0.14607  0.04763  1.0000
  C   C782      1.0  0.63583  0.43212  0.18165  1.0000
  H   H616      1.0  0.45111  0.22711  0.01495  1.0000
  C   C783      1.0  0.36550  0.27835  0.26792  1.0000
  H   H617      1.0  0.61876  0.43074  0.17586  1.0000
  S   S112      1.0  0.33242  0.20656  0.15884  1.0000
  C   C784      1.0  0.65081  0.12884  0.22064  1.0000
  C   C785      1.0  0.63651  0.44111  0.30381  1.0000
  C   C786      1.0  0.39928  0.24077  0.00683  1.0000
  C   C787      1.0  0.59063  0.24334  0.44674  1.0000
  C   C788      1.0  0.44003  0.32118  0.24235  1.0000
  C   C789      1.0  0.58581  0.26557  0.45032  1.0000
  H   H618      1.0  0.35122  0.18848  0.09583  1.0000
  H   H619      1.0  0.58393  0.27570  0.42854  1.0000
  C   C790      1.0  0.51438  0.23561  0.23789  1.0000
  C   C791      1.0  0.50538  0.24410  0.20828  1.0000
  C   C792      1.0  0.48367  0.24002  0.19887  1.0000
  C   C793      1.0  0.47045  0.22713  0.21882  1.0000
  C   C794      1.0  0.47955  0.21842  0.24819  1.0000
  C   C795      1.0  0.50120  0.22259  0.25762  1.0000
  H   H620      1.0  0.51529  0.25396  0.19242  1.0000
  H   H621      1.0  0.47719  0.24686  0.17616  1.0000
  H   H622      1.0  0.46974  0.20836  0.26390  1.0000
  H   H623      1.0  0.50773  0.21557  0.28013  1.0000
  H   H624      1.0  0.32820  0.22085  0.24503  1.0000
  C   C796      1.0  0.32712  0.27727  0.30609  1.0000
  H   H625      1.0  0.62819  0.16544  0.30761  1.0000
  C   C797      1.0  0.64241  0.25916  0.48063  1.0000
  C   C798      1.0  0.35285  0.17519  0.07841  1.0000
  H   H626      1.0  0.38002  0.27889  0.25253  1.0000
  H   H627      1.0  0.33187  0.28155  0.19405  1.0000
  H   H628      1.0  0.57260  0.30263  0.21801  1.0000
  H   H629      1.0  0.60473  0.40725  0.34826  1.0000
  C   C799      1.0  0.55743  0.30271  0.23185  1.0000
  C   C800      1.0  0.35740  0.14035  0.03471  1.0000
  H   H630      1.0  0.64214  0.12828  0.32249  1.0000
  C   C801      1.0  0.33060  0.34593  0.12515  1.0000
  C   C802      1.0  0.51578  0.24196  0.33777  1.0000
  H   H631      1.0  0.62849  0.19803  0.43415  1.0000
  C   C803      1.0  0.64505  0.16075  0.30294  1.0000
  C   C804      1.0  0.47027  0.30038  0.26683  1.0000
  H   H632      1.0  0.34568  0.07715  0.11624  1.0000
  H   H633      1.0  0.59787  0.14117  0.48688  1.0000
  C   C805      1.0  0.61953  0.43439  0.32423  1.0000
  H   H634      1.0  0.64449  0.24032  0.21256  1.0000
  C   C806      1.0  0.61792  0.41247  0.33251  1.0000
  C   C807      1.0  0.47645  0.24291  0.34102  1.0000
  C   C808      1.0  0.65192  0.16041  0.18486  1.0000
  C   C809      1.0  0.51506  0.26186  0.32102  1.0000
  C   C810      1.0  0.37315  0.16995  0.06440  1.0000
  H   H635      1.0  0.63198  0.38020  0.32659  1.0000
  H   H636      1.0  0.64329  0.17236  0.16970  1.0000
  H   H637      1.0  0.57231  0.31214  0.27730  1.0000
  C   C811      1.0  0.49252  0.32013  0.32301  1.0000
  H   H638      1.0  0.48973  0.36696  0.38725  1.0000
  H   H639      1.0  0.50435  0.29076  0.22265  1.0000
  H   H640      1.0  0.54111  0.25296  0.48616  1.0000
  C   C812      1.0  0.46345  0.28188  0.25034  1.0000
  H   H641      1.0  0.47960  0.30053  0.36274  1.0000
  H   H642      1.0  0.64164  0.11697  0.23423  1.0000
  C   C813      1.0  0.44507  0.28299  0.23013  1.0000
  H   H643      1.0  0.50508  0.34421  0.28940  1.0000
  C   C814      1.0  0.51883  0.29606  0.23478  1.0000
  C   C815      1.0  0.59290  0.23050  0.47557  1.0000
  H   H644      1.0  0.63027  0.43211  0.23402  1.0000
  H   H645      1.0  0.62242  0.14531  0.20047  1.0000
  P   P30       1.0  0.49403  0.29848  0.29306  1.0000
  C   C816      1.0  0.63329  0.39725  0.32038  1.0000
  H   H646      1.0  0.36334  0.31291  0.27488  1.0000
  H   H647      1.0  0.53825  0.31075  0.30989  1.0000
  C   C817      1.0  0.50733  0.24857  0.47495  1.0000
  C   C818      1.0  0.64647  0.23712  0.47421  1.0000
  H   H648      1.0  0.59656  0.21328  0.47329  1.0000
  H   H649      1.0  0.43094  0.33640  0.23908  1.0000
  C   C819      1.0  0.35589  0.25859  0.27446  1.0000
  C   C820      1.0  0.35609  0.29754  0.28052  1.0000
  H   H650      1.0  0.34277  0.37199  0.15419  1.0000
  H   H651      1.0  0.49711  0.21676  0.35993  1.0000
  H   H652      1.0  0.38711  0.17944  0.07057  1.0000
  H   H653      1.0  0.63733  0.45814  0.29734  1.0000
  H   H654      1.0  0.47238  0.26656  0.25311  1.0000
  C   C821      1.0  0.53789  0.30732  0.28367  1.0000
  C   C822      1.0  0.65302  0.13972  0.31141  1.0000
  C   C823      1.0  0.48478  0.31641  0.35524  1.0000
  C   C824      1.0  0.43333  0.30261  0.22615  1.0000
  C   C825      1.0  0.48380  0.33326  0.37829  1.0000
  C   C826      1.0  0.49046  0.35394  0.36933  1.0000
  H   H655      1.0  0.46332  0.33471  0.27473  1.0000
  H   H656      1.0  0.63773  0.34453  0.25176  1.0000
  C   C827      1.0  0.33047  0.14049  0.16982  1.0000
  C   C828      1.0  0.65036  0.33229  0.24691  1.0000
  C   C829      1.0  0.49811  0.35779  0.33727  1.0000
  C   C830      1.0  0.49503  0.27252  0.31421  1.0000
  H   H657      1.0  0.53135  0.23367  0.34218  1.0000
  C   C831      1.0  0.32774  0.33958  0.23144  1.0000
  C   C832      1.0  0.33181  0.08140  0.10088  1.0000
  H   H658      1.0  0.43999  0.26859  0.21741  1.0000
  H   H659      1.0  0.46004  0.27080  0.31956  1.0000
  H   H660      1.0  0.35957  0.12652  0.01845  1.0000
  H   H661      1.0  0.53019  0.26851  0.31278  1.0000
  C   C833      1.0  0.64760  0.31089  0.25830  1.0000
  H   H662      1.0  0.35561  0.16418  0.16578  1.0000
  H   H663      1.0  0.34194  0.12691  0.17271  1.0000
  C   C834      1.0  0.64246  0.43285  0.21465  1.0000
  H   H664      1.0  0.60757  0.44620  0.33357  1.0000
  C   C835      1.0  0.33828  0.16164  0.16593  1.0000
  C   C836      1.0  0.64003  0.14487  0.20179  1.0000
  C   C837      1.0  0.53823  0.29681  0.21655  1.0000
  C   C838      1.0  0.49649  0.23244  0.34768  1.0000
  H   H665      1.0  0.50330  0.37381  0.33031  1.0000
  C   C839      1.0  0.34665  0.33237  0.21398  1.0000
  H   H666      1.0  0.51052  0.24501  0.44910  1.0000
  H   H667      1.0  0.46148  0.23534  0.34816  1.0000
  C   C840      1.0  0.47570  0.26293  0.32454  1.0000
  H   H668      1.0  0.33475  0.21448  0.39361  1.0000
  H   H669      1.0  0.47286  0.24404  0.47168  1.0000
  H   H670      1.0  0.41910  0.30342  0.21037  1.0000
  C   C841      1.0  0.45845  0.32012  0.26258  1.0000
  C   C842      1.0  0.55724  0.30808  0.26535  1.0000
  H   H671      1.0  0.32976  0.31230  0.30780  1.0000
  C   C843      1.0  0.37550  0.15230  0.04301  1.0000
  H   H672      1.0  0.63093  0.15833  0.46647  1.0000
  H   H673      1.0  0.33545  0.25026  0.36590  1.0000
  H   H674      1.0  0.47792  0.33026  0.40317  1.0000
  H   H675      1.0  0.39144  0.14782  0.03309  1.0000
  C   C844      1.0  0.33678  0.25804  0.29337  1.0000
  H   H676      1.0  0.34619  0.10978  0.08143  1.0000
  C   C845      1.0  0.65218  0.42594  0.29169  1.0000
  C   C846      1.0  0.33692  0.29708  0.29930  1.0000
  H   H677      1.0  0.63479  0.19029  0.37506  1.0000
  H   H678      1.0  0.63612  0.26977  0.46122  1.0000
  H   H679      1.0  0.32678  0.35567  0.24199  1.0000
  H   H680      1.0  0.64334  0.23141  0.44960  1.0000
  C   C847      1.0  0.65036  0.40391  0.30010  1.0000
  C   C848      1.0  0.33475  0.16318  0.07041  1.0000
  C   C849      1.0  0.33077  0.29778  0.20408  1.0000
  H   H681      1.0  0.65351  0.20204  0.20181  1.0000
  C   C850      1.0  0.33195  0.10003  0.08100  1.0000
  C   C851      1.0  0.64783  0.18725  0.39264  1.0000
  C   C852      1.0  0.39636  0.26316  0.00174  1.0000
  C   C853      1.0  0.32897  0.36210  0.14918  1.0000
  H   H682      1.0  0.34569  0.34333  0.11147  1.0000
  C   C854      1.0  0.64438  0.19175  0.42617  1.0000
  H   H683      1.0  0.64613  0.43214  0.13054  1.0000
  C   C855      1.0  0.65122  0.43294  0.15610  1.0000
  H   H684      1.0  0.32951  0.24259  0.29787  1.0000
  H   H685      1.0  0.64226  0.99417  0.48325  1.0000
  C   C856      1.0  0.48614  0.24812  0.48768  1.0000
  H   H686      1.0  0.47133  0.19519  0.99135  1.0000
  C   C857      1.0  0.45675  0.22737  0.98945  1.0000
  Fe  Fe57      1.0  0.58974  0.26188  0.60272  1.0000
  S   S113      1.0  0.57756  0.23202  0.62811  1.0000
  S   S114      1.0  0.58072  0.27420  0.55051  1.0000
  Fe  Fe58      1.0  0.61804  0.27384  0.66337  1.0000
  S   S115      1.0  0.60809  0.24415  0.69190  1.0000
  S   S116      1.0  0.64517  0.29765  0.67378  1.0000
  Fe  Fe59      1.0  0.61253  0.22619  0.64365  1.0000
  S   S117      1.0  0.63032  0.19486  0.62756  1.0000
  Fe  Fe60      1.0  0.57352  0.25241  0.67438  1.0000
  S   S118      1.0  0.54482  0.25501  0.71271  1.0000
  S   S119      1.0  0.62449  0.25515  0.61638  1.0000
  S   S120      1.0  0.58382  0.28295  0.64783  1.0000
  Fe  Fe61      1.0  0.39462  0.25618  0.84944  1.0000
  S   S121      1.0  0.40931  0.22583  0.82671  1.0000
  S   S122      1.0  0.40051  0.27028  0.90114  1.0000
  Fe  Fe62      1.0  0.36692  0.26673  0.78730  1.0000
  S   S123      1.0  0.37968  0.23668  0.76066  1.0000
  H   H687      1.0  0.61479  0.99344  0.52846  1.0000
  Fe  Fe63      1.0  0.37536  0.21921  0.80919  1.0000
  S   S124      1.0  0.36159  0.18615  0.82210  1.0000
  Fe  Fe64      1.0  0.41317  0.24533  0.77953  1.0000
  S   S125      1.0  0.44257  0.24021  0.74305  1.0000
  S   S126      1.0  0.36081  0.24839  0.83467  1.0000
  S   S127      1.0  0.40026  0.27649  0.80338  1.0000
  C   C858      1.0  0.51276  0.28123  0.60259  1.0000
  H   H688      1.0  0.48356  0.19560  0.93291  1.0000
  C   C859      1.0  0.34262  0.31041  0.71568  1.0000
  C   C860      1.0  0.36454  0.48564  0.57240  1.0000
  H   H689      1.0  0.35828  0.30193  0.71387  1.0000
  C   C861      1.0  0.47002  0.22782  0.92275  1.0000
  C   C862      1.0  0.65383  0.31217  0.70907  1.0000
  C   C863      1.0  0.35541  0.48217  0.86767  1.0000
  C   C864      1.0  0.63225  0.18129  0.50686  1.0000
  C   C865      1.0  0.64265  0.31181  0.73929  1.0000
  C   C866      1.0  0.40153  0.22725  0.97895  1.0000
  C   C867      1.0  0.59508  0.16082  0.53070  1.0000
  H   H690      1.0  0.62803  0.30268  0.74153  1.0000
  H   H691      1.0  0.61555  0.27751  0.81728  1.0000
  C   C868      1.0  0.51642  0.25028  0.72104  1.0000
  C   C869      1.0  0.50359  0.23805  0.70013  1.0000
  C   C870      1.0  0.48125  0.23517  0.70732  1.0000
  C   C871      1.0  0.47116  0.24428  0.73573  1.0000
  C   C872      1.0  0.48403  0.25623  0.75699  1.0000
  C   C873      1.0  0.50639  0.25916  0.74973  1.0000
  H   H692      1.0  0.51091  0.23078  0.67837  1.0000
  H   H693      1.0  0.47170  0.22573  0.69070  1.0000
  H   H694      1.0  0.47669  0.26339  0.77889  1.0000
  H   H695      1.0  0.51595  0.26858  0.76636  1.0000
  H   H696      1.0  0.51097  0.17759  0.64053  1.0000
  H   H697      1.0  0.56983  0.20467  0.87848  1.0000
  H   H698      1.0  0.58061  0.15315  0.53978  1.0000
  C   C874      1.0  0.39638  0.27184  0.96926  1.0000
  C   C875      1.0  0.39895  0.25831  0.94140  1.0000
  C   C876      1.0  0.40125  0.23589  0.94650  1.0000
  C   C877      1.0  0.32546  0.48175  0.57354  1.0000
  H   H699      1.0  0.40369  0.22532  0.92549  1.0000
  C   C878      1.0  0.65675  0.23136  0.53136  1.0000
  C   C879      1.0  0.58551  0.26189  0.51102  1.0000
  H   H700      1.0  0.38929  0.16584  0.97701  1.0000
  H   H701      1.0  0.59237  0.22955  0.52922  1.0000
  H   H702      1.0  0.43641  0.29205  0.84114  1.0000
  H   H703      1.0  0.34618  0.32751  0.66926  1.0000
  H   H704      1.0  0.34829  0.24133  0.98895  1.0000
  C   C880      1.0  0.63080  0.27236  0.80568  1.0000
  S   S128      1.0  0.33705  0.28902  0.77614  1.0000
  H   H705      1.0  0.45493  0.19789  0.77401  1.0000
  C   C881      1.0  0.65736  0.39982  0.75744  1.0000
  H   H706      1.0  0.47295  0.19083  0.63082  1.0000
  C   C882      1.0  0.32625  0.40698  0.66396  1.0000
  H   H707      1.0  0.46560  0.22703  0.60648  1.0000
  H   H708      1.0  0.35393  0.18440  0.98821  1.0000
  C   C883      1.0  0.32932  0.30705  0.74333  1.0000
  H   H709      1.0  0.51757  0.29872  0.55655  1.0000
  H   H710      1.0  0.51056  0.26868  0.65250  1.0000
  C   C884      1.0  0.53826  0.31318  0.63047  1.0000
  C   C885      1.0  0.60481  0.15410  0.50095  1.0000
  H   H711      1.0  0.35336  0.20923  0.88799  1.0000
  C   C886      1.0  0.36117  0.18577  0.96383  1.0000
  C   C887      1.0  0.45892  0.24594  0.93661  1.0000
  H   H712      1.0  0.44989  0.19196  0.89618  1.0000
  H   H713      1.0  0.46264  0.29002  0.55075  1.0000
  C   C888      1.0  0.48226  0.22171  0.61106  1.0000
  H   H714      1.0  0.62136  0.11468  0.54345  1.0000
  H   H715      1.0  0.53315  0.29649  0.67675  1.0000
  H   H716      1.0  0.33566  0.13928  0.91932  1.0000
  C   C889      1.0  0.45245  0.24570  0.96983  1.0000
  H   H717      1.0  0.63631  0.39706  0.59033  1.0000
  H   H718      1.0  0.46917  0.25996  0.64699  1.0000
  H   H719      1.0  0.59683  0.18256  0.57222  1.0000
  C   C890      1.0  0.50778  0.19354  0.62989  1.0000
  C   C891      1.0  0.64675  0.09002  0.53640  1.0000
  C   C892      1.0  0.42746  0.29114  0.61606  1.0000
  H   H720      1.0  0.43333  0.27548  0.66319  1.0000
  C   C893      1.0  0.62730  0.02110  0.55347  1.0000
  C   C894      1.0  0.65380  0.39766  0.59310  1.0000
  C   C895      1.0  0.46799  0.27267  0.59684  1.0000
  H   H721      1.0  0.64144  0.32304  0.78980  1.0000
  H   H722      1.0  0.64703  0.19498  0.69506  1.0000
  C   C896      1.0  0.52104  0.29782  0.58271  1.0000
  C   C897      1.0  0.46797  0.20936  0.97602  1.0000
  C   C898      1.0  0.38114  0.18934  0.90183  1.0000
  C   C899      1.0  0.43580  0.29517  0.58442  1.0000
  C   C900      1.0  0.60408  0.17744  0.54885  1.0000
  H   H723      1.0  0.50739  0.20302  0.83265  1.0000
  H   H724      1.0  0.33598  0.14834  0.97838  1.0000
  H   H725      1.0  0.53438  0.26047  0.54508  1.0000
  H   H726      1.0  0.65159  0.41120  0.64184  1.0000
  H   H727      1.0  0.43053  0.16658  0.86110  1.0000
  C   C901      1.0  0.39124  0.17694  0.92666  1.0000
  C   C902      1.0  0.53403  0.31353  0.59657  1.0000
  H   H728      1.0  0.50568  0.29559  0.82937  1.0000
  H   H729      1.0  0.54850  0.32520  0.64119  1.0000
  H   H730      1.0  0.53449  0.23754  0.60215  1.0000
  C   C903      1.0  0.38123  0.17511  0.95761  1.0000
  H   H731      1.0  0.40692  0.16896  0.92197  1.0000
  C   C904      1.0  0.52508  0.20667  0.62162  1.0000
  C   C905      1.0  0.43954  0.27831  0.63837  1.0000
  C   C906      1.0  0.45523  0.26382  0.85690  1.0000
  C   C907      1.0  0.47614  0.25451  0.86153  1.0000
  C   C908      1.0  0.49436  0.26611  0.85146  1.0000
  P   P31       1.0  0.47924  0.22784  0.88005  1.0000
  C   C909      1.0  0.50778  0.21967  0.87983  1.0000
  C   C910      1.0  0.49929  0.25798  0.54195  1.0000
  C   C911      1.0  0.32554  0.13058  0.93659  1.0000
  H   H732      1.0  0.61539  0.02070  0.57334  1.0000
  C   C912      1.0  0.63073  0.26188  0.77515  1.0000
  C   C913      1.0  0.52969  0.29698  0.65048  1.0000
  H   H733      1.0  0.46579  0.25130  0.53089  1.0000
  C   C914      1.0  0.48215  0.25251  0.52117  1.0000
  C   C915      1.0  0.51710  0.20788  0.85332  1.0000
  C   C916      1.0  0.54345  0.22060  0.90533  1.0000
  C   C917      1.0  0.65053  0.27654  0.82088  1.0000
  C   C918      1.0  0.46427  0.20930  0.85508  1.0000
  C   C919      1.0  0.45163  0.19320  0.86967  1.0000
  C   C920      1.0  0.44058  0.17871  0.84985  1.0000
  C   C921      1.0  0.44201  0.18019  0.81541  1.0000
  C   C922      1.0  0.45434  0.19628  0.80073  1.0000
  C   C923      1.0  0.46522  0.21091  0.82042  1.0000
  C   C924      1.0  0.47074  0.29617  0.83372  1.0000
  H   H734      1.0  0.61541  0.25894  0.76314  1.0000
  C   C925      1.0  0.32636  0.18148  0.78007  1.0000
  H   H735      1.0  0.44095  0.25512  0.86422  1.0000
  H   H736      1.0  0.51069  0.25926  0.85401  1.0000
  C   C926      1.0  0.55255  0.20879  0.87894  1.0000
  H   H737      1.0  0.54098  0.32587  0.58097  1.0000
  C   C927      1.0  0.51707  0.28104  0.63659  1.0000
  H   H738      1.0  0.54167  0.20083  0.62572  1.0000
  C   C928      1.0  0.33569  0.32492  0.69040  1.0000
  H   H739      1.0  0.47430  0.22355  0.80847  1.0000
  H   H740      1.0  0.42662  0.30553  0.56743  1.0000
  C   C929      1.0  0.34710  0.47084  0.62105  1.0000
  C   C930      1.0  0.34057  0.25057  0.92219  1.0000
  H   H741      1.0  0.43303  0.16931  0.80006  1.0000
  C   C931      1.0  0.59057  0.23969  0.50745  1.0000
  H   H742      1.0  0.41180  0.29820  0.62352  1.0000
  C   C932      1.0  0.36098  0.19988  0.90779  1.0000
  H   H743      1.0  0.38661  0.47675  0.89078  1.0000
  C   C933      1.0  0.52119  0.22612  0.90573  1.0000
  P   P32       1.0  0.49468  0.26177  0.58574  1.0000
  C   C934      1.0  0.45259  0.28472  0.84362  1.0000
  C   C935      1.0  0.62259  0.18759  0.53707  1.0000
  C   C936      1.0  0.52064  0.25757  0.52920  1.0000
  H   H744      1.0  0.55368  0.22567  0.92538  1.0000
  H   H745      1.0  0.45502  0.26032  0.92216  1.0000
  H   H746      1.0  0.34838  0.46459  0.64609  1.0000
  C   C937      1.0  0.35084  0.19821  0.93888  1.0000
  C   C938      1.0  0.65026  0.32349  0.76658  1.0000
  C   C939      1.0  0.53938  0.20248  0.85293  1.0000
  C   C940      1.0  0.52100  0.22747  0.60854  1.0000
  C   C941      1.0  0.33759  0.17397  0.80807  1.0000
  C   C942      1.0  0.45610  0.28615  0.57491  1.0000
  C   C943      1.0  0.32680  0.47270  0.60543  1.0000
  H   H747      1.0  0.38896  0.19092  0.87786  1.0000
  C   C944      1.0  0.48637  0.20102  0.62448  1.0000
  H   H748      1.0  0.51450  0.23566  0.92607  1.0000
  C   C945      1.0  0.32598  0.13538  0.97034  1.0000
  C   C946      1.0  0.49162  0.28682  0.83748  1.0000
  H   H749      1.0  0.46859  0.31222  0.82295  1.0000
  C   C947      1.0  0.49957  0.23527  0.60378  1.0000
  C   C948      1.0  0.45981  0.26933  0.62896  1.0000
  H   H750      1.0  0.33230  0.42684  0.62139  1.0000
  C   C949      1.0  0.47475  0.20963  0.94291  1.0000
  H   H751      1.0  0.54647  0.19357  0.83222  1.0000
  H   H752      1.0  0.64071  0.13328  0.58827  1.0000
  H   H753      1.0  0.64979  0.24824  0.73557  1.0000
  H   H754      1.0  0.62924  0.20028  0.55186  1.0000
  H   H755      1.0  0.39469  0.28922  0.96572  1.0000
  H   H756      1.0  0.63798  0.08182  0.51728  1.0000
  C   C950      1.0  0.64812  0.11904  0.57646  1.0000
  C   C951      1.0  0.52458  0.25314  0.49578  1.0000
  C   C952      1.0  0.63725  0.10856  0.55122  1.0000
  C   C953      1.0  0.65362  0.18254  0.64628  1.0000
  C   C954      1.0  0.33008  0.15564  0.82499  1.0000
  C   C955      1.0  0.33945  0.26982  0.90377  1.0000
  H   H757      1.0  0.35608  0.46681  0.85471  1.0000
  C   C956      1.0  0.64245  0.00614  0.50277  1.0000
  C   C957      1.0  0.65787  0.18490  0.67998  1.0000
  C   C958      1.0  0.62347  0.16409  0.48925  1.0000
  C   C959      1.0  0.36592  0.47714  0.60447  1.0000
  H   H758      1.0  0.40420  0.21000  0.98255  1.0000
  C   C960      1.0  0.65038  0.25586  0.75951  1.0000
  H   H759      1.0  0.44359  0.25961  0.98022  1.0000
  C   C961      1.0  0.64548  0.26730  0.51232  1.0000
  H   H760      1.0  0.64160  0.28424  0.51752  1.0000
  H   H761      1.0  0.33770  0.39413  0.65645  1.0000
  H   H762      1.0  0.35333  0.28021  0.90294  1.0000
  H   H763      1.0  0.33877  0.14958  0.84648  1.0000
  C   C962      1.0  0.64309  0.03689  0.55328  1.0000
  H   H764      1.0  0.35551  0.24628  0.93493  1.0000
  H   H765      1.0  0.65517  0.25983  0.56211  1.0000
  C   C963      1.0  0.65295  0.25347  0.53753  1.0000
  H   H766      1.0  0.38157  0.47552  0.61656  1.0000
  H   H767      1.0  0.64321  0.04852  0.57327  1.0000
  C   C964      1.0  0.62697  0.00573  0.52822  1.0000
  C   C965      1.0  0.65676  0.38633  0.72985  1.0000
  P   P33       1.0  0.65674  0.19393  0.49257  1.0000
  H   H768      1.0  0.65058  0.28497  0.84432  1.0000
  H   H769      1.0  0.33202  0.19547  0.76669  1.0000
  C   C966      1.0  0.37263  0.48779  0.88792  1.0000
  H   H770      1.0  0.64920  0.39524  0.78015  1.0000
  H   H771      1.0  0.64787  0.37148  0.73116  1.0000
  C   C967      1.0  0.65345  0.22291  0.49962  1.0000
  C   C968      1.0  0.34431  0.48803  0.55701  1.0000
  C   C969      1.0  0.65828  0.02189  0.50252  1.0000
  Fe  Fe65      1.0  0.41595  0.72297  0.27612  1.0000
  S   S129      1.0  0.40364  0.70140  0.31759  1.0000
  S   S130      1.0  0.45174  0.71569  0.25898  1.0000
  Fe  Fe66      1.0  0.37309  0.75092  0.27834  1.0000
  S   S131      1.0  0.35888  0.73161  0.31969  1.0000
  S   S132      1.0  0.35319  0.77836  0.25357  1.0000
  Fe  Fe67      1.0  0.39194  0.73215  0.34320  1.0000
  S   S133      1.0  0.39761  0.74507  0.39589  1.0000
  Fe  Fe68      1.0  0.37132  0.70241  0.29065  1.0000
  S   S134      1.0  0.34687  0.67497  0.28700  1.0000
  S   S135      1.0  0.40560  0.75363  0.30311  1.0000
  S   S136      1.0  0.38421  0.72183  0.24796  1.0000
  Fe  Fe69      1.0  0.56628  0.73342  0.15166  1.0000
  S   S137      1.0  0.58082  0.70632  0.11971  1.0000
  S   S138      1.0  0.52944  0.74141  0.15914  1.0000
  Fe  Fe70      1.0  0.61111  0.75330  0.16116  1.0000
  S   S139      1.0  0.62815  0.72804  0.13038  1.0000
  S   S140      1.0  0.63026  0.77871  0.18808  1.0000
  Fe  Fe71      1.0  0.60044  0.73185  0.09446  1.0000
  S   S141      1.0  0.61290  0.73421  0.04085  1.0000
  Fe  Fe72      1.0  0.60785  0.70430  0.15753  1.0000
  S   S142      1.0  0.62445  0.67156  0.16967  1.0000
  S   S143      1.0  0.58467  0.75918  0.12379  1.0000
  S   S144      1.0  0.59196  0.72936  0.19114  1.0000
  H   H772      1.0  0.32677  0.71915  0.27027  1.0000
  C   C970      1.0  0.64402  0.67584  0.23095  1.0000
  H   H773      1.0  0.35099  0.73638  0.40080  1.0000
  H   H774      1.0  0.40594  0.76618  0.45739  1.0000
  C   C971      1.0  0.56891  0.57888  0.19167  1.0000
  C   C972      1.0  0.55702  0.79211  0.06523  1.0000
  C   C973      1.0  0.62077  0.64079  0.07859  1.0000
  H   H775      1.0  0.65673  0.66752  0.11242  1.0000
  C   C974      1.0  0.33645  0.74202  0.41399  1.0000
  H   H776      1.0  0.56874  0.72522  0.01765  1.0000
  H   H777      1.0  0.59596  0.75648  0.40797  1.0000
  H   H778      1.0  0.53070  0.89547  0.00638  1.0000
  H   H779      1.0  0.50026  0.85647  0.08034  1.0000
  C   C975      1.0  0.51470  0.86033  0.06637  1.0000
  H   H780      1.0  0.33327  0.61671  0.31351  1.0000
  H   H781      1.0  0.65039  0.75597  0.26626  1.0000
  C   C976      1.0  0.55712  0.55121  0.15413  1.0000
  H   H782      1.0  0.49832  0.88661  0.04012  1.0000
  C   C977      1.0  0.32591  0.87734  0.44997  1.0000
  C   C978      1.0  0.34570  0.66370  0.22005  1.0000
  H   H783      1.0  0.33717  0.77153  0.17553  1.0000
  H   H784      1.0  0.35937  0.67407  0.21648  1.0000
  C   C979      1.0  0.39584  0.73571  0.43775  1.0000
  H   H785      1.0  0.55755  0.54772  0.20716  1.0000
  C   C980      1.0  0.38949  0.71479  0.44615  1.0000
  H   H786      1.0  0.61609  0.77825  0.06966  1.0000
  H   H787      1.0  0.38565  0.70354  0.42679  1.0000
  H   H788      1.0  0.61361  0.84786  0.00753  1.0000
  C   C981      1.0  0.38807  0.70840  0.47974  1.0000
  H   H789      1.0  0.63298  0.68960  0.23491  1.0000
  C   C982      1.0  0.50804  0.73384  0.18704  1.0000
  C   C983      1.0  0.48667  0.74219  0.18189  1.0000
  C   C984      1.0  0.46935  0.73717  0.20368  1.0000
  C   C985      1.0  0.47296  0.72311  0.23060  1.0000
  C   C986      1.0  0.49426  0.71438  0.23525  1.0000
  C   C987      1.0  0.51167  0.72000  0.21410  1.0000
  H   H790      1.0  0.48343  0.75249  0.16068  1.0000
  H   H791      1.0  0.45312  0.74385  0.19930  1.0000
  H   H792      1.0  0.49737  0.70321  0.25549  1.0000
  H   H793      1.0  0.52789  0.71349  0.21856  1.0000
  C   C988      1.0  0.33355  0.73644  0.44723  1.0000
  C   C989      1.0  0.57342  0.59257  0.16477  1.0000
  C   C990      1.0  0.56925  0.58552  0.13254  1.0000
  P   P34       1.0  0.58299  0.61951  0.17185  1.0000
  C   C991      1.0  0.56001  0.63801  0.17943  1.0000
  C   C992      1.0  0.60089  0.61859  0.20722  1.0000
  C   C993      1.0  0.60029  0.63545  0.23045  1.0000
  C   C994      1.0  0.61387  0.63439  0.25806  1.0000
  H   H794      1.0  0.61851  0.84777  0.06792  1.0000
  C   C995      1.0  0.62838  0.61668  0.26246  1.0000
  C   C996      1.0  0.33773  0.65178  0.19322  1.0000
  C   C997      1.0  0.56210  0.66043  0.17469  1.0000
  C   C998      1.0  0.54408  0.67469  0.17860  1.0000
  C   C999      1.0  0.52395  0.66673  0.18807  1.0000
  C   C1000     1.0  0.52186  0.64455  0.19384  1.0000
  C   C1001     1.0  0.53978  0.63020  0.18946  1.0000
  C   C1002     1.0  0.59786  0.62790  0.13539  1.0000
  C   C1003     1.0  0.58714  0.63962  0.11001  1.0000
  C   C1004     1.0  0.59862  0.64622  0.08193  1.0000
  C   C1005     1.0  0.33336  0.79437  0.27543  1.0000
  H   H795      1.0  0.34606  0.72659  0.45937  1.0000
  C   C1006     1.0  0.62006  0.62224  0.13154  1.0000
  C   C1007     1.0  0.54091  0.66525  0.28290  1.0000
  H   H796      1.0  0.57215  0.59590  0.11140  1.0000
  H   H797      1.0  0.58980  0.64969  0.22698  1.0000
  H   H798      1.0  0.34543  0.65313  0.16919  1.0000
  H   H799      1.0  0.58695  0.71797  0.39982  1.0000
  H   H800      1.0  0.54386  0.64892  0.27375  1.0000
  C   C1008     1.0  0.32965  0.79122  0.30922  1.0000
  H   H801      1.0  0.57761  0.66685  0.16740  1.0000
  H   H802      1.0  0.54563  0.69191  0.17392  1.0000
  H   H803      1.0  0.50990  0.67773  0.19074  1.0000
  H   H804      1.0  0.50622  0.63848  0.20124  1.0000
  H   H805      1.0  0.53764  0.61307  0.19357  1.0000
  H   H806      1.0  0.56994  0.64383  0.11186  1.0000
  H   H807      1.0  0.59038  0.65573  0.06286  1.0000
  C   C1009     1.0  0.33711  0.80721  0.45816  1.0000
  C   C1010     1.0  0.61696  0.83258  0.05489  1.0000
  H   H808      1.0  0.65799  0.81182  0.21193  1.0000
  H   H809      1.0  0.33086  0.51457  0.21274  1.0000
  H   H810      1.0  0.62967  0.64608  0.05694  1.0000
  H   H811      1.0  0.61083  0.77797  0.00928  1.0000
  H   H812      1.0  0.36354  0.78309  0.45903  1.0000
  C   C1011     1.0  0.40084  0.75001  0.46348  1.0000
  H   H813      1.0  0.35293  0.81473  0.36578  1.0000
  H   H814      1.0  0.65718  0.67651  0.28028  1.0000
  H   H815      1.0  0.63947  0.61630  0.28324  1.0000
  H   H816      1.0  0.33703  0.87012  0.46790  1.0000
  H   H817      1.0  0.64865  0.62456  0.10082  1.0000
  H   H818      1.0  0.63597  0.72852  0.22867  1.0000
  C   C1012     1.0  0.65766  0.66825  0.25674  1.0000
  C   C1013     1.0  0.55113  0.68262  0.26779  1.0000
  C   C1014     1.0  0.32523  0.82232  0.43865  1.0000
  C   C1015     1.0  0.33005  0.89781  0.43674  1.0000
  C   C1016     1.0  0.61308  0.79328  0.02162  1.0000
  C   C1017     1.0  0.35986  0.79730  0.41093  1.0000
  H   H819      1.0  0.64437  0.78169  0.11933  1.0000
  C   C1018     1.0  0.56125  0.56487  0.12728  1.0000
  C   C1019     1.0  0.61547  0.60077  0.21196  1.0000
  H   H820      1.0  0.55090  0.53523  0.14999  1.0000
  H   H821      1.0  0.55818  0.55947  0.10232  1.0000
  C   C1020     1.0  0.61741  0.81308  0.07258  1.0000
  C   C1021     1.0  0.60123  0.73124  0.00092  1.0000
  C   C1022     1.0  0.55107  0.86998  0.02771  1.0000
  C   C1023     1.0  0.34848  0.81260  0.39157  1.0000
  H   H822      1.0  0.33352  0.80517  0.48412  1.0000
  C   C1024     1.0  0.51858  0.77722  0.03834  1.0000
  C   C1025     1.0  0.53855  0.76703  0.03018  1.0000
  H   H823      1.0  0.33159  0.66081  0.48352  1.0000
  C   C1026     1.0  0.55231  0.85288  0.05057  1.0000
  C   C1027     1.0  0.53701  0.80214  0.07410  1.0000
  C   C1028     1.0  0.51782  0.79489  0.05992  1.0000
  P   P35       1.0  0.53615  0.82599  0.09972  1.0000
  C   C1029     1.0  0.56012  0.82650  0.12514  1.0000
  C   C1030     1.0  0.53434  0.84838  0.07082  1.0000
  C   C1031     1.0  0.64919  0.79521  0.16746  1.0000
  H   H824      1.0  0.61888  0.81323  0.09926  1.0000
  H   H825      1.0  0.57206  0.79779  0.07513  1.0000
  C   C1032     1.0  0.61450  0.83249  0.02054  1.0000
  H   H826      1.0  0.33070  0.54423  0.17092  1.0000
  C   C1033     1.0  0.57369  0.84440  0.12524  1.0000
  C   C1034     1.0  0.59213  0.84421  0.14535  1.0000
  C   C1035     1.0  0.59680  0.82649  0.16609  1.0000
  C   C1036     1.0  0.58291  0.80905  0.16700  1.0000
  C   C1037     1.0  0.56466  0.80902  0.14664  1.0000
  C   C1038     1.0  0.51401  0.82551  0.12929  1.0000
  C   C1039     1.0  0.50713  0.84471  0.14536  1.0000
  C   C1040     1.0  0.49075  0.84437  0.16955  1.0000
  C   C1041     1.0  0.48144  0.82478  0.17834  1.0000
  C   C1042     1.0  0.48867  0.80551  0.16321  1.0000
  C   C1043     1.0  0.50505  0.80577  0.13903  1.0000
  H   H827      1.0  0.50371  0.77138  0.02794  1.0000
  H   H828      1.0  0.56731  0.84319  0.05257  1.0000
  H   H829      1.0  0.56204  0.67978  0.24698  1.0000
  C   C1044     1.0  0.57795  0.73071  0.38666  1.0000
  H   H830      1.0  0.50226  0.80283  0.06565  1.0000
  C   C1045     1.0  0.55776  0.77452  0.04352  1.0000
  H   H831      1.0  0.62878  0.61325  0.15053  1.0000
  H   H832      1.0  0.61643  0.58765  0.19425  1.0000
  C   C1046     1.0  0.33129  0.82507  0.40531  1.0000
  H   H833      1.0  0.38310  0.69220  0.48587  1.0000
  H   H834      1.0  0.57008  0.85861  0.11027  1.0000
  H   H835      1.0  0.60281  0.85784  0.14509  1.0000
  H   H836      1.0  0.61115  0.82623  0.18155  1.0000
  H   H837      1.0  0.58645  0.79539  0.18329  1.0000
  H   H838      1.0  0.55413  0.79528  0.14760  1.0000
  H   H839      1.0  0.51460  0.85993  0.13948  1.0000
  H   H840      1.0  0.48542  0.85925  0.18177  1.0000
  H   H841      1.0  0.46881  0.82447  0.19720  1.0000
  H   H842      1.0  0.48175  0.79029  0.17057  1.0000
  H   H843      1.0  0.51093  0.79046  0.12860  1.0000
  C   C1047     1.0  0.52695  0.66899  0.30987  1.0000
  H   H844      1.0  0.57148  0.58418  0.21680  1.0000
  C   C1048     1.0  0.61286  0.81277  0.00354  1.0000
  C   C1049     1.0  0.54713  0.70376  0.27925  1.0000
  C   C1050     1.0  0.53259  0.70778  0.30568  1.0000
  C   C1051     1.0  0.52298  0.69011  0.32148  1.0000
  P   P36       1.0  0.52769  0.73516  0.32074  1.0000
  C   C1052     1.0  0.54950  0.74183  0.34810  1.0000
  C   C1053     1.0  0.52730  0.75364  0.28575  1.0000
  C   C1054     1.0  0.54698  0.76001  0.27132  1.0000
  C   C1055     1.0  0.54687  0.77325  0.24312  1.0000
  C   C1056     1.0  0.52714  0.78051  0.22936  1.0000
  C   C1057     1.0  0.50751  0.77467  0.24396  1.0000
  C   C1058     1.0  0.50755  0.76125  0.27194  1.0000
  C   C1059     1.0  0.55459  0.76361  0.35302  1.0000
  C   C1060     1.0  0.57133  0.76885  0.37448  1.0000
  C   C1061     1.0  0.58303  0.75241  0.39127  1.0000
  C   C1062     1.0  0.65768  0.64637  0.19666  1.0000
  C   C1063     1.0  0.56122  0.72541  0.36522  1.0000
  C   C1064     1.0  0.50191  0.73741  0.34271  1.0000
  C   C1065     1.0  0.49980  0.74935  0.37216  1.0000
  C   C1066     1.0  0.47968  0.75120  0.38857  1.0000
  C   C1067     1.0  0.46152  0.74127  0.37567  1.0000
  C   C1068     1.0  0.46349  0.72940  0.34644  1.0000
  C   C1069     1.0  0.48357  0.72742  0.33012  1.0000
  H   H845      1.0  0.51912  0.65551  0.32177  1.0000
  H   H846      1.0  0.37310  0.78751  0.40020  1.0000
  H   H847      1.0  0.64083  0.58643  0.24254  1.0000
  H   H848      1.0  0.55521  0.71686  0.26698  1.0000
  H   H849      1.0  0.51232  0.69257  0.34266  1.0000
  H   H850      1.0  0.56245  0.75435  0.28136  1.0000
  H   H851      1.0  0.56209  0.77754  0.23154  1.0000
  H   H852      1.0  0.52706  0.79025  0.20699  1.0000
  H   H853      1.0  0.49218  0.77987  0.23295  1.0000
  H   H854      1.0  0.49207  0.75644  0.28195  1.0000
  H   H855      1.0  0.54551  0.77654  0.34045  1.0000
  H   H856      1.0  0.57518  0.78568  0.37819  1.0000
  C   C1070     1.0  0.56090  0.55824  0.18632  1.0000
  H   H857      1.0  0.33896  0.77877  0.32237  1.0000
  H   H858      1.0  0.55743  0.70852  0.36222  1.0000
  H   H859      1.0  0.51354  0.75730  0.38256  1.0000
  H   H860      1.0  0.47805  0.76041  0.41125  1.0000
  H   H861      1.0  0.44586  0.74282  0.38821  1.0000
  H   H862      1.0  0.44937  0.72186  0.33618  1.0000
  H   H863      1.0  0.48470  0.71824  0.30744  1.0000
  C   C1071     1.0  0.35429  0.79472  0.44420  1.0000
  C   C1072     1.0  0.65245  0.79392  0.13331  1.0000
  H   H864      1.0  0.61377  0.64768  0.27547  1.0000
  C   C1073     1.0  0.51346  0.87729  0.04326  1.0000
  C   C1074     1.0  0.61575  0.79342  0.05592  1.0000
  H   H865      1.0  0.53915  0.75338  0.01339  1.0000
  C   C1075     1.0  0.33650  0.66158  0.25160  1.0000
  C   C1076     1.0  0.64366  0.66469  0.20096  1.0000
  C   C1077     1.0  0.57918  0.72737  0.99633  1.0000
  H   H866      1.0  0.57324  0.76660  0.03718  1.0000
  C   C1078     1.0  0.53167  0.88223  0.02413  1.0000
  C   C1079     1.0  0.65272  0.73316  0.22622  1.0000
  H   H867      1.0  0.65753  0.63759  0.17362  1.0000
  H   H868      1.0  0.64964  0.68970  0.06188  1.0000
  H   H869      1.0  0.32829  0.61536  0.37430  1.0000
  C   C1080     1.0  0.62921  0.59990  0.23938  1.0000
  H   H870      1.0  0.56515  0.87371  0.01268  1.0000
  H   H871      1.0  0.34419  0.90635  0.44464  1.0000
  C   C1081     1.0  0.63144  0.62867  0.10327  1.0000
  Fe  Fe73      1.0  0.39243  0.72968  0.59863  1.0000
  S   S145      1.0  0.41315  0.75666  0.61650  1.0000
  S   S146      1.0  0.39099  0.71359  0.54740  1.0000
  Fe  Fe74      1.0  0.37058  0.72393  0.66767  1.0000
  S   S147      1.0  0.39014  0.75045  0.69002  1.0000
  S   S148      1.0  0.34108  0.71202  0.69705  1.0000
  Fe  Fe75      1.0  0.38251  0.76892  0.64315  1.0000
  S   S149      1.0  0.37106  0.80456  0.64063  1.0000
  Fe  Fe76      1.0  0.41945  0.73619  0.66233  1.0000
  S   S150      1.0  0.45304  0.72660  0.68558  1.0000
  S   S151      1.0  0.36167  0.74338  0.62216  1.0000
  S   S152      1.0  0.40007  0.70821  0.64304  1.0000
  Fe  Fe77      1.0  0.61976  0.75472  0.79738  1.0000
  S   S153      1.0  0.62163  0.72287  0.82555  1.0000
  H   H872      1.0  0.54415  0.76729  0.93423  1.0000
  Fe  Fe78      1.0  0.57209  0.74689  0.77495  1.0000
  S   S154      1.0  0.57204  0.71490  0.80146  1.0000
  S   S155      1.0  0.54153  0.76180  0.74863  1.0000
  Fe  Fe79      1.0  0.58786  0.73173  0.84412  1.0000
  S   S156      1.0  0.57223  0.72794  0.89576  1.0000
  Fe  Fe80      1.0  0.60601  0.70900  0.78058  1.0000
  S   S157      1.0  0.61454  0.67655  0.75525  1.0000
  S   S158      1.0  0.58661  0.76431  0.81856  1.0000
  S   S159      1.0  0.60536  0.74024  0.75154  1.0000
  C   C1082     1.0  0.64014  0.66708  0.73875  1.0000
  C   C1083     1.0  0.34359  0.66684  0.70525  1.0000
  H   H873      1.0  0.53839  0.74610  0.60446  1.0000
  H   H874      1.0  0.39248  0.69432  0.73202  1.0000
  C   C1084     1.0  0.42425  0.73306  0.83575  1.0000
  H   H875      1.0  0.39220  0.69924  0.88020  1.0000
  H   H876      1.0  0.38120  0.73411  0.90690  1.0000
  H   H877      1.0  0.62127  0.63056  0.63493  1.0000
  C   C1085     1.0  0.53381  0.79729  0.95798  1.0000
  H   H878      1.0  0.52851  0.71243  0.85535  1.0000
  C   C1086     1.0  0.51241  0.71599  0.84533  1.0000
  C   C1087     1.0  0.34471  0.81472  0.65233  1.0000
  H   H879      1.0  0.35909  0.66702  0.69244  1.0000
  C   C1088     1.0  0.41500  0.71029  0.76362  1.0000
  H   H880      1.0  0.49585  0.69711  0.88194  1.0000
  C   C1089     1.0  0.39957  0.74357  0.49704  1.0000
  H   H881      1.0  0.58224  0.84170  0.91413  1.0000
  C   C1090     1.0  0.64880  0.81340  0.77640  1.0000
  H   H882      1.0  0.46926  0.69728  0.76855  1.0000
  C   C1091     1.0  0.47763  0.73706  0.70241  1.0000
  C   C1092     1.0  0.49311  0.72241  0.71647  1.0000
  C   C1093     1.0  0.51287  0.72946  0.72987  1.0000
  C   C1094     1.0  0.51742  0.75157  0.73010  1.0000
  C   C1095     1.0  0.50192  0.76629  0.71608  1.0000
  C   C1096     1.0  0.48231  0.75914  0.70220  1.0000
  H   H883      1.0  0.48968  0.70541  0.71705  1.0000
  H   H884      1.0  0.52438  0.71784  0.74064  1.0000
  H   H885      1.0  0.50511  0.78343  0.71598  1.0000
  H   H886      1.0  0.47085  0.77074  0.69131  1.0000
  C   C1097     1.0  0.57063  0.72624  0.96404  1.0000
  C   C1098     1.0  0.58403  0.72870  0.93592  1.0000
  C   C1099     1.0  0.60615  0.73212  0.94057  1.0000
  H   H887      1.0  0.55353  0.72338  0.96079  1.0000
  H   H888      1.0  0.61668  0.73374  0.91925  1.0000
  C   C1100     1.0  0.35393  0.52208  0.90041  1.0000
  C   C1101     1.0  0.39305  0.72272  0.50546  1.0000
  H   H889      1.0  0.36283  0.98237  0.58092  1.0000
  H   H890      1.0  0.40380  0.75465  0.51640  1.0000
  C   C1102     1.0  0.40916  0.69474  0.74057  1.0000
  C   C1103     1.0  0.63308  0.84704  0.94564  1.0000
  H   H891      1.0  0.34655  0.95321  0.69270  1.0000
  H   H892      1.0  0.33650  0.71998  0.56552  1.0000
  C   C1104     1.0  0.54053  0.81671  0.97168  1.0000
  C   C1105     1.0  0.39321  0.73382  0.88713  1.0000
  H   H893      1.0  0.32793  0.57539  0.74998  1.0000
  C   C1106     1.0  0.33486  0.70718  0.54759  1.0000
  C   C1107     1.0  0.62376  0.87651  0.90800  1.0000
  C   C1108     1.0  0.33281  0.56424  0.83218  1.0000
  C   C1109     1.0  0.57812  0.80680  0.95796  1.0000
  H   H894      1.0  0.35898  0.80190  0.57553  1.0000
  C   C1110     1.0  0.54919  0.78250  0.94466  1.0000
  C   C1111     1.0  0.35016  0.78935  0.56340  1.0000
  S   S160      1.0  0.65291  0.77092  0.80061  1.0000
  C   C1112     1.0  0.44579  0.79900  0.75018  1.0000
  H   H895      1.0  0.45878  0.66997  0.72783  1.0000
  H   H896      1.0  0.64499  0.83886  0.96135  1.0000
  C   C1113     1.0  0.37193  0.50776  0.90417  1.0000
  C   C1114     1.0  0.48945  0.73404  0.80451  1.0000
  C   C1115     1.0  0.45623  0.79576  0.78047  1.0000
  C   C1116     1.0  0.41488  0.71377  0.84657  1.0000
  H   H897      1.0  0.55987  0.63412  0.68610  1.0000
  C   C1117     1.0  0.45240  0.69652  0.76137  1.0000
  C   C1118     1.0  0.45552  0.77563  0.79650  1.0000
  C   C1119     1.0  0.44650  0.68094  0.73836  1.0000
  C   C1120     1.0  0.43414  0.76189  0.75167  1.0000
  H   H898      1.0  0.65601  0.75288  0.88022  1.0000
  H   H899      1.0  0.62632  0.77565  0.85620  1.0000
  H   H900      1.0  0.34320  0.49485  0.53230  1.0000
  H   H901      1.0  0.45925  0.70549  0.85945  1.0000
  C   C1121     1.0  0.44449  0.75846  0.78219  1.0000
  H   H902      1.0  0.59212  0.87553  0.88570  1.0000
  H   H903      1.0  0.42480  0.76784  0.84328  1.0000
  H   H904      1.0  0.39764  0.76830  0.88820  1.0000
  C   C1122     1.0  0.33707  0.83489  0.63976  1.0000
  H   H905      1.0  0.63205  0.81008  0.77093  1.0000
  H   H906      1.0  0.37470  0.78406  0.52591  1.0000
  H   H907      1.0  0.61397  0.66724  0.61139  1.0000
  H   H908      1.0  0.34703  0.84356  0.62233  1.0000
  H   H909      1.0  0.35392  0.53767  0.91260  1.0000
  H   H910      1.0  0.35487  0.75555  0.49782  1.0000
  H   H911      1.0  0.62826  0.89108  0.89485  1.0000
  C   C1123     1.0  0.33767  0.97224  0.61443  1.0000
  H   H912      1.0  0.48807  0.74422  0.78272  1.0000
  H   H913      1.0  0.52438  0.73576  0.80552  1.0000
  H   H914      1.0  0.40266  0.72178  0.77271  1.0000
  H   H915      1.0  0.42612  0.74893  0.73939  1.0000
  C   C1124     1.0  0.65714  0.83392  0.76882  1.0000
  H   H916      1.0  0.42694  0.78442  0.71205  1.0000
  H   H917      1.0  0.44655  0.81448  0.73750  1.0000
  C   C1125     1.0  0.37150  0.96273  0.65867  1.0000
  H   H918      1.0  0.41951  0.69839  0.83524  1.0000
  C   C1126     1.0  0.33170  0.80370  0.67492  1.0000
  C   C1127     1.0  0.57127  0.78713  0.94489  1.0000
  C   C1128     1.0  0.43468  0.78209  0.73588  1.0000
  C   C1129     1.0  0.40248  0.75307  0.87660  1.0000
  C   C1130     1.0  0.59780  0.84863  0.91924  1.0000
  H   H919      1.0  0.46517  0.80876  0.79126  1.0000
  P   P37       1.0  0.60662  0.81259  0.95999  1.0000
  H   H920      1.0  0.34094  0.57019  0.85380  1.0000
  C   C1131     1.0  0.47081  0.72598  0.81979  1.0000
  C   C1132     1.0  0.60339  0.86773  0.90289  1.0000
  H   H921      1.0  0.63178  0.73605  0.97606  1.0000
  C   C1133     1.0  0.33536  0.64702  0.71679  1.0000
  H   H922      1.0  0.62618  0.64042  0.71309  1.0000
  C   C1134     1.0  0.56262  0.82145  0.97164  1.0000
  C   C1135     1.0  0.47325  0.71232  0.84755  1.0000
  H   H923      1.0  0.51672  0.79357  0.95791  1.0000
  C   C1136     1.0  0.32591  0.56700  0.77339  1.0000
  H   H924      1.0  0.64665  0.84630  0.75760  1.0000
  H   H925      1.0  0.34650  0.58827  0.79983  1.0000
  H   H926      1.0  0.65410  0.86447  0.82947  1.0000
  C   C1137     1.0  0.37616  0.97090  0.62719  1.0000
  H   H927      1.0  0.52864  0.82803  0.98242  1.0000
  C   C1138     1.0  0.43672  0.71145  0.77391  1.0000
  H   H928      1.0  0.35078  0.65429  0.53666  1.0000
  C   C1139     1.0  0.61255  0.83829  0.94104  1.0000
  H   H929      1.0  0.59407  0.61400  0.67194  1.0000
  H   H930      1.0  0.34470  0.63207  0.71268  1.0000
  H   H931      1.0  0.65461  0.87265  0.93264  1.0000
  C   C1140     1.0  0.34755  0.76341  0.51916  1.0000
  C   C1141     1.0  0.62249  0.79329  0.93572  1.0000
  C   C1142     1.0  0.61804  0.79161  0.90186  1.0000
  C   C1143     1.0  0.35892  0.77946  0.53515  1.0000
  C   C1144     1.0  0.33627  0.57435  0.80162  1.0000
  P   P38       1.0  0.44419  0.73224  0.80264  1.0000
  C   C1145     1.0  0.34996  0.95922  0.66803  1.0000
  C   C1146     1.0  0.63958  0.78059  0.94935  1.0000
  H   H932      1.0  0.39285  0.97368  0.62001  1.0000
  C   C1147     1.0  0.39941  0.71418  0.87211  1.0000
  C   C1148     1.0  0.33635  0.51631  0.88071  1.0000
  C   C1149     1.0  0.63012  0.77709  0.88214  1.0000
  H   H933      1.0  0.42048  0.66847  0.70934  1.0000
  H   H934      1.0  0.46387  0.77335  0.81981  1.0000
  C   C1150     1.0  0.49399  0.70745  0.86033  1.0000
  C   C1151     1.0  0.64106  0.64846  0.71863  1.0000
  C   C1152     1.0  0.63859  0.86617  0.92939  1.0000
  C   C1153     1.0  0.64696  0.76433  0.89578  1.0000
  C   C1154     1.0  0.41794  0.75272  0.85103  1.0000
  C   C1155     1.0  0.42493  0.68013  0.72784  1.0000
  H   H935      1.0  0.58283  0.77514  0.93506  1.0000
  C   C1156     1.0  0.65182  0.76617  0.92935  1.0000
  H   H936      1.0  0.60503  0.80135  0.89067  1.0000
  H   H937      1.0  0.64097  0.83015  0.85362  1.0000
  C   C1157     1.0  0.61464  0.73342  0.97283  1.0000
  H   H938      1.0  0.57998  0.68765  0.62505  1.0000
  C   C1158     1.0  0.33174  0.68632  0.71047  1.0000
  C   C1159     1.0  0.49975  0.64387  0.61555  1.0000
  C   C1160     1.0  0.48130  0.65781  0.61540  1.0000
  C   C1161     1.0  0.48176  0.67785  0.63128  1.0000
  C   C1162     1.0  0.50067  0.68400  0.64712  1.0000
  C   C1163     1.0  0.51933  0.67015  0.64732  1.0000
  C   C1164     1.0  0.51869  0.64994  0.63159  1.0000
  P   P39       1.0  0.54320  0.67791  0.66966  1.0000
  C   C1165     1.0  0.54795  0.70632  0.66216  1.0000
  C   C1166     1.0  0.53938  0.67275  0.71337  1.0000
  C   C1167     1.0  0.55749  0.67139  0.73426  1.0000
  C   C1168     1.0  0.55488  0.66730  0.76804  1.0000
  C   C1169     1.0  0.53411  0.66483  0.78142  1.0000
  C   C1170     1.0  0.51596  0.66586  0.76079  1.0000
  C   C1171     1.0  0.51859  0.66952  0.72682  1.0000
  C   C1172     1.0  0.54075  0.71638  0.63271  1.0000
  C   C1173     1.0  0.54446  0.73831  0.62678  1.0000
  C   C1174     1.0  0.55588  0.75023  0.64975  1.0000
  C   C1175     1.0  0.56378  0.74017  0.67844  1.0000
  C   C1176     1.0  0.55978  0.71835  0.68478  1.0000
  C   C1177     1.0  0.56720  0.66236  0.65647  1.0000
  C   C1178     1.0  0.57134  0.64139  0.66927  1.0000
  C   C1179     1.0  0.59069  0.62992  0.66131  1.0000
  C   C1180     1.0  0.60603  0.63924  0.64045  1.0000
  C   C1181     1.0  0.60191  0.65994  0.62722  1.0000
  C   C1182     1.0  0.58257  0.67147  0.63509  1.0000
  H   H939      1.0  0.49936  0.62831  0.60326  1.0000
  H   H940      1.0  0.46663  0.65313  0.60300  1.0000
  H   H941      1.0  0.46746  0.68873  0.63142  1.0000
  H   H942      1.0  0.50069  0.69963  0.65916  1.0000
  H   H943      1.0  0.53274  0.63887  0.63159  1.0000
  H   H944      1.0  0.57372  0.67347  0.72443  1.0000
  H   H945      1.0  0.56909  0.66633  0.78382  1.0000
  H   H946      1.0  0.53215  0.66207  0.80774  1.0000
  H   H947      1.0  0.49987  0.66381  0.77112  1.0000
  H   H948      1.0  0.50436  0.66992  0.71132  1.0000
  H   H949      1.0  0.53222  0.70737  0.61427  1.0000
  C   C1183     1.0  0.51011  0.72919  0.81734  1.0000
  H   H950      1.0  0.55855  0.76730  0.64549  1.0000
  H   H951      1.0  0.57258  0.74948  0.69627  1.0000
  H   H952      1.0  0.56587  0.71113  0.70746  1.0000
  C   C1184     1.0  0.33295  0.96356  0.64573  1.0000
  H   H953      1.0  0.35301  0.68400  0.57740  1.0000
  H   H954      1.0  0.33058  0.91808  0.66000  1.0000
  C   C1185     1.0  0.34415  0.68666  0.55456  1.0000
  C   C1186     1.0  0.34302  0.66998  0.53147  1.0000
  H   H955      1.0  0.38458  0.95923  0.67592  1.0000
  C   C1187     1.0  0.35924  0.97574  0.60514  1.0000
  H   H956      1.0  0.38542  0.51224  0.91952  1.0000
  C   C1188     1.0  0.32710  0.75741  0.53090  1.0000
  H   H957      1.0  0.33747  0.78828  0.68505  1.0000
  C   C1189     1.0  0.65604  0.83669  0.86215  1.0000
  C   C1190     1.0  0.33041  0.78260  0.57648  1.0000
  H   H958      1.0  0.64339  0.78155  0.97529  1.0000
  H   H959      1.0  0.37913  0.49054  0.55959  1.0000
  C   C1191     1.0  0.33230  0.67371  0.50151  1.0000
  C   C1192     1.0  0.33739  0.49644  0.86387  1.0000
  H   H960      1.0  0.32576  0.88417  0.69165  1.0000
  H   H961      1.0  0.56770  0.83645  0.98238  1.0000
  Fe  Fe81      1.0  0.76482  0.10657  0.28752  1.0000
  S   S161      1.0  0.73814  0.08976  0.26075  1.0000
  S   S162      1.0  0.77946  0.13702  0.26435  1.0000
  Fe  Fe82      1.0  0.75697  0.08007  0.35172  1.0000
  S   S163      1.0  0.73024  0.06133  0.32847  1.0000
  S   S164      1.0  0.76946  0.07291  0.40425  1.0000
  Fe  Fe83      1.0  0.75166  0.05819  0.28282  1.0000
  S   S165      1.0  0.76121  0.02812  0.24996  1.0000
  Fe  Fe84      1.0  0.71907  0.09416  0.30814  1.0000
  S   S166      1.0  0.68368  0.10605  0.31321  1.0000
  S   S167      1.0  0.77944  0.07520  0.30750  1.0000
  S   S168      1.0  0.74467  0.11269  0.33370  1.0000
  Fe  Fe85      1.0  0.72486  0.35769  0.17367  1.0000
  S   S169      1.0  0.75418  0.37303  0.19590  1.0000
  H   H962      1.0  0.89498  0.32966  0.11141  1.0000
  Fe  Fe86      1.0  0.73131  0.38235  0.10762  1.0000
  S   S170      1.0  0.76079  0.39915  0.12611  1.0000
  S   S171      1.0  0.71568  0.38551  0.05623  1.0000
  Fe  Fe87      1.0  0.77083  0.36632  0.14733  1.0000
  S   S172      1.0  0.80589  0.35328  0.14118  1.0000
  Fe  Fe88      1.0  0.74166  0.40495  0.17359  1.0000
  S   S173      1.0  0.74413  0.43551  0.20712  1.0000
  S   S174      1.0  0.74257  0.34937  0.12599  1.0000
  S   S175      1.0  0.71126  0.38974  0.15401  1.0000
  Fe  Fe89      1.0  0.88229  0.18952  0.17587  1.0000
  S   S176      1.0  0.88499  0.21598  0.21323  1.0000
  S   S177      1.0  0.86890  0.15630  0.18954  1.0000
  Fe  Fe90      1.0  0.90248  0.21757  0.12088  1.0000
  S   S178      1.0  0.90584  0.24597  0.15565  1.0000
  S   S179      1.0  0.91698  0.22116  0.06859  1.0000
  Fe  Fe91      1.0  0.91890  0.22113  0.19269  1.0000
  S   S180      1.0  0.94688  0.22523  0.23048  1.0000
  Fe  Fe92      1.0  0.87207  0.23825  0.17290  1.0000
  S   S181      1.0  0.84134  0.25892  0.18476  1.0000
  S   S182      1.0  0.91687  0.19317  0.15735  1.0000
  S   S183      1.0  0.86799  0.21133  0.13621  1.0000
  C   C1193     1.0  0.90494  0.21915  0.02871  1.0000
  C   C1194     1.0  0.67348  0.12826  0.22238  1.0000
  C   C1195     1.0  0.88368  0.21233  0.02441  1.0000
  C   C1196     1.0  0.81337  0.40517  0.17490  1.0000
  H   H963      1.0  0.87402  0.20815  0.04582  1.0000
  H   H964      1.0  0.71773  0.43873  0.29327  1.0000
  C   C1197     1.0  0.97602  0.22572  0.23574  1.0000
  C   C1198     1.0  0.66462  0.43424  0.22225  1.0000
  C   C1199     1.0  0.70385  0.04819  0.47096  1.0000
  H   H965      1.0  0.75456  0.24726  0.10096  1.0000
  H   H966      1.0  0.77492  0.99368  0.32080  1.0000
  C   C1200     1.0  0.72645  0.38686  0.01504  1.0000
  C   C1201     1.0  0.83539  0.47298  0.09691  1.0000
  C   C1202     1.0  0.81326  0.47688  0.08984  1.0000
  C   C1203     1.0  0.98038  0.29712  0.24615  1.0000
  H   H967      1.0  0.75987  0.39048  0.02865  1.0000
  C   C1204     1.0  0.81520  0.32656  0.15178  1.0000
  C   C1205     1.0  0.83717  0.32038  0.14611  1.0000
  C   C1206     1.0  0.84537  0.29951  0.15506  1.0000
  C   C1207     1.0  0.83169  0.28472  0.17020  1.0000
  C   C1208     1.0  0.80963  0.29076  0.17516  1.0000
  C   C1209     1.0  0.80140  0.31153  0.16602  1.0000
  H   H968      1.0  0.84793  0.33193  0.13512  1.0000
  H   H969      1.0  0.86229  0.29495  0.15068  1.0000
  H   H970      1.0  0.79884  0.27934  0.18631  1.0000
  H   H971      1.0  0.78445  0.31601  0.17049  1.0000
  C   C1210     1.0  0.73911  0.46407  0.21517  1.0000
  C   C1211     1.0  0.71619  0.42258  0.28354  1.0000
  H   H972      1.0  0.71851  0.47080  0.17331  1.0000
  H   H973      1.0  0.76524  0.21582  0.13673  1.0000
  H   H974      1.0  0.72131  0.12084  0.16817  1.0000
  H   H975      1.0  0.67755  0.13375  0.06757  1.0000
  C   C1212     1.0  0.80501  0.14191  0.24518  1.0000
  C   C1213     1.0  0.82077  0.12542  0.23933  1.0000
  C   C1214     1.0  0.84048  0.13023  0.22313  1.0000
  C   C1215     1.0  0.84460  0.15144  0.21224  1.0000
  C   C1216     1.0  0.82896  0.16794  0.21855  1.0000
  C   C1217     1.0  0.80940  0.16320  0.23510  1.0000
  H   H976      1.0  0.81777  0.10899  0.24722  1.0000
  H   H977      1.0  0.85256  0.11741  0.21860  1.0000
  H   H978      1.0  0.83186  0.18429  0.21021  1.0000
  H   H979      1.0  0.79743  0.17610  0.23964  1.0000
  C   C1218     1.0  0.77288  0.07719  0.47195  1.0000
  C   C1219     1.0  0.76094  0.08332  0.44359  1.0000
  C   C1220     1.0  0.74244  0.09696  0.44749  1.0000
  H   H980      1.0  0.78724  0.06667  0.46933  1.0000
  H   H981      1.0  0.73315  0.10195  0.42600  1.0000
  C   C1221     1.0  0.67482  0.13325  0.30506  1.0000
  C   C1222     1.0  0.80094  0.42159  0.19049  1.0000
  H   H982      1.0  0.79495  0.41926  0.21550  1.0000
  H   H983      1.0  0.83648  0.27083  0.10391  1.0000
  H   H984      1.0  0.70544  0.14328  0.28534  1.0000
  C   C1223     1.0  0.67994  0.43527  0.19644  1.0000
  H   H985      1.0  0.78469  0.35592  0.06391  1.0000
  C   C1224     1.0  0.75361  0.00206  0.23416  1.0000
  C   C1225     1.0  0.68871  0.14815  0.29064  1.0000
  C   C1226     1.0  0.74234  0.33004  0.02780  1.0000
  H   H986      1.0  0.92269  0.29943  0.11734  1.0000
  H   H987      1.0  0.81112  0.31603  0.25916  1.0000
  H   H988      1.0  0.71226  0.22029  0.15097  1.0000
  C   C1227     1.0  0.87456  0.31167  0.07919  1.0000
  H   H989      1.0  0.94596  0.27012  0.23011  1.0000
  H   H990      1.0  0.97337  0.22946  0.28860  1.0000
  H   H991      1.0  0.91770  0.26479  0.08894  1.0000
  H   H992      1.0  0.72619  0.16732  0.11889  1.0000
  H   H993      1.0  0.67715  0.47618  0.22721  1.0000
  C   C1228     1.0  0.68866  0.06265  0.48606  1.0000
  H   H994      1.0  0.75692  0.17676  0.23083  1.0000
  C   C1229     1.0  0.70020  0.23102  0.25971  1.0000
  C   C1230     1.0  0.79629  0.34278  0.05821  1.0000
  H   H995      1.0  0.75024  0.12510  0.20991  1.0000
  H   H996      1.0  0.81258  0.48431  0.17588  1.0000
  H   H997      1.0  0.80368  0.28870  0.07088  1.0000
  C   C1231     1.0  0.77977  0.23871  0.25654  1.0000
  C   C1232     1.0  0.71049  0.05148  0.43821  1.0000
  H   H998      1.0  0.78084  0.16540  0.18386  1.0000
  C   C1233     1.0  0.98375  0.29349  0.21218  1.0000
  C   C1234     1.0  0.69656  0.39585  0.25315  1.0000
  H   H999      1.0  0.88473  0.25901  0.05682  1.0000
  H   H1000     1.0  0.97251  0.39036  0.14772  1.0000
  H   H1001     1.0  0.72070  0.11335  0.48212  1.0000
  C   C1235     1.0  0.76363  0.16868  0.17993  1.0000
  H   H1002     1.0  0.95120  0.36657  0.11187  1.0000
  H   H1003     1.0  0.94705  0.32810  0.12670  1.0000
  C   C1236     1.0  0.74704  0.15455  0.47098  1.0000
  C   C1237     1.0  0.77812  0.32869  0.25593  1.0000
  C   C1238     1.0  0.74958  0.45460  0.11101  1.0000
  H   H1004     1.0  0.88329  0.26488  0.00127  1.0000
  C   C1239     1.0  0.90855  0.29759  0.10204  1.0000
  P   P40       1.0  0.79244  0.46677  0.11687  1.0000
  C   C1240     1.0  0.95643  0.33821  0.14260  1.0000
  C   C1241     1.0  0.89711  0.30626  0.20021  1.0000
  C   C1242     1.0  0.89370  0.28860  0.22116  1.0000
  C   C1243     1.0  0.91143  0.27583  0.23219  1.0000
  H   H1005     1.0  0.98970  0.37543  0.19867  1.0000
  C   C1244     1.0  0.93611  0.29784  0.20008  1.0000
  C   C1245     1.0  0.91818  0.31080  0.18952  1.0000
  P   P41       1.0  0.96300  0.30134  0.18258  1.0000
  C   C1246     1.0  0.68152  0.17973  0.43783  1.0000
  C   C1247     1.0  0.96580  0.28348  0.14729  1.0000
  H   H1006     1.0  0.66191  0.39170  0.29112  1.0000
  H   H1007     1.0  0.71675  0.44379  0.10749  1.0000
  H   H1008     1.0  0.75843  0.46341  0.25945  1.0000
  C   C1248     1.0  0.95956  0.24849  0.12221  1.0000
  C   C1249     1.0  0.95859  0.26217  0.14967  1.0000
  H   H1009     1.0  0.72366  0.99974  0.26154  1.0000
  H   H1010     1.0  0.96839  0.24522  0.07090  1.0000
  H   H1011     1.0  0.72267  0.04066  0.42694  1.0000
  C   C1250     1.0  0.68038  0.47908  0.25303  1.0000
  H   H1012     1.0  0.76540  0.16079  0.12823  1.0000
  C   C1251     1.0  0.68021  0.46216  0.27640  1.0000
  C   C1252     1.0  0.91725  0.22444  0.00045  1.0000
  H   H1013     1.0  0.88332  0.31616  0.19178  1.0000
  H   H1014     1.0  0.87729  0.28461  0.22847  1.0000
  C   C1253     1.0  0.69715  0.41650  0.26757  1.0000
  H   H1015     1.0  0.81720  0.39008  0.18783  1.0000
  H   H1016     1.0  0.92024  0.32423  0.17274  1.0000
  C   C1254     1.0  0.68475  0.17484  0.40437  1.0000
  H   H1017     1.0  0.85882  0.20475  0.98920  1.0000
  C   C1255     1.0  0.88704  0.27483  0.06747  1.0000
  H   H1018     1.0  0.95342  0.23222  0.12404  1.0000
  H   H1019     1.0  0.95214  0.25599  0.17270  1.0000
  C   C1256     1.0  0.98450  0.22812  0.26782  1.0000
  C   C1257     1.0  0.69741  0.22442  0.16441  1.0000
  H   H1020     1.0  0.70285  0.14358  0.20909  1.0000
  H   H1021     1.0  0.83838  0.24652  0.00414  1.0000
  C   C1258     1.0  0.79524  0.00557  0.11564  1.0000
  H   H1022     1.0  0.67060  0.17508  0.35588  1.0000
  H   H1023     1.0  0.75558  0.43687  0.01937  1.0000
  H   H1024     1.0  0.69481  0.17661  0.45477  1.0000
  C   C1259     1.0  0.67736  0.15025  0.07674  1.0000
  C   C1260     1.0  0.75634  0.32362  0.25207  1.0000
  C   C1261     1.0  0.69212  0.24627  0.17079  1.0000
  C   C1262     1.0  0.83853  0.20497  0.39473  1.0000
  C   C1263     1.0  0.83164  0.22661  0.39031  1.0000
  C   C1264     1.0  0.80956  0.23189  0.38598  1.0000
  C   C1265     1.0  0.79435  0.21553  0.38588  1.0000
  C   C1266     1.0  0.80115  0.19366  0.38972  1.0000
  C   C1267     1.0  0.82339  0.18858  0.39460  1.0000
  P   P42       1.0  0.78186  0.17209  0.38869  1.0000
  C   C1268     1.0  0.77428  0.16502  0.43058  1.0000
  C   C1269     1.0  0.75804  0.18072  0.36527  1.0000
  C   C1270     1.0  0.74281  0.19580  0.37882  1.0000
  C   C1271     1.0  0.72450  0.20271  0.36077  1.0000
  C   C1272     1.0  0.72111  0.19447  0.32921  1.0000
  C   C1273     1.0  0.73607  0.17937  0.31561  1.0000
  C   C1274     1.0  0.75442  0.17246  0.33356  1.0000
  C   C1275     1.0  0.75273  0.16000  0.43851  1.0000
  H   H1025     1.0  0.76408  0.00716  0.14043  1.0000
  C   C1276     1.0  0.97631  0.27663  0.09006  1.0000
  C   C1277     1.0  0.68342  0.20811  0.17487  1.0000
  C   C1278     1.0  0.67629  0.19279  0.10066  1.0000
  C   C1279     1.0  0.79558  0.14907  0.36910  1.0000
  C   C1280     1.0  0.79402  0.12804  0.38226  1.0000
  C   C1281     1.0  0.80583  0.11067  0.36786  1.0000
  C   C1282     1.0  0.81901  0.11405  0.34018  1.0000
  C   C1283     1.0  0.82059  0.13487  0.32693  1.0000
  C   C1284     1.0  0.80881  0.15228  0.34111  1.0000
  C   C1285     1.0  0.97073  0.37344  0.15428  1.0000
  H   H1026     1.0  0.84342  0.23929  0.39028  1.0000
  H   H1027     1.0  0.80424  0.24869  0.38260  1.0000
  H   H1028     1.0  0.77745  0.22015  0.38228  1.0000
  H   H1029     1.0  0.82912  0.17190  0.39801  1.0000
  H   H1030     1.0  0.74505  0.20216  0.40345  1.0000
  H   H1031     1.0  0.71270  0.21422  0.37140  1.0000
  H   H1032     1.0  0.70671  0.19958  0.31555  1.0000
  H   H1033     1.0  0.73335  0.17268  0.29132  1.0000
  H   H1034     1.0  0.76555  0.16053  0.32261  1.0000
  H   H1035     1.0  0.74035  0.15980  0.41967  1.0000
  C   C1286     1.0  0.81426  0.01652  0.10845  1.0000
  C   C1287     1.0  0.75389  0.44218  0.04482  1.0000
  C   C1288     1.0  0.67287  0.25200  0.18762  1.0000
  H   H1036     1.0  0.78377  0.12488  0.40355  1.0000
  H   H1037     1.0  0.80472  0.09448  0.37812  1.0000
  H   H1038     1.0  0.82787  0.10048  0.32887  1.0000
  H   H1039     1.0  0.83077  0.13750  0.30540  1.0000
  H   H1040     1.0  0.81009  0.16823  0.33019  1.0000
  C   C1289     1.0  0.71419  0.38110  0.25632  1.0000
  H   H1041     1.0  0.90890  0.26189  0.24807  1.0000
  H   H1042     1.0  0.74671  0.37581  0.27483  1.0000
  C   C1290     1.0  0.73307  0.25177  0.25913  1.0000
  C   C1291     1.0  0.79984  0.23619  0.23997  1.0000
  H   H1043     1.0  0.80301  0.24532  0.21763  1.0000
  H   H1044     1.0  0.76695  0.22009  0.19713  1.0000
  H   H1045     1.0  0.68177  0.11582  0.23719  1.0000
  H   H1046     1.0  0.73370  0.29859  0.24444  1.0000
  H   H1047     1.0  0.82894  0.39466  0.12969  1.0000
  H   H1048     1.0  0.72609  0.27794  0.02875  1.0000
  H   H1049     1.0  0.98336  0.28209  0.06698  1.0000
  H   H1050     1.0  0.71342  0.36513  0.24541  1.0000
  C   C1292     1.0  0.75061  0.30203  0.24859  1.0000
  C   C1293     1.0  0.76744  0.99117  0.21112  1.0000
  C   C1294     1.0  0.73403  0.44003  0.06132  1.0000
  H   H1051     1.0  0.98484  0.22218  0.18444  1.0000
  H   H1052     1.0  0.74655  0.28759  0.18633  1.0000
  C   C1295     1.0  0.97814  0.34321  0.19154  1.0000
  H   H1053     1.0  0.74385  0.33641  0.25073  1.0000
  P   P43       1.0  0.68987  0.18014  0.16425  1.0000
  H   H1054     1.0  0.71748  0.18358  0.22204  1.0000
  C   C1296     1.0  0.79416  0.31210  0.25683  1.0000
  C   C1297     1.0  0.74065  0.09881  0.13799  1.0000
  C   C1298     1.0  0.73684  0.11226  0.16526  1.0000
  C   C1299     1.0  0.75310  0.11458  0.18880  1.0000
  C   C1300     1.0  0.77304  0.10314  0.18551  1.0000
  C   C1301     1.0  0.77677  0.08919  0.15860  1.0000
  C   C1302     1.0  0.76065  0.08752  0.13443  1.0000
  P   P44       1.0  0.80290  0.07554  0.15269  1.0000
  C   C1303     1.0  0.81798  0.09332  0.12613  1.0000
  C   C1304     1.0  0.81638  0.07068  0.19162  1.0000
  C   C1305     1.0  0.83865  0.07440  0.19533  1.0000
  C   C1306     1.0  0.84912  0.06910  0.22506  1.0000
  C   C1307     1.0  0.83763  0.05941  0.25082  1.0000
  C   C1308     1.0  0.81567  0.05505  0.24686  1.0000
  C   C1309     1.0  0.80502  0.06090  0.21756  1.0000
  C   C1310     1.0  0.82615  0.11242  0.13919  1.0000
  C   C1311     1.0  0.83799  0.12639  0.11921  1.0000
  C   C1312     1.0  0.84121  0.12173  0.08573  1.0000
  C   C1313     1.0  0.83230  0.10323  0.07214  1.0000
  C   C1314     1.0  0.82054  0.08914  0.09219  1.0000
  C   C1315     1.0  0.79953  0.04854  0.13678  1.0000
  C   C1316     1.0  0.81652  0.03784  0.11931  1.0000
  H   H1055     1.0  0.93371  0.22971  0.00339  1.0000
  H   H1056     1.0  0.68522  0.43510  0.14377  1.0000
  H   H1057     1.0  0.86620  0.07236  0.22800  1.0000
  C   C1317     1.0  0.78076  0.03716  0.14483  1.0000
  H   H1058     1.0  0.72807  0.09702  0.11970  1.0000
  C   C1318     1.0  0.79527  0.44067  0.17333  1.0000
  H   H1059     1.0  0.67658  0.23928  0.29755  1.0000
  H   H1060     1.0  0.78541  0.10517  0.20404  1.0000
  H   H1061     1.0  0.76348  0.07735  0.11295  1.0000
  H   H1062     1.0  0.84808  0.08121  0.17538  1.0000
  C   C1319     1.0  0.85482  0.28638  0.99506  1.0000
  C   C1320     1.0  0.67104  0.16749  0.05597  1.0000
  H   H1063     1.0  0.80684  0.04692  0.26633  1.0000
  H   H1064     1.0  0.78799  0.05738  0.21491  1.0000
  H   H1065     1.0  0.82352  0.11645  0.16496  1.0000
  H   H1066     1.0  0.84483  0.14076  0.12986  1.0000
  H   H1067     1.0  0.85056  0.13251  0.07034  1.0000
  H   H1068     1.0  0.83457  0.09981  0.04606  1.0000
  H   H1069     1.0  0.81341  0.07517  0.08109  1.0000
  H   H1070     1.0  0.83166  0.04581  0.11457  1.0000
  H   H1071     1.0  0.78705  0.45136  0.04846  1.0000
  C   C1321     1.0  0.75012  0.17510  0.20632  1.0000
  C   C1322     1.0  0.73393  0.29240  0.02014  1.0000
  H   H1072     1.0  0.76799  0.04445  0.16020  1.0000
  H   H1073     1.0  0.72595  0.22652  0.22421  1.0000
  C   C1323     1.0  0.81615  0.22210  0.25231  1.0000
  H   H1074     1.0  0.85567  0.20087  0.39816  1.0000
  H   H1075     1.0  0.72046  0.43306  0.04866  1.0000
  C   C1324     1.0  0.76114  0.23145  0.14768  1.0000
  C   C1325     1.0  0.75509  0.24912  0.12756  1.0000
  C   C1326     1.0  0.74981  0.26925  0.14178  1.0000
  C   C1327     1.0  0.75080  0.27181  0.17606  1.0000
  C   C1328     1.0  0.75746  0.25430  0.19642  1.0000
  C   C1329     1.0  0.76219  0.23397  0.18198  1.0000
  P   P45       1.0  0.75914  0.25758  0.24078  1.0000
  C   C1330     1.0  0.76661  0.28521  0.24902  1.0000
  C   C1331     1.0  0.78847  0.29045  0.25356  1.0000
  H   H1076     1.0  0.81864  0.42815  0.09886  1.0000
  C   C1332     1.0  0.68059  0.16892  0.28129  1.0000
  H   H1077     1.0  0.80136  0.27810  0.25353  1.0000
  C   C1333     1.0  0.81563  0.34702  0.04146  1.0000
  C   C1334     1.0  0.90567  0.27791  0.08617  1.0000
  H   H1078     1.0  0.72451  0.31131  0.06308  1.0000
  H   H1079     1.0  0.73521  0.27505  0.29891  1.0000
  C   C1335     1.0  0.68275  0.17554  0.12166  1.0000
  H   H1080     1.0  0.84030  0.46364  0.11852  1.0000
  C   C1336     1.0  0.70518  0.25844  0.30121  1.0000
  C   C1337     1.0  0.72554  0.26285  0.28751  1.0000
  C   C1338     1.0  0.67325  0.43461  0.16352  1.0000
  C   C1339     1.0  0.72781  0.17879  0.20131  1.0000
  C   C1340     1.0  0.73396  0.40790  0.28619  1.0000
  H   H1081     1.0  0.78259  0.34549  0.25762  1.0000
  H   H1082     1.0  0.69907  0.26748  0.32245  1.0000
  C   C1341     1.0  0.68568  0.32230  0.22229  1.0000
  C   C1342     1.0  0.73287  0.38709  0.27294  1.0000
  C   C1343     1.0  0.73191  0.44615  0.09444  1.0000
  C   C1344     1.0  0.87144  0.29179  0.06328  1.0000
  H   H1083     1.0  0.69119  0.17995  0.26882  1.0000
  C   C1345     1.0  0.80216  0.44357  0.14049  1.0000
  C   C1346     1.0  0.76943  0.45729  0.09441  1.0000
  C   C1347     1.0  0.75487  0.16600  0.14851  1.0000
  C   C1348     1.0  0.79221  0.21189  0.29704  1.0000
  C   C1349     1.0  0.81423  0.42680  0.12474  1.0000
  C   C1350     1.0  0.77600  0.22633  0.28515  1.0000
  H   H1084     1.0  0.74874  0.41284  0.29797  1.0000
  C   C1351     1.0  0.65877  0.17536  0.28743  1.0000
  C   C1352     1.0  0.69248  0.24259  0.28722  1.0000
  C   C1353     1.0  0.82004  0.40780  0.14205  1.0000
  C   C1354     1.0  0.73455  0.99184  0.24386  1.0000
  C   C1355     1.0  0.83442  0.24469  0.03008  1.0000
  C   C1356     1.0  0.72039  0.23557  0.24566  1.0000
  H   H1085     1.0  0.96516  0.30431  0.25516  1.0000
  H   H1086     1.0  0.69031  0.21869  0.24914  1.0000
  H   H1087     1.0  0.80699  0.16666  0.44983  1.0000
  C   C1357     1.0  0.83087  0.33014  0.03502  1.0000
  C   C1358     1.0  0.68315  0.15423  0.10947  1.0000
  C   C1359     1.0  0.66917  0.33795  0.22886  1.0000
  H   H1088     1.0  0.78915  0.20216  0.31874  1.0000
  H   H1089     1.0  0.81887  0.36348  0.03392  1.0000
  C   C1360     1.0  0.73255  0.16956  0.14343  1.0000
  H   H1090     1.0  0.73042  0.15075  0.47708  1.0000
  S   S184      1.0  0.70980  0.32819  0.19939  1.0000
  H   H1091     1.0  0.69711  0.43641  0.20181  1.0000
  C   C1361     1.0  0.81236  0.20994  0.28087  1.0000
  C   C1362     1.0  0.89298  0.31448  0.09864  1.0000
  H   H1092     1.0  0.76060  0.22768  0.29827  1.0000
  H   H1093     1.0  0.82494  0.19875  0.29004  1.0000
  H   H1094     1.0  0.83172  0.22060  0.23953  1.0000
  C   C1363     1.0  0.93251  0.28049  0.22182  1.0000
  H   H1095     1.0  0.77737  0.31856  0.08222  1.0000
  C   C1364     1.0  0.72619  0.47758  0.19466  1.0000
  C   C1365     1.0  0.67468  0.16060  0.18774  1.0000
  C   C1366     1.0  0.96810  0.25581  0.09227  1.0000
  C   C1367     1.0  0.80738  0.30477  0.06232  1.0000
  H   H1096     1.0  0.70286  0.25885  0.16266  1.0000
  C   C1368     1.0  0.79216  0.32167  0.06854  1.0000
  C   C1369     1.0  0.68308  0.30100  0.23419  1.0000
  C   C1370     1.0  0.96617  0.32955  0.17136  1.0000
  H   H1097     1.0  0.84576  0.05508  0.27372  1.0000
  H   H1098     1.0  0.78486  0.45276  0.18547  1.0000
  C   C1371     1.0  0.68539  0.14421  0.20641  1.0000
  C   C1372     1.0  0.83758  0.26162  0.05241  1.0000
  C   C1373     1.0  0.68673  0.08349  0.43478  1.0000
  C   C1374     1.0  0.97542  0.29035  0.11756  1.0000
  C   C1375     1.0  0.82706  0.30888  0.04585  1.0000
  H   H1099     1.0  0.67538  0.20934  0.10941  1.0000
  C   C1376     1.0  0.71882  0.17574  0.16993  1.0000
  H   H1100     1.0  0.70703  0.07159  0.39471  1.0000
  C   C1377     1.0  0.83355  0.25819  0.08620  1.0000
  C   C1378     1.0  0.73556  0.10362  0.47938  1.0000
  C   C1379     1.0  0.82246  0.22171  0.07505  1.0000
  H   H1101     1.0  0.69495  0.38361  0.99290  1.0000
  H   H1102     1.0  0.74800  0.45847  0.13703  1.0000
  P   P46       1.0  0.84750  0.28739  0.03863  1.0000
  C   C1380     1.0  0.65914  0.23590  0.19871  1.0000
  C   C1381     1.0  0.82573  0.23845  0.09742  1.0000
  H   H1103     1.0  0.74097  0.34478  0.04231  1.0000
  H   H1104     1.0  0.82282  0.23602  0.12366  1.0000
  C   C1382     1.0  0.66435  0.21405  0.19240  1.0000
  H   H1105     1.0  0.68781  0.14067  0.12539  1.0000
  H   H1106     1.0  0.69569  0.28872  0.22946  1.0000
  C   C1383     1.0  0.73298  0.31115  0.03946  1.0000
  C   C1384     1.0  0.77856  0.01586  0.13397  1.0000
  H   H1107     1.0  0.81708  0.20617  0.08393  1.0000
  H   H1108     1.0  0.74507  0.28302  0.12633  1.0000
  C   C1385     1.0  0.82680  0.22483  0.04140  1.0000
  C   C1386     1.0  0.74849  0.47351  0.24317  1.0000
  C   C1387     1.0  0.74860  0.38943  0.00837  1.0000
  C   C1388     1.0  0.79016  0.16357  0.45539  1.0000
  H   H1109     1.0  0.70020  0.16787  0.39583  1.0000
  H   H1110     1.0  0.67079  0.35434  0.21982  1.0000
  C   C1389     1.0  0.77162  0.45058  0.06135  1.0000
  C   C1390     1.0  0.75288  0.33019  0.99704  1.0000
  H   H1111     1.0  0.84584  0.33369  0.02210  1.0000
  C   C1391     1.0  0.99086  0.22403  0.20928  1.0000
  C   C1392     1.0  0.66127  0.18826  0.44906  1.0000
  C   C1393     1.0  0.95873  0.36003  0.13411  1.0000
  C   C1394     1.0  0.85141  0.48142  0.07627  1.0000
  H   H1112     1.0  0.82485  0.21166  0.02416  1.0000
  C   C1395     1.0  0.74444  0.29251  0.98930  1.0000
  H   H1113     1.0  0.86265  0.32488  0.07760  1.0000
  C   C1396     1.0  0.70176  0.06898  0.42003  1.0000
  H   H1114     1.0  0.98576  0.33716  0.21395  1.0000
  H   H1115     1.0  0.98232  0.30619  0.11549  1.0000
  C   C1397     1.0  0.67049  0.18873  0.06793  1.0000
  H   H1116     1.0  0.68448  0.45389  0.32812  1.0000
  H   H1117     1.0  0.68240  0.39107  0.23956  1.0000
  H   H1118     1.0  0.66882  0.09206  0.47853  1.0000
  C   C1398     1.0  0.98041  0.36503  0.18298  1.0000
  P   P47       1.0  0.67368  0.43491  0.26457  1.0000
  H   H1119     1.0  0.79835  0.99412  0.27096  1.0000
  C   C1399     1.0  0.68465  0.46669  0.30965  1.0000
  H   H1120     1.0  0.68025  0.09721  0.42064  1.0000
  C   C1400     1.0  0.66799  0.17876  0.38178  1.0000
  H   H1121     1.0  0.66239  0.27880  0.26046  1.0000
  H   H1122     1.0  0.66636  0.16437  0.03069  1.0000
  C   C1401     1.0  0.68028  0.08045  0.46770  1.0000
  C   C1402     1.0  0.66416  0.29528  0.25181  1.0000
  H   H1123     1.0  0.86847  0.47832  0.08177  1.0000
  C   C1403     1.0  0.87509  0.21046  0.99227  1.0000
  H   H1124     1.0  0.66533  0.20207  0.05193  1.0000
  H   H1125     1.0  0.66856  0.26891  0.19221  1.0000
  H   H1126     1.0  0.78231  0.99865  0.20342  1.0000
  H   H1127     1.0  0.82736  0.00834  0.09484  1.0000
  C   C1404     1.0  0.78450  0.15747  0.48761  1.0000
  H   H1128     1.0  0.67014  0.02176  0.48265  1.0000
  C   C1405     1.0  0.78503  0.48938  0.14332  1.0000
  C   C1406     1.0  0.68977  0.48768  0.31918  1.0000
  H   H1129     1.0  0.71063  0.03437  0.48449  1.0000
  C   C1407     1.0  0.80742  0.49006  0.06269  1.0000
  Fe  Fe93      1.0  0.74895  0.10094  0.60101  1.0000
  S   S185      1.0  0.72313  0.09128  0.63782  1.0000
  S   S186      1.0  0.73795  0.10672  0.54721  1.0000
  Fe  Fe94      1.0  0.78097  0.11011  0.65722  1.0000
  S   S187      1.0  0.75736  0.10056  0.69691  1.0000
  S   S188      1.0  0.81443  0.12389  0.66735  1.0000
  Fe  Fe95      1.0  0.74981  0.07196  0.66449  1.0000
  S   S189      1.0  0.73922  0.03856  0.68531  1.0000
  Fe  Fe96      1.0  0.73269  0.12013  0.66727  1.0000
  S   S190      1.0  0.71109  0.14504  0.69470  1.0000
  S   S191      1.0  0.77528  0.08023  0.62588  1.0000
  S   S192      1.0  0.75669  0.13105  0.62937  1.0000
  Fe  Fe97      1.0  0.70811  0.37074  0.80285  1.0000
  S   S193      1.0  0.72691  0.38305  0.75949  1.0000
  S   S194      1.0  0.67795  0.35005  0.79941  1.0000
  Fe  Fe98      1.0  0.73997  0.38904  0.85372  1.0000
  S   S195      1.0  0.76156  0.40207  0.81293  1.0000
  S   S196      1.0  0.75227  0.39234  0.90726  1.0000
  Fe  Fe99      1.0  0.73056  0.41419  0.78812  1.0000
  S   S197      1.0  0.72244  0.44917  0.76875  1.0000
  Fe  Fe100     1.0  0.75648  0.37019  0.78726  1.0000
  S   S198      1.0  0.78037  0.34739  0.75965  1.0000
  S   S199      1.0  0.70920  0.40259  0.83030  1.0000
  S   S200      1.0  0.73743  0.35650  0.82925  1.0000
  Fe  Fe101     1.0  0.91220  0.22930  0.80677  1.0000
  S   S201      1.0  0.89595  0.19950  0.82802  1.0000
  S   S202      1.0  0.94919  0.22744  0.79300  1.0000
  Fe  Fe102     1.0  0.87167  0.25872  0.82221  1.0000
  S   S203      1.0  0.85398  0.23084  0.84312  1.0000
  S   S204      1.0  0.85469  0.29145  0.83364  1.0000
  Fe  Fe103     1.0  0.88450  0.22119  0.87023  1.0000
  S   S205      1.0  0.87552  0.21260  0.92415  1.0000
  Fe  Fe104     1.0  0.86628  0.21141  0.79956  1.0000
  S   S206      1.0  0.83755  0.19254  0.77940  1.0000
  S   S207      1.0  0.90208  0.25005  0.85097  1.0000
  S   S208      1.0  0.88267  0.24028  0.77643  1.0000
  C   C1408     1.0  0.74998  0.08131  0.85520  1.0000
  C   C1409     1.0  0.96542  0.23664  0.72909  1.0000
  C   C1410     1.0  0.97006  0.23114  0.76205  1.0000
  C   C1411     1.0  0.84165  0.29713  0.97140  1.0000
  C   C1412     1.0  0.69729  0.19483  0.52348  1.0000
  H   H1130     1.0  0.94866  0.23892  0.72156  1.0000
  H   H1131     1.0  0.72727  0.04635  0.75324  1.0000
  C   C1413     1.0  0.80011  0.33091  0.78080  1.0000
  C   C1414     1.0  0.80387  0.33358  0.81453  1.0000
  C   C1415     1.0  0.82041  0.32112  0.83042  1.0000
  C   C1416     1.0  0.83306  0.30551  0.81291  1.0000
  C   C1417     1.0  0.82890  0.30238  0.77936  1.0000
  C   C1418     1.0  0.81258  0.31511  0.76336  1.0000
  H   H1132     1.0  0.79444  0.34573  0.82804  1.0000
  H   H1133     1.0  0.82366  0.32385  0.85630  1.0000
  H   H1134     1.0  0.83881  0.29073  0.76548  1.0000
  H   H1135     1.0  0.80997  0.31302  0.73723  1.0000
  H   H1136     1.0  0.94341  0.18739  0.73704  1.0000
  C   C1419     1.0  0.97700  0.17876  0.74651  1.0000
  H   H1137     1.0  0.75993  0.45837  0.72470  1.0000
  C   C1420     1.0  0.90858  0.22272  0.96831  1.0000
  C   C1421     1.0  0.88742  0.21561  0.96397  1.0000
  H   H1138     1.0  0.71388  0.37215  0.65541  1.0000
  H   H1139     1.0  0.91836  0.22663  0.94688  1.0000
  H   H1140     1.0  0.81836  0.26908  0.86711  1.0000
  C   C1422     1.0  0.71966  0.38697  0.95511  1.0000
  C   C1423     1.0  0.74174  0.38984  0.94841  1.0000
  H   H1141     1.0  0.69072  0.10458  0.72868  1.0000
  H   H1142     1.0  0.70835  0.38610  0.93485  1.0000
  C   C1424     1.0  0.68236  0.48211  0.65904  1.0000
  H   H1143     1.0  0.73049  0.44309  0.63415  1.0000
  H   H1144     1.0  0.73308  0.48260  0.62516  1.0000
  H   H1145     1.0  0.69451  0.34592  0.73118  1.0000
  H   H1146     1.0  0.69709  0.06469  0.72370  1.0000
  C   C1425     1.0  0.82061  0.14290  0.69875  1.0000
  C   C1426     1.0  0.80489  0.15070  0.72136  1.0000
  C   C1427     1.0  0.81048  0.16573  0.74585  1.0000
  C   C1428     1.0  0.83182  0.17319  0.74823  1.0000
  C   C1429     1.0  0.84759  0.16519  0.72588  1.0000
  C   C1430     1.0  0.84198  0.15021  0.70128  1.0000
  H   H1147     1.0  0.78844  0.14512  0.71996  1.0000
  H   H1148     1.0  0.79818  0.17161  0.76316  1.0000
  H   H1149     1.0  0.86409  0.17058  0.72748  1.0000
  H   H1150     1.0  0.85431  0.14421  0.68409  1.0000
  C   C1431     1.0  0.68946  0.15981  0.67532  1.0000
  H   H1151     1.0  0.77324  0.39318  0.97047  1.0000
  H   H1152     1.0  0.68935  0.43893  0.72649  1.0000
  H   H1153     1.0  0.75869  0.14774  0.52020  1.0000
  C   C1432     1.0  0.71842  0.47610  0.63580  1.0000
  C   C1433     1.0  0.72183  0.29754  0.86664  1.0000
  H   H1154     1.0  0.69661  0.14809  0.62636  1.0000
  C   C1434     1.0  0.74728  0.01240  0.70231  1.0000
  C   C1435     1.0  0.78374  0.33473  0.93142  1.0000
  C   C1436     1.0  0.76127  0.48791  0.80280  1.0000
  C   C1437     1.0  0.76889  0.00433  0.70208  1.0000
  C   C1438     1.0  0.73795  0.07550  0.77702  1.0000
  H   H1155     1.0  0.70051  0.34669  0.89066  1.0000
  H   H1156     1.0  0.78143  0.01386  0.69090  1.0000
  H   H1157     1.0  0.68526  0.27364  0.81782  1.0000
  H   H1158     1.0  0.71640  0.40070  0.60209  1.0000
  C   C1439     1.0  0.75613  0.39101  0.97531  1.0000
  H   H1159     1.0  0.77585  0.07966  0.52520  1.0000
  H   H1160     1.0  0.69975  0.28757  0.64460  1.0000
  C   C1440     1.0  0.78652  0.05663  0.73724  1.0000
  C   C1441     1.0  0.80255  0.06173  0.71408  1.0000
  C   C1442     1.0  0.81561  0.07946  0.71932  1.0000
  C   C1443     1.0  0.81241  0.09228  0.74745  1.0000
  H   H1161     1.0  0.77599  0.04337  0.73237  1.0000
  H   H1162     1.0  0.80447  0.05227  0.69168  1.0000
  H   H1163     1.0  0.82776  0.08370  0.70105  1.0000
  H   H1164     1.0  0.76719  0.27072  0.80228  1.0000
  C   C1444     1.0  0.73507  0.21903  0.65547  1.0000
  C   C1445     1.0  0.73616  0.19641  0.65811  1.0000
  C   C1446     1.0  0.75387  0.18606  0.67371  1.0000
  C   C1447     1.0  0.77044  0.19828  0.68677  1.0000
  C   C1448     1.0  0.76923  0.22104  0.68501  1.0000
  C   C1449     1.0  0.75146  0.23137  0.66901  1.0000
  P   P48       1.0  0.79115  0.23633  0.70163  1.0000
  C   C1450     1.0  0.78808  0.26477  0.69096  1.0000
  C   C1451     1.0  0.79187  0.23503  0.74627  1.0000
  C   C1452     1.0  0.80405  0.25010  0.76349  1.0000
  C   C1453     1.0  0.80648  0.24839  0.79770  1.0000
  C   C1454     1.0  0.79634  0.23192  0.81520  1.0000
  C   C1455     1.0  0.78362  0.21725  0.79843  1.0000
  C   C1456     1.0  0.78139  0.21875  0.76407  1.0000
  C   C1457     1.0  0.80266  0.27461  0.66913  1.0000
  C   C1458     1.0  0.80099  0.29701  0.66330  1.0000
  C   C1459     1.0  0.77175  0.27762  0.70656  1.0000
  C   C1460     1.0  0.81634  0.22487  0.68478  1.0000
  C   C1461     1.0  0.81686  0.21643  0.65256  1.0000
  C   C1462     1.0  0.83599  0.20663  0.63985  1.0000
  C   C1463     1.0  0.85481  0.20543  0.65901  1.0000
  C   C1464     1.0  0.85454  0.21413  0.69083  1.0000
  C   C1465     1.0  0.83541  0.22374  0.70374  1.0000
  H   H1165     1.0  0.72146  0.22698  0.64300  1.0000
  H   H1166     1.0  0.72333  0.18685  0.64804  1.0000
  H   H1167     1.0  0.75473  0.16850  0.67579  1.0000
  H   H1168     1.0  0.78431  0.18996  0.69815  1.0000
  H   H1169     1.0  0.75020  0.24884  0.66662  1.0000
  H   H1170     1.0  0.81242  0.26269  0.75029  1.0000
  H   H1171     1.0  0.81673  0.25956  0.81038  1.0000
  H   H1172     1.0  0.79886  0.23018  0.84159  1.0000
  H   H1173     1.0  0.77626  0.20413  0.81188  1.0000
  H   H1174     1.0  0.77205  0.20679  0.75165  1.0000
  H   H1175     1.0  0.81561  0.26518  0.65714  1.0000
  H   H1176     1.0  0.76050  0.27036  0.72364  1.0000
  H   H1177     1.0  0.80239  0.21702  0.63744  1.0000
  H   H1178     1.0  0.83613  0.19958  0.61536  1.0000
  H   H1179     1.0  0.86951  0.19745  0.64946  1.0000
  H   H1180     1.0  0.86897  0.21283  0.70606  1.0000
  H   H1181     1.0  0.83561  0.22965  0.72884  1.0000
  C   C1466     1.0  0.78391  0.34591  0.90113  1.0000
  H   H1182     1.0  0.73250  0.34453  0.92718  1.0000
  C   C1467     1.0  0.71321  0.18068  0.78092  1.0000
  C   C1468     1.0  0.72271  0.19041  0.75339  1.0000
  C   C1469     1.0  0.71774  0.21218  0.74592  1.0000
  C   C1470     1.0  0.75181  0.27673  0.79246  1.0000
  H   H1183     1.0  0.71687  0.16372  0.78630  1.0000
  H   H1184     1.0  0.73355  0.18088  0.73743  1.0000
  H   H1185     1.0  0.72512  0.21945  0.72441  1.0000
  H   H1186     1.0  0.74021  0.24497  0.78279  1.0000
  H   H1187     1.0  0.82202  0.10653  0.75070  1.0000
  C   C1471     1.0  0.71488  0.16373  0.55033  1.0000
  H   H1188     1.0  0.94403  0.28133  0.77236  1.0000
  C   C1472     1.0  0.79829  0.34043  0.95621  1.0000
  C   C1473     1.0  0.72294  0.05248  0.54643  1.0000
  C   C1474     1.0  0.65872  0.03743  0.52777  1.0000
  C   C1475     1.0  0.76716  0.07294  0.83548  1.0000
  H   H1189     1.0  0.75937  0.47074  0.80758  1.0000
  C   C1476     1.0  0.66905  0.41883  0.75602  1.0000
  H   H1190     1.0  0.97854  0.24362  0.68051  1.0000
  H   H1191     1.0  0.96064  0.27832  0.82769  1.0000
  C   C1477     1.0  0.70134  0.04765  0.55406  1.0000
  H   H1192     1.0  0.67003  0.42909  0.77761  1.0000
  H   H1193     1.0  0.96699  0.28869  0.72318  1.0000
  H   H1194     1.0  0.74437  0.27812  0.97406  1.0000
  C   C1478     1.0  0.97071  0.28208  0.80643  1.0000
  C   C1479     1.0  0.66839  0.39145  0.70116  1.0000
  H   H1195     1.0  0.82365  0.36178  0.97021  1.0000
  C   C1480     1.0  0.67020  0.27027  0.80554  1.0000
  C   C1481     1.0  0.71390  0.03000  0.60478  1.0000
  C   C1482     1.0  0.69693  0.03642  0.58359  1.0000
  C   C1483     1.0  0.98084  0.17184  0.67843  1.0000
  H   H1196     1.0  0.86963  0.28329  0.90122  1.0000
  C   C1484     1.0  0.68570  0.15809  0.64141  1.0000
  C   C1485     1.0  0.71400  0.48916  0.73872  1.0000
  C   C1486     1.0  0.68013  0.33640  0.73367  1.0000
  H   H1197     1.0  0.67666  0.22290  0.70724  1.0000
  C   C1487     1.0  0.66857  0.11111  0.58659  1.0000
  H   H1198     1.0  0.78446  0.27499  0.97839  1.0000
  C   C1488     1.0  0.72958  0.33121  0.91057  1.0000
  C   C1489     1.0  0.71135  0.33242  0.89008  1.0000
  H   H1199     1.0  0.80996  0.24444  0.96545  1.0000
  H   H1200     1.0  0.66615  0.15022  0.51895  1.0000
  H   H1201     1.0  0.75641  0.05022  0.56175  1.0000
  H   H1202     1.0  0.71049  0.02169  0.62787  1.0000
  H   H1203     1.0  0.74839  0.03010  0.61355  1.0000
  H   H1204     1.0  0.82319  0.38187  0.91689  1.0000
  P   P49       1.0  0.69592  0.25209  0.75479  1.0000
  C   C1490     1.0  0.70290  0.22427  0.76562  1.0000
  C   C1491     1.0  0.75403  0.08873  0.88714  1.0000
  C   C1492     1.0  0.68088  0.45981  0.66477  1.0000
  C   C1493     1.0  0.73837  0.41538  0.68941  1.0000
  C   C1494     1.0  0.75826  0.40521  0.69787  1.0000
  C   C1495     1.0  0.69736  0.15110  0.54202  1.0000
  C   C1496     1.0  0.78824  0.07131  0.84855  1.0000
  C   C1497     1.0  0.67988  0.41072  0.69938  1.0000
  H   H1205     1.0  0.77830  0.09331  0.92442  1.0000
  H   H1206     1.0  0.73514  0.43206  0.69666  1.0000
  C   C1498     1.0  0.68013  0.42432  0.72702  1.0000
  H   H1207     1.0  0.74073  0.09524  0.90222  1.0000
  H   H1208     1.0  0.66173  0.22081  0.55166  1.0000
  H   H1209     1.0  0.75063  0.28186  0.88618  1.0000
  H   H1210     1.0  0.68046  0.03294  0.59075  1.0000
  C   C1499     1.0  0.72753  0.30703  0.77850  1.0000
  H   H1211     1.0  0.82688  0.30577  0.97862  1.0000
  C   C1500     1.0  0.70758  0.31570  0.86787  1.0000
  C   C1501     1.0  0.81010  0.26986  0.89084  1.0000
  C   C1502     1.0  0.96128  0.28383  0.77520  1.0000
  H   H1212     1.0  0.77028  0.41416  0.71112  1.0000
  H   H1213     1.0  0.72866  0.19527  0.54704  1.0000
  C   C1503     1.0  0.72423  0.06357  0.75701  1.0000
  C   C1504     1.0  0.72249  0.40384  0.67291  1.0000
  C   C1505     1.0  0.67033  0.26007  0.77451  1.0000
  C   C1506     1.0  0.98250  0.23928  0.70576  1.0000
  C   C1507     1.0  0.66742  0.08209  0.54631  1.0000
  C   C1508     1.0  0.73452  0.09809  0.77923  1.0000
  C   C1509     1.0  0.74407  0.31312  0.90928  1.0000
  C   C1510     1.0  0.66772  0.16923  0.62703  1.0000
  H   H1214     1.0  0.79688  0.15582  0.50650  1.0000
  C   C1511     1.0  0.96074  0.17838  0.69225  1.0000
  C   C1512     1.0  0.84724  0.29642  0.93782  1.0000
  H   H1215     1.0  0.69451  0.08755  0.57891  1.0000
  C   C1513     1.0  0.76641  0.08447  0.50375  1.0000
  C   C1514     1.0  0.69942  0.27163  0.69211  1.0000
  H   H1216     1.0  0.72852  0.15641  0.56373  1.0000
  H   H1217     1.0  0.69779  0.21165  0.51577  1.0000
  C   C1515     1.0  0.73996  0.29615  0.88739  1.0000
  C   C1516     1.0  0.76221  0.38327  0.69070  1.0000
  C   C1517     1.0  0.77021  0.30000  0.70086  1.0000
  C   C1518     1.0  0.68429  0.25686  0.64221  1.0000
  H   H1218     1.0  0.81255  0.30463  0.64700  1.0000
  C   C1519     1.0  0.78486  0.30971  0.67930  1.0000
  H   H1219     1.0  0.67866  0.17515  0.72063  1.0000
  H   H1220     1.0  0.68230  0.22348  0.80933  1.0000
  H   H1221     1.0  0.70084  0.38677  0.55058  1.0000
  H   H1222     1.0  0.78407  0.32716  0.67578  1.0000
  C   C1520     1.0  0.66252  0.40548  0.62238  1.0000
  H   H1223     1.0  0.89235  0.26322  0.94208  1.0000
  C   C1521     1.0  0.70353  0.09638  0.74278  1.0000
  C   C1522     1.0  0.69369  0.21449  0.79360  1.0000
  H   H1224     1.0  0.74900  0.35429  0.67076  1.0000
  H   H1225     1.0  0.70727  0.28489  0.70389  1.0000
  H   H1226     1.0  0.66871  0.38011  0.68079  1.0000
  C   C1523     1.0  0.79815  0.36283  0.89601  1.0000
  H   H1227     1.0  0.71894  0.28467  0.84931  1.0000
  C   C1524     1.0  0.69015  0.39180  0.57075  1.0000
  C   C1525     1.0  0.74622  0.37147  0.67515  1.0000
  C   C1526     1.0  0.67256  0.32463  0.70643  1.0000
  C   C1527     1.0  0.71647  0.27015  0.76870  1.0000
  H   H1228     1.0  0.75812  0.30997  0.71399  1.0000
  C   C1528     1.0  0.80562  0.25624  0.94652  1.0000
  C   C1529     1.0  0.73131  0.99929  0.71661  1.0000
  C   C1530     1.0  0.79080  0.27340  0.95351  1.0000
  C   C1531     1.0  0.72637  0.38167  0.66643  1.0000
  H   H1229     1.0  0.83716  0.30489  0.91966  1.0000
  H   H1230     1.0  0.69650  0.29890  0.75916  1.0000
  H   H1231     1.0  0.77293  0.34183  0.88150  1.0000
  H   H1232     1.0  0.82758  0.24175  0.91035  1.0000
  C   C1532     1.0  0.71722  0.10843  0.76244  1.0000
  H   H1233     1.0  0.71453  0.00515  0.71700  1.0000
  H   H1234     1.0  0.69776  0.13404  0.54855  1.0000
  C   C1533     1.0  0.69881  0.19274  0.80114  1.0000
  C   C1534     1.0  0.67573  0.17357  0.69443  1.0000
  C   C1535     1.0  0.73948  0.02591  0.81198  1.0000
  C   C1536     1.0  0.77517  0.08758  0.89969  1.0000
  H   H1235     1.0  0.77735  0.37525  0.69832  1.0000
  P   P50       1.0  0.76687  0.31165  0.93715  1.0000
  H   H1236     1.0  0.71497  0.12591  0.76325  1.0000
  P   P51       1.0  0.76207  0.06279  0.79467  1.0000
  C   C1537     1.0  0.74816  0.47175  0.72284  1.0000
  C   C1538     1.0  0.97425  0.28789  0.74750  1.0000
  H   H1237     1.0  0.72396  0.32439  0.77742  1.0000
  H   H1238     1.0  0.66082  0.38466  0.54467  1.0000
  C   C1539     1.0  0.79225  0.07880  0.88044  1.0000
  C   C1540     1.0  0.73717  0.00358  0.81640  1.0000
  C   C1541     1.0  0.67781  0.23869  0.65997  1.0000
  C   C1542     1.0  0.66905  0.33580  0.76404  1.0000
  C   C1543     1.0  0.78367  0.06894  0.76608  1.0000
  C   C1544     1.0  0.68516  0.40586  0.62643  1.0000
  C   C1545     1.0  0.77688  0.01933  0.79435  1.0000
  H   H1239     1.0  0.79244  0.02503  0.78600  1.0000
  H   H1240     1.0  0.79368  0.09773  0.79170  1.0000
  C   C1546     1.0  0.73643  0.26222  0.78141  1.0000
  C   C1547     1.0  0.79483  0.28667  0.89737  1.0000
  C   C1548     1.0  0.67955  0.16035  0.52512  1.0000
  C   C1549     1.0  0.75921  0.03392  0.80018  1.0000
  C   C1550     1.0  0.67840  0.09300  0.57117  1.0000
  C   C1551     1.0  0.79638  0.08717  0.77068  1.0000
  H   H1241     1.0  0.74568  0.10780  0.79290  1.0000
  H   H1242     1.0  0.80860  0.07767  0.89026  1.0000
  H   H1243     1.0  0.98202  0.16897  0.65207  1.0000
  H   H1244     1.0  0.80157  0.06421  0.83410  1.0000
  C   C1552     1.0  0.81256  0.35731  0.95099  1.0000
  H   H1245     1.0  0.72579  0.03688  0.81734  1.0000
  C   C1553     1.0  0.69838  0.44552  0.65662  1.0000
  H   H1246     1.0  0.75946  0.31035  0.79889  1.0000
  C   C1554     1.0  0.69534  0.27317  0.65818  1.0000
  C   C1555     1.0  0.74747  0.29911  0.79066  1.0000
  H   H1247     1.0  0.72177  0.99737  0.82461  1.0000
  H   H1248     1.0  0.79767  0.37190  0.87297  1.0000
  P   P52       1.0  0.69641  0.41669  0.66365  1.0000
  C   C1556     1.0  0.81242  0.36856  0.92091  1.0000
  H   H1249     1.0  0.73346  0.08194  0.84606  1.0000
  C   C1557     1.0  0.69254  0.25362  0.71035  1.0000
  C   C1558     1.0  0.68213  0.23695  0.69379  1.0000
  C   C1559     1.0  0.71205  0.29261  0.76795  1.0000
  C   C1560     1.0  0.81541  0.25457  0.91532  1.0000
  C   C1561     1.0  0.73534  0.03479  0.59678  1.0000
  C   C1562     1.0  0.74761  0.09768  0.50769  1.0000
  P   P53       1.0  0.67931  0.05767  0.52799  1.0000
  C   C1563     1.0  0.71698  0.45379  0.64140  1.0000
  C   C1564     1.0  0.70705  0.07396  0.74007  1.0000
  C   C1565     1.0  0.72882  0.47125  0.74137  1.0000
  C   C1566     1.0  0.73985  0.04604  0.56763  1.0000
  C   C1567     1.0  0.78489  0.28850  0.92869  1.0000
  H   H1250     1.0  0.94664  0.18084  0.67662  1.0000
  H   H1251     1.0  0.68027  0.25856  0.61628  1.0000
  H   H1252     1.0  0.69382  0.31708  0.85124  1.0000
  H   H1253     1.0  0.66615  0.45378  0.67576  1.0000
  C   C1568     1.0  0.86557  0.28428  0.92734  1.0000
  H   H1254     1.0  0.68125  0.32520  0.68311  1.0000
  C   C1569     1.0  0.95885  0.18191  0.72627  1.0000
  H   H1255     1.0  0.79122  0.29859  0.87819  1.0000
  H   H1256     1.0  0.79495  0.48415  0.78853  1.0000
  H   H1257     1.0  0.97545  0.18177  0.77285  1.0000
  C   C1570     1.0  0.67928  0.18237  0.51600  1.0000
  C   C1571     1.0  0.69892  0.39955  0.60006  1.0000
  H   H1258     1.0  0.69136  0.18512  0.82238  1.0000
  C   C1572     1.0  0.87844  0.27305  0.95046  1.0000
  C   C1573     1.0  0.71491  0.18558  0.54093  1.0000
  H   H1259     1.0  0.72675  0.06167  0.52450  1.0000
  H   H1260     1.0  0.69897  0.48911  0.75278  1.0000
  H   H1261     1.0  0.79846  0.33187  0.97961  1.0000
  C   C1574     1.0  0.76295  0.15301  0.49541  1.0000
  C   C1575     1.0  0.77451  0.99703  0.79889  1.0000
  H   H1262     1.0  0.66896  0.22619  0.64764  1.0000
  H   H1263     1.0  0.76749  0.48977  0.68798  1.0000
  C   C1576     1.0  0.75456  0.31124  0.97792  1.0000
  H   H1264     1.0  0.67695  0.11903  0.60635  1.0000
  H   H1265     1.0  0.66469  0.16750  0.60087  1.0000
  C   C1577     1.0  0.66761  0.39070  0.56736  1.0000
  C   C1578     1.0  0.87319  0.27410  0.98416  1.0000
  H   H1266     1.0  0.75910  0.34530  0.98796  1.0000
  C   C1579     1.0  0.71211  0.38559  0.98815  1.0000
  C   C1580     1.0  0.75248  0.48973  0.70209  1.0000
  Fe  Fe105     1.0  0.71864  0.86452  0.12829  1.0000
  S   S209      1.0  0.74994  0.84878  0.11055  1.0000
  S   S210      1.0  0.68884  0.84609  0.11233  1.0000
  Fe  Fe106     1.0  0.74253  0.90355  0.15899  1.0000
  S   S211      1.0  0.77535  0.88921  0.14279  1.0000
  S   S212      1.0  0.73573  0.93436  0.19169  1.0000
  Fe  Fe107     1.0  0.75895  0.88209  0.09397  1.0000
  S   S213      1.0  0.77657  0.88588  0.04396  1.0000
  Fe  Fe108     1.0  0.76336  0.85690  0.16034  1.0000
  S   S214      1.0  0.77764  0.82779  0.18944  1.0000
  S   S215      1.0  0.72684  0.89788  0.10912  1.0000
  S   S216      1.0  0.73133  0.87118  0.17893  1.0000
  Fe  Fe109     1.0  0.71245  0.61236  0.29014  1.0000
  S   S217      1.0  0.73368  0.60127  0.24780  1.0000
  S   S218      1.0  0.68557  0.63902  0.28769  1.0000
  Fe  Fe110     1.0  0.74080  0.58747  0.34128  1.0000
  S   S219      1.0  0.76411  0.57492  0.30130  1.0000
  S   S220      1.0  0.75035  0.57908  0.39495  1.0000
  Fe  Fe111     1.0  0.76174  0.60913  0.28084  1.0000
  S   S221      1.0  0.78892  0.62940  0.25864  1.0000
  Fe  Fe112     1.0  0.73418  0.56771  0.27161  1.0000
  S   S222      1.0  0.72765  0.53816  0.23730  1.0000
  S   S223      1.0  0.74051  0.62171  0.32203  1.0000
  S   S224      1.0  0.71088  0.57868  0.31264  1.0000
  Fe  Fe113     1.0  0.89612  0.75767  0.35396  1.0000
  S   S225      1.0  0.90304  0.72401  0.33468  1.0000
  S   S226      1.0  0.90095  0.77068  0.40658  1.0000
  Fe  Fe114     1.0  0.87912  0.77374  0.28565  1.0000
  S   S227      1.0  0.88411  0.74069  0.26260  1.0000
  S   S228      1.0  0.86891  0.80492  0.25797  1.0000
  Fe  Fe115     1.0  0.87006  0.72755  0.31040  1.0000
  S   S229      1.0  0.84307  0.70441  0.32542  1.0000
  Fe  Fe116     1.0  0.91687  0.73994  0.28846  1.0000
  S   S230      1.0  0.94954  0.72720  0.26483  1.0000
  S   S231      1.0  0.86292  0.76098  0.33114  1.0000
  S   S232      1.0  0.91215  0.77334  0.30986  1.0000
  C   C1581     1.0  0.89864  0.75772  0.44604  1.0000
  C   C1582     1.0  0.89854  0.73512  0.44964  1.0000
  C   C1583     1.0  0.72948  0.97129  0.23074  1.0000
  H   H1267     1.0  0.89946  0.72495  0.42792  1.0000
  H   H1268     1.0  0.96745  0.80248  0.46219  1.0000
  C   C1584     1.0  0.97126  0.73645  0.23858  1.0000
  C   C1585     1.0  0.97272  0.75808  0.22816  1.0000
  C   C1586     1.0  0.67573  0.82535  0.13468  1.0000
  C   C1587     1.0  0.80269  0.95926  0.26877  1.0000
  H   H1269     1.0  0.96042  0.76990  0.23608  1.0000
  H   H1270     1.0  0.88741  0.69251  0.19595  1.0000
  H   H1271     1.0  0.75197  0.72594  0.15266  1.0000
  C   C1588     1.0  0.74035  0.58608  0.43534  1.0000
  C   C1589     1.0  0.72101  0.59832  0.44044  1.0000
  H   H1272     1.0  0.75669  0.49988  0.11507  1.0000
  H   H1273     1.0  0.71169  0.60407  0.41938  1.0000
  H   H1274     1.0  0.76711  0.56929  0.45975  1.0000
  C   C1590     1.0  0.80350  0.65054  0.27749  1.0000
  C   C1591     1.0  0.80016  0.65648  0.31054  1.0000
  C   C1592     1.0  0.81233  0.67309  0.32453  1.0000
  C   C1593     1.0  0.82801  0.68398  0.30581  1.0000
  C   C1594     1.0  0.83116  0.67826  0.27264  1.0000
  C   C1595     1.0  0.81897  0.66166  0.25861  1.0000
  H   H1275     1.0  0.78819  0.64832  0.32530  1.0000
  H   H1276     1.0  0.80968  0.67745  0.35011  1.0000
  H   H1277     1.0  0.84313  0.68646  0.25790  1.0000
  H   H1278     1.0  0.82167  0.65726  0.23302  1.0000
  C   C1596     1.0  0.73254  0.50949  0.22969  1.0000
  H   H1279     1.0  0.82897  0.76818  0.48329  1.0000
  H   H1280     1.0  0.68850  0.76738  0.25989  1.0000
  H   H1281     1.0  0.69819  0.61172  0.47649  1.0000
  H   H1282     1.0  0.75270  0.50272  0.27198  1.0000
  C   C1597     1.0  0.71338  0.60262  0.47293  1.0000
  C   C1598     1.0  0.71005  0.76301  0.14234  1.0000
  C   C1599     1.0  0.80316  0.82211  0.20846  1.0000
  C   C1600     1.0  0.80643  0.80216  0.22511  1.0000
  C   C1601     1.0  0.82639  0.79669  0.24047  1.0000
  C   C1602     1.0  0.84342  0.81110  0.23918  1.0000
  C   C1603     1.0  0.84023  0.83102  0.22240  1.0000
  C   C1604     1.0  0.82017  0.83658  0.20725  1.0000
  H   H1283     1.0  0.79345  0.79083  0.22608  1.0000
  H   H1284     1.0  0.82864  0.78136  0.25329  1.0000
  H   H1285     1.0  0.85343  0.84212  0.22082  1.0000
  H   H1286     1.0  0.81793  0.85192  0.19439  1.0000
  C   C1605     1.0  0.76511  0.88816  0.00350  1.0000
  H   H1287     1.0  0.77959  0.92400  0.32277  1.0000
  H   H1288     1.0  0.73168  0.64911  0.38336  1.0000
  H   H1289     1.0  0.73163  0.88961  0.01933  1.0000
  H   H1290     1.0  0.86268  0.85616  0.27829  1.0000
  C   C1606     1.0  0.85838  0.66097  0.39734  1.0000
  C   C1607     1.0  0.74321  0.96047  0.20751  1.0000
  C   C1608     1.0  0.74974  0.67844  0.38554  1.0000
  H   H1291     1.0  0.75208  0.67835  0.47512  1.0000
  C   C1609     1.0  0.95125  0.75174  0.48090  1.0000
  H   H1292     1.0  0.75387  0.79198  0.11951  1.0000
  C   C1610     1.0  0.88015  0.72025  0.16464  1.0000
  H   H1293     1.0  0.83129  0.64379  0.37977  1.0000
  C   C1611     1.0  0.74459  0.77822  0.12753  1.0000
  H   H1294     1.0  0.73786  0.69262  0.13192  1.0000
  C   C1612     1.0  0.78529  0.67484  0.41082  1.0000
  C   C1613     1.0  0.91181  0.71653  0.19961  1.0000
  C   C1614     1.0  0.75216  0.57877  0.46325  1.0000
  C   C1615     1.0  0.78392  0.87451  0.26138  1.0000
  H   H1295     1.0  0.84150  0.80764  0.15872  1.0000
  C   C1616     1.0  0.67150  0.63890  0.22233  1.0000
  C   C1617     1.0  0.80788  0.59067  0.43381  1.0000
  C   C1618     1.0  0.74326  0.74083  0.14625  1.0000
  H   H1296     1.0  0.73714  0.68837  0.37373  1.0000
  C   C1619     1.0  0.93549  0.76689  0.11976  1.0000
  H   H1297     1.0  0.75251  0.64502  0.20725  1.0000
  C   C1620     1.0  0.84518  0.75826  0.43867  1.0000
  C   C1621     1.0  0.67115  0.64951  0.25283  1.0000
  H   H1298     1.0  0.77144  0.70479  0.39134  1.0000
  H   H1299     1.0  0.69084  0.73863  0.09802  1.0000
  H   H1300     1.0  0.84615  0.83187  0.11028  1.0000
  H   H1301     1.0  0.69257  0.76523  0.14550  1.0000
  C   C1622     1.0  0.98777  0.72148  0.22811  1.0000
  C   C1623     1.0  0.74530  0.49594  0.25037  1.0000
  C   C1624     1.0  0.76543  0.86198  0.26015  1.0000
  H   H1302     1.0  0.88140  0.83159  0.07988  1.0000
  C   C1625     1.0  0.84625  0.89221  0.33764  1.0000
  H   H1303     1.0  0.80007  0.68230  0.41835  1.0000
  C   C1626     1.0  0.80515  0.61019  0.41597  1.0000
  C   C1627     1.0  0.94499  0.81769  0.23098  1.0000
  C   C1628     1.0  0.71501  0.70519  0.29968  1.0000
  C   C1629     1.0  0.72446  0.68442  0.30369  1.0000
  C   C1630     1.0  0.74672  0.68088  0.29800  1.0000
  C   C1631     1.0  0.75962  0.69810  0.28872  1.0000
  C   C1632     1.0  0.75038  0.71913  0.28509  1.0000
  C   C1633     1.0  0.72790  0.72252  0.29049  1.0000
  P   P54       1.0  0.76760  0.74115  0.27336  1.0000
  C   C1634     1.0  0.78314  0.74993  0.30825  1.0000
  C   C1635     1.0  0.78603  0.73084  0.24172  1.0000
  C   C1636     1.0  0.80837  0.73482  0.24298  1.0000
  C   C1637     1.0  0.82267  0.72562  0.21950  1.0000
  C   C1638     1.0  0.81483  0.71222  0.19485  1.0000
  C   C1639     1.0  0.79262  0.70820  0.19341  1.0000
  C   C1640     1.0  0.77824  0.71754  0.21667  1.0000
  C   C1641     1.0  0.79021  0.77135  0.30937  1.0000
  C   C1642     1.0  0.80283  0.77814  0.33572  1.0000
  C   C1643     1.0  0.80854  0.76361  0.36106  1.0000
  C   C1644     1.0  0.80191  0.74219  0.35982  1.0000
  C   C1645     1.0  0.78936  0.73530  0.33346  1.0000
  C   C1646     1.0  0.75157  0.76434  0.25867  1.0000
  C   C1647     1.0  0.73892  0.77676  0.28123  1.0000
  C   C1648     1.0  0.72725  0.79538  0.27065  1.0000
  C   C1649     1.0  0.72837  0.80193  0.23759  1.0000
  C   C1650     1.0  0.74113  0.78985  0.21518  1.0000
  C   C1651     1.0  0.75267  0.77110  0.22553  1.0000
  H   H1304     1.0  0.69763  0.70774  0.30338  1.0000
  H   H1305     1.0  0.71448  0.67094  0.31066  1.0000
  H   H1306     1.0  0.75398  0.66468  0.30023  1.0000
  H   H1307     1.0  0.77684  0.69493  0.28415  1.0000
  H   H1308     1.0  0.72013  0.73834  0.28731  1.0000
  H   H1309     1.0  0.81498  0.74453  0.26246  1.0000
  H   H1310     1.0  0.83994  0.72847  0.22105  1.0000
  H   H1311     1.0  0.82602  0.70463  0.17724  1.0000
  H   H1312     1.0  0.78663  0.69743  0.17475  1.0000
  H   H1313     1.0  0.76115  0.71389  0.21569  1.0000
  H   H1314     1.0  0.78643  0.78275  0.28957  1.0000
  H   H1315     1.0  0.80860  0.79456  0.33611  1.0000
  H   H1316     1.0  0.81864  0.76882  0.38113  1.0000
  H   H1317     1.0  0.80710  0.73068  0.37870  1.0000
  H   H1318     1.0  0.78514  0.71845  0.33250  1.0000
  H   H1319     1.0  0.73835  0.77218  0.30712  1.0000
  H   H1320     1.0  0.71765  0.80498  0.28816  1.0000
  H   H1321     1.0  0.71976  0.81661  0.22931  1.0000
  H   H1322     1.0  0.74267  0.79561  0.18998  1.0000
  H   H1323     1.0  0.76289  0.76242  0.20781  1.0000
  H   H1324     1.0  0.71298  0.51006  0.18567  1.0000
  C   C1652     1.0  0.94470  0.75786  0.06279  1.0000
  H   H1325     1.0  0.75901  0.66012  0.15120  1.0000
  C   C1653     1.0  0.90591  0.74926  0.16674  1.0000
  C   C1654     1.0  0.68793  0.71053  0.13024  1.0000
  C   C1655     1.0  0.74668  0.65634  0.39088  1.0000
  H   H1326     1.0  0.68070  0.68057  0.15576  1.0000
  C   C1656     1.0  0.79736  0.93929  0.28307  1.0000
  C   C1657     1.0  0.80380  0.60941  0.38133  1.0000
  C   C1658     1.0  0.80545  0.58958  0.36481  1.0000
  C   C1659     1.0  0.80807  0.57026  0.38275  1.0000
  C   C1660     1.0  0.80928  0.57081  0.41722  1.0000
  H   H1327     1.0  0.80106  0.62406  0.36697  1.0000
  H   H1328     1.0  0.80414  0.58918  0.33812  1.0000
  H   H1329     1.0  0.80857  0.55486  0.36998  1.0000
  H   H1330     1.0  0.82184  0.91754  0.33187  1.0000
  C   C1661     1.0  0.72300  0.49997  0.20185  1.0000
  H   H1331     1.0  0.86031  0.74384  0.39555  1.0000
  H   H1332     1.0  0.84461  0.70803  0.40461  1.0000
  C   C1662     1.0  0.67345  0.83570  0.02609  1.0000
  H   H1333     1.0  0.86234  0.92993  0.18040  1.0000
  C   C1663     1.0  0.66476  0.68272  0.10888  1.0000
  H   H1334     1.0  0.69447  0.52059  0.30282  1.0000
  H   H1335     1.0  0.77278  0.75692  0.13324  1.0000
  H   H1336     1.0  0.71386  0.79603  0.12586  1.0000
  C   C1664     1.0  0.83769  0.92233  0.21642  1.0000
  H   H1337     1.0  0.72419  0.66191  0.24337  1.0000
  C   C1665     1.0  0.85861  0.66901  0.45574  1.0000
  H   H1338     1.0  0.68551  0.51313  0.24467  1.0000
  C   C1666     1.0  0.67363  0.82574  0.16915  1.0000
  H   H1339     1.0  0.71198  0.75152  0.21600  1.0000
  H   H1340     1.0  0.79353  0.98898  0.10753  1.0000
  H   H1341     1.0  0.70418  0.69524  0.22602  1.0000
  C   C1667     1.0  0.69548  0.74623  0.21865  1.0000
  H   H1342     1.0  0.80840  0.59055  0.46051  1.0000
  H   H1343     1.0  0.84931  0.89614  0.36323  1.0000
  C   C1668     1.0  0.74263  0.88976  0.99833  1.0000
  C   C1669     1.0  0.80059  0.92381  0.19664  1.0000
  C   C1670     1.0  0.89780  0.72562  0.48150  1.0000
  C   C1671     1.0  0.68391  0.85141  0.00742  1.0000
  P   P55       1.0  0.80554  0.91391  0.26349  1.0000
  H   H1344     1.0  0.68520  0.86770  0.01704  1.0000
  C   C1672     1.0  0.78189  0.89731  0.26087  1.0000
  H   H1345     1.0  0.73670  0.74641  0.46339  1.0000
  C   C1673     1.0  0.68394  0.72293  0.10146  1.0000
  C   C1674     1.0  0.75655  0.69509  0.47783  1.0000
  C   C1675     1.0  0.74261  0.89466  0.25716  1.0000
  C   C1676     1.0  0.76105  0.90723  0.25827  1.0000
  H   H1346     1.0  0.86967  0.86530  0.33673  1.0000
  C   C1677     1.0  0.95464  0.81644  0.19964  1.0000
  H   H1347     1.0  0.86563  0.66234  0.37289  1.0000
  H   H1348     1.0  0.69371  0.49102  0.34469  1.0000
  H   H1349     1.0  0.87167  0.78322  0.17692  1.0000
  C   C1678     1.0  0.82646  0.89918  0.28660  1.0000
  C   C1679     1.0  0.96612  0.75257  0.07208  1.0000
  C   C1680     1.0  0.82459  0.73401  0.47335  1.0000
  H   H1350     1.0  0.82251  0.70139  0.45496  1.0000
  C   C1681     1.0  0.85390  0.86979  0.28973  1.0000
  C   C1682     1.0  0.83063  0.90431  0.31971  1.0000
  C   C1683     1.0  0.95476  0.77042  0.46226  1.0000
  C   C1684     1.0  0.83240  0.75474  0.46679  1.0000
  C   C1685     1.0  0.85778  0.87488  0.32272  1.0000
  H   H1351     1.0  0.78325  0.92259  0.20080  1.0000
  C   C1686     1.0  0.92934  0.76474  0.08660  1.0000
  C   C1687     1.0  0.83876  0.65045  0.40139  1.0000
  C   C1688     1.0  0.82881  0.64904  0.43273  1.0000
  C   C1689     1.0  0.83869  0.65895  0.45978  1.0000
  H   H1352     1.0  0.72668  0.90254  0.25424  1.0000
  H   H1353     1.0  0.75895  0.92473  0.25645  1.0000
  H   H1354     1.0  0.71466  0.96376  0.23860  1.0000
  H   H1355     1.0  0.81071  0.55579  0.43116  1.0000
  C   C1690     1.0  0.92682  0.80551  0.23821  1.0000
  C   C1691     1.0  0.68229  0.75512  0.24378  1.0000
  C   C1692     1.0  0.67830  0.69029  0.13359  1.0000
  H   H1356     1.0  0.77263  0.75511  0.48573  1.0000
  H   H1357     1.0  0.95139  0.82828  0.24955  1.0000
  C   C1693     1.0  0.77633  0.95875  0.32541  1.0000
  C   C1694     1.0  0.79492  0.63172  0.47980  1.0000
  H   H1358     1.0  0.91883  0.80707  0.26207  1.0000
  H   H1359     1.0  0.93338  0.74313  0.19888  1.0000
  H   H1360     1.0  0.76582  0.95860  0.34703  1.0000
  H   H1361     1.0  0.80272  0.51552  0.21178  1.0000
  H   H1362     1.0  0.98789  0.79884  0.29503  1.0000
  C   C1695     1.0  0.87380  0.79309  0.15492  1.0000
  H   H1363     1.0  0.89757  0.78807  0.47233  1.0000
  H   H1364     1.0  0.66676  0.72513  0.05509  1.0000
  H   H1365     1.0  0.86629  0.67645  0.47665  1.0000
  C   C1696     1.0  0.82347  0.49845  0.04207  1.0000
  C   C1697     1.0  0.75521  0.75845  0.13532  1.0000
  C   C1698     1.0  0.85938  0.82082  0.11769  1.0000
  C   C1699     1.0  0.72048  0.74283  0.14928  1.0000
  H   H1366     1.0  0.90436  0.78244  0.22046  1.0000
  C   C1700     1.0  0.79824  0.49431  0.17027  1.0000
  H   H1367     1.0  0.73050  0.86232  0.25675  1.0000
  C   C1701     1.0  0.74477  0.87205  0.25842  1.0000
  H   H1368     1.0  0.91269  0.76815  0.07917  1.0000
  H   H1369     1.0  0.76719  0.84442  0.25967  1.0000
  H   H1370     1.0  0.96863  0.82601  0.19388  1.0000
  C   C1702     1.0  0.79286  0.51207  0.19046  1.0000
  C   C1703     1.0  0.77458  0.52534  0.18344  1.0000
  C   C1704     1.0  0.76169  0.52089  0.15617  1.0000
  C   C1705     1.0  0.76689  0.50301  0.13608  1.0000
  C   C1706     1.0  0.84982  0.74130  0.41668  1.0000
  H   H1371     1.0  0.76033  0.62627  0.40977  1.0000
  H   H1372     1.0  0.91181  0.80703  0.09751  1.0000
  C   C1707     1.0  0.76907  0.68767  0.39542  1.0000
  H   H1373     1.0  0.66654  0.83990  0.05005  1.0000
  C   C1708     1.0  0.84131  0.72094  0.42226  1.0000
  H   H1374     1.0  0.77306  0.96295  0.17995  1.0000
  C   C1709     1.0  0.83845  0.88198  0.27165  1.0000
  C   C1710     1.0  0.86846  0.66999  0.42457  1.0000
  H   H1375     1.0  0.94937  0.77135  0.43677  1.0000
  H   H1376     1.0  0.84937  0.92014  0.23616  1.0000
  H   H1377     1.0  0.87744  0.74934  0.13542  1.0000
  C   C1711     1.0  0.76298  0.64342  0.40587  1.0000
  C   C1712     1.0  0.66582  0.72431  0.20094  1.0000
  C   C1713     1.0  0.89353  0.79218  0.13709  1.0000
  H   H1378     1.0  0.77017  0.53889  0.19945  1.0000
  H   H1379     1.0  0.74736  0.53109  0.15119  1.0000
  H   H1380     1.0  0.83596  0.93633  0.13486  1.0000
  H   H1381     1.0  0.88366  0.67820  0.42136  1.0000
  C   C1714     1.0  0.89746  0.77060  0.47474  1.0000
  C   C1715     1.0  0.80803  0.92990  0.16527  1.0000
  C   C1716     1.0  0.94605  0.80308  0.17551  1.0000
  P   P56       1.0  0.70433  0.72049  0.16354  1.0000
  C   C1717     1.0  0.68724  0.73103  0.19668  1.0000
  C   C1718     1.0  0.72045  0.69730  0.17822  1.0000
  C   C1719     1.0  0.71648  0.68825  0.20960  1.0000
  C   C1720     1.0  0.72785  0.66933  0.21971  1.0000
  C   C1721     1.0  0.74356  0.65955  0.19903  1.0000
  C   C1722     1.0  0.74728  0.66816  0.16754  1.0000
  C   C1723     1.0  0.73547  0.68670  0.15691  1.0000
  C   C1724     1.0  0.78241  0.65258  0.41604  1.0000
  H   H1382     1.0  0.68142  0.83820  0.18307  1.0000
  P   P57       1.0  0.80290  0.63601  0.43704  1.0000
  C   C1725     1.0  0.84547  0.49406  0.04877  1.0000
  C   C1726     1.0  0.88691  0.74058  0.15393  1.0000
  C   C1727     1.0  0.72203  0.78052  0.13121  1.0000
  C   C1728     1.0  0.78150  0.97851  0.31077  1.0000
  H   H1383     1.0  0.68174  0.62443  0.21899  1.0000
  H   H1384     1.0  0.86543  0.71369  0.15489  1.0000
  H   H1385     1.0  0.98697  0.70470  0.23580  1.0000
  C   C1729     1.0  0.85672  0.80713  0.14494  1.0000
  H   H1386     1.0  0.79961  0.86616  0.26233  1.0000
  C   C1730     1.0  0.79479  0.97875  0.28264  1.0000
  H   H1387     1.0  0.81885  0.50849  0.02100  1.0000
  H   H1388     1.0  0.95329  0.80299  0.15104  1.0000
  C   C1731     1.0  0.87922  0.82059  0.10054  1.0000
  C   C1732     1.0  0.89634  0.80647  0.11038  1.0000
  C   C1733     1.0  0.83027  0.93185  0.15930  1.0000
  C   C1734     1.0  0.81539  0.91962  0.22230  1.0000
  H   H1389     1.0  0.85201  0.77401  0.43420  1.0000
  H   H1390     1.0  0.79645  0.93301  0.14556  1.0000
  P   P58       1.0  0.91572  0.77459  0.15118  1.0000
  C   C1735     1.0  0.82876  0.71730  0.45054  1.0000
  C   C1736     1.0  0.91856  0.79165  0.21446  1.0000
  H   H1391     1.0  0.76041  0.63853  0.47194  1.0000
  C   C1737     1.0  0.95676  0.76055  0.12905  1.0000
  H   H1392     1.0  0.72626  0.70801  0.45842  1.0000
  C   C1738     1.0  0.92817  0.79027  0.18296  1.0000
  C   C1739     1.0  0.76230  0.97071  0.19784  1.0000
  H   H1393     1.0  0.92156  0.70720  0.21725  1.0000
  C   C1740     1.0  0.89257  0.70825  0.18756  1.0000
  C   C1741     1.0  0.84510  0.92815  0.18491  1.0000
  H   H1394     1.0  0.93998  0.75643  0.03716  1.0000
  H   H1395     1.0  0.94336  0.73818  0.46971  1.0000
  C   C1742     1.0  0.91842  0.73699  0.18936  1.0000
  C   C1743     1.0  0.97210  0.75378  0.10527  1.0000
  C   C1744     1.0  0.67043  0.71524  0.07673  1.0000
  C   C1745     1.0  0.78420  0.93920  0.31164  1.0000
  C   C1746     1.0  0.68506  0.50013  0.26281  1.0000
  H   H1396     1.0  0.83554  0.87772  0.24613  1.0000
  H   H1397     1.0  0.96950  0.76481  0.30934  1.0000
  C   C1747     1.0  0.66077  0.69520  0.08050  1.0000
  C   C1748     1.0  0.74201  0.71183  0.46827  1.0000
  H   H1398     1.0  0.96155  0.76073  0.15476  1.0000
  C   C1749     1.0  0.69007  0.50438  0.29571  1.0000
  H   H1399     1.0  0.81242  0.95997  0.24642  1.0000
  C   C1750     1.0  0.74788  0.73343  0.47117  1.0000
  C   C1751     1.0  0.67225  0.81455  0.01411  1.0000
  H   H1400     1.0  0.89821  0.70813  0.48393  1.0000
  H   H1401     1.0  0.66416  0.80240  0.02872  1.0000
  C   C1752     1.0  0.66540  0.80910  0.11698  1.0000
  H   H1402     1.0  0.66712  0.80848  0.09041  1.0000
  H   H1403     1.0  0.85789  0.50065  0.03285  1.0000
  C   C1753     1.0  0.66027  0.81082  0.18543  1.0000
  H   H1404     1.0  0.79044  0.49392  0.05755  1.0000
  C   C1754     1.0  0.98703  0.76471  0.30593  1.0000
  H   H1405     1.0  0.97804  0.74724  0.05369  1.0000
  H   H1406     1.0  0.99112  0.78131  0.20023  1.0000
  C   C1755     1.0  0.99029  0.76452  0.20785  1.0000
  H   H1407     1.0  0.98860  0.74932  0.11275  1.0000
  C   C1756     1.0  0.66087  0.74864  0.24748  1.0000
  C   C1757     1.0  0.96482  0.78797  0.47668  1.0000
  C   C1758     1.0  0.76816  0.73830  0.48411  1.0000
  H   H1408     1.0  0.83099  0.65942  0.48390  1.0000
  H   H1409     1.0  0.65901  0.71250  0.18469  1.0000
  H   H1410     1.0  0.99094  0.73037  0.31464  1.0000
  Fe  Fe117     1.0  0.74649  0.89122  0.84315  1.0000
  S   S233      1.0  0.72462  0.90931  0.80676  1.0000
  S   S234      1.0  0.73656  0.89530  0.89797  1.0000
  Fe  Fe118     1.0  0.77046  0.86618  0.78629  1.0000
  S   S235      1.0  0.74999  0.88262  0.74695  1.0000
  S   S236      1.0  0.79463  0.83711  0.77998  1.0000
  Fe  Fe119     1.0  0.75456  0.91387  0.77512  1.0000
  S   S237      1.0  0.76680  0.94516  0.74943  1.0000
  Fe  Fe120     1.0  0.72171  0.87691  0.78161  1.0000
  S   S238      1.0  0.68852  0.86482  0.76614  1.0000
  S   S239      1.0  0.77685  0.89744  0.81321  1.0000
  S   S240      1.0  0.74179  0.85888  0.81916  1.0000
  Fe  Fe121     1.0  0.72095  0.61344  0.66457  1.0000
  S   S241      1.0  0.75050  0.59442  0.68371  1.0000
  S   S242      1.0  0.70643  0.64047  0.69814  1.0000
  Fe  Fe122     1.0  0.72768  0.59524  0.59384  1.0000
  S   S243      1.0  0.75723  0.57527  0.60895  1.0000
  S   S244      1.0  0.71396  0.60025  0.54126  1.0000
  Fe  Fe123     1.0  0.73835  0.56588  0.65502  1.0000
  S   S245      1.0  0.74416  0.52994  0.67248  1.0000
  Fe  Fe124     1.0  0.76708  0.60487  0.63691  1.0000
  S   S246      1.0  0.80217  0.61540  0.63061  1.0000
  S   S247      1.0  0.70767  0.58438  0.63823  1.0000
  S   S248      1.0  0.73864  0.62531  0.61930  1.0000
  Fe  Fe125     1.0  0.89030  0.73769  0.60240  1.0000
  S   S249      1.0  0.90173  0.71647  0.64552  1.0000
  S   S250      1.0  0.89761  0.72544  0.54968  1.0000
  Fe  Fe126     1.0  0.86616  0.77002  0.64854  1.0000
  S   S251      1.0  0.87620  0.75122  0.69341  1.0000
  S   S252      1.0  0.84455  0.80100  0.65063  1.0000
  Fe  Fe127     1.0  0.90991  0.74780  0.67071  1.0000
  S   S253      1.0  0.93810  0.75584  0.70635  1.0000
  Fe  Fe128     1.0  0.86752  0.72155  0.66491  1.0000
  S   S254      1.0  0.84497  0.69874  0.69208  1.0000
  S   S255      1.0  0.90017  0.76870  0.62657  1.0000
  S   S256      1.0  0.85568  0.74064  0.62083  1.0000
  C   C1759     1.0  0.96681  0.75061  0.71250  1.0000
  H   H1411     1.0  0.93820  0.73957  0.58468  1.0000
  C   C1760     1.0  0.70380  0.59455  0.74690  1.0000
  C   C1761     1.0  0.97321  0.74077  0.58947  1.0000
  H   H1412     1.0  0.97877  0.80069  0.52074  1.0000
  H   H1413     1.0  0.73197  0.54652  0.73948  1.0000
  H   H1414     1.0  0.70258  0.50760  0.64094  1.0000
  C   C1762     1.0  0.81325  0.63907  0.64746  1.0000
  C   C1763     1.0  0.83489  0.64376  0.63964  1.0000
  C   C1764     1.0  0.84440  0.66257  0.65177  1.0000
  C   C1765     1.0  0.83256  0.67655  0.67287  1.0000
  C   C1766     1.0  0.81102  0.67164  0.68129  1.0000
  C   C1767     1.0  0.80128  0.65316  0.66827  1.0000
  H   H1415     1.0  0.84438  0.63273  0.62408  1.0000
  H   H1416     1.0  0.86112  0.66588  0.64570  1.0000
  H   H1417     1.0  0.80182  0.68218  0.69796  1.0000
  H   H1418     1.0  0.78464  0.64967  0.67467  1.0000
  C   C1768     1.0  0.73771  0.50770  0.69958  1.0000
  C   C1769     1.0  0.71836  0.50719  0.71812  1.0000
  C   C1770     1.0  0.97704  0.75984  0.73996  1.0000
  H   H1419     1.0  0.70910  0.82562  0.79534  1.0000
  H   H1420     1.0  0.70657  0.52055  0.71626  1.0000
  H   H1421     1.0  0.92169  0.82672  0.64895  1.0000
  H   H1422     1.0  0.81498  0.60322  0.70426  1.0000
  H   H1423     1.0  0.74983  0.60475  0.78916  1.0000
  C   C1771     1.0  0.89689  0.73850  0.51019  1.0000
  H   H1424     1.0  0.79376  0.59710  0.75540  1.0000
  C   C1772     1.0  0.95194  0.70945  0.60318  1.0000
  H   H1425     1.0  0.89586  0.77124  0.52833  1.0000
  C   C1773     1.0  0.70854  0.57308  0.73780  1.0000
  H   H1426     1.0  0.78787  0.98567  0.79316  1.0000
  P   P59       1.0  0.97461  0.76785  0.57235  1.0000
  C   C1774     1.0  0.78342  0.51751  0.78469  1.0000
  H   H1427     1.0  0.75383  0.57729  0.51681  1.0000
  C   C1775     1.0  0.80740  0.82702  0.74310  1.0000
  C   C1776     1.0  0.80809  0.83925  0.71387  1.0000
  C   C1777     1.0  0.81927  0.83094  0.68575  1.0000
  C   C1778     1.0  0.83009  0.81042  0.68652  1.0000
  C   C1779     1.0  0.82915  0.79808  0.71563  1.0000
  C   C1780     1.0  0.81767  0.80624  0.74352  1.0000
  H   H1428     1.0  0.80027  0.85524  0.71307  1.0000
  H   H1429     1.0  0.81982  0.84063  0.66341  1.0000
  H   H1430     1.0  0.83719  0.78221  0.71663  1.0000
  H   H1431     1.0  0.81674  0.79636  0.76560  1.0000
  C   C1781     1.0  0.84538  0.82537  0.87974  1.0000
  C   C1782     1.0  0.75844  0.97073  0.73076  1.0000
  C   C1783     1.0  0.87859  0.83384  0.69908  1.0000
  C   C1784     1.0  0.97113  0.78689  0.50985  1.0000
  C   C1785     1.0  0.68049  0.65025  0.71292  1.0000
  H   H1432     1.0  0.96441  0.81911  0.79165  1.0000
  H   H1433     1.0  0.71006  0.72774  0.89710  1.0000
  C   C1786     1.0  0.93065  0.81629  0.59980  1.0000
  H   H1434     1.0  0.69446  0.67663  0.73921  1.0000
  C   C1787     1.0  0.67889  0.83860  0.77579  1.0000
  C   C1788     1.0  0.96116  0.79125  0.82339  1.0000
  C   C1789     1.0  0.97970  0.73781  0.69097  1.0000
  C   C1790     1.0  0.73434  0.89203  0.96594  1.0000
  C   C1791     1.0  0.74828  0.89226  0.93813  1.0000
  C   C1792     1.0  0.77077  0.89058  0.94326  1.0000
  H   H1435     1.0  0.71696  0.89385  0.96240  1.0000
  H   H1436     1.0  0.78174  0.89101  0.92225  1.0000
  C   C1793     1.0  0.95721  0.75070  0.51417  1.0000
  H   H1437     1.0  0.66907  0.49317  0.66610  1.0000
  C   C1794     1.0  0.70959  0.72234  0.69219  1.0000
  C   C1795     1.0  0.72582  0.73700  0.69899  1.0000
  C   C1796     1.0  0.72274  0.75241  0.72424  1.0000
  C   C1797     1.0  0.70313  0.75295  0.74235  1.0000
  P   P60       1.0  0.74350  0.77162  0.73305  1.0000
  C   C1798     1.0  0.74719  0.77347  0.77723  1.0000
  C   C1799     1.0  0.76915  0.76184  0.71549  1.0000
  C   C1800     1.0  0.78204  0.74624  0.73255  1.0000
  C   C1801     1.0  0.80184  0.73857  0.71904  1.0000
  C   C1802     1.0  0.80900  0.74652  0.68865  1.0000
  C   C1803     1.0  0.79620  0.76177  0.67130  1.0000
  C   C1804     1.0  0.77615  0.76914  0.68431  1.0000
  C   C1805     1.0  0.75525  0.79238  0.79105  1.0000
  C   C1806     1.0  0.75905  0.79357  0.82496  1.0000
  C   C1807     1.0  0.75475  0.77594  0.84551  1.0000
  C   C1808     1.0  0.74692  0.75694  0.83195  1.0000
  C   C1809     1.0  0.74312  0.75568  0.79796  1.0000
  C   C1810     1.0  0.73593  0.79840  0.71747  1.0000
  C   C1811     1.0  0.75203  0.81354  0.71108  1.0000
  C   C1812     1.0  0.74626  0.83465  0.70098  1.0000
  C   C1813     1.0  0.72434  0.84101  0.69780  1.0000
  C   C1814     1.0  0.70821  0.82613  0.70417  1.0000
  C   C1815     1.0  0.71393  0.80491  0.71391  1.0000
  H   H1438     1.0  0.68892  0.87910  0.84815  1.0000
  C   C1816     1.0  0.69559  0.85297  0.88259  1.0000
  C   C1817     1.0  0.74350  0.50242  0.80686  1.0000
  H   H1439     1.0  0.74074  0.73613  0.68461  1.0000
  H   H1440     1.0  0.70031  0.76466  0.76186  1.0000
  H   H1441     1.0  0.77681  0.73984  0.75611  1.0000
  H   H1442     1.0  0.81169  0.72632  0.73189  1.0000
  H   H1443     1.0  0.82447  0.74078  0.67847  1.0000
  H   H1444     1.0  0.80201  0.76794  0.64788  1.0000
  H   H1445     1.0  0.76629  0.78061  0.67008  1.0000
  H   H1446     1.0  0.75892  0.80626  0.77580  1.0000
  H   H1447     1.0  0.76561  0.80819  0.83494  1.0000
  H   H1448     1.0  0.75764  0.77696  0.87185  1.0000
  H   H1449     1.0  0.74390  0.74311  0.84774  1.0000
  H   H1450     1.0  0.73732  0.74073  0.78783  1.0000
  H   H1451     1.0  0.76908  0.80928  0.71479  1.0000
  H   H1452     1.0  0.75880  0.84627  0.69663  1.0000
  H   H1453     1.0  0.71980  0.85764  0.69131  1.0000
  H   H1454     1.0  0.69121  0.83132  0.70274  1.0000
  H   H1455     1.0  0.70104  0.79399  0.71952  1.0000
  H   H1456     1.0  0.77839  0.53352  0.72032  1.0000
  H   H1457     1.0  0.81325  0.56854  0.79828  1.0000
  C   C1818     1.0  0.70180  0.75971  0.87841  1.0000
  H   H1458     1.0  0.81805  0.57472  0.66152  1.0000
  C   C1819     1.0  0.82237  0.70572  0.53142  1.0000
  C   C1820     1.0  0.84504  0.70252  0.52893  1.0000
  P   P61       1.0  0.70500  0.81822  0.92551  1.0000
  H   H1459     1.0  0.79327  0.69534  0.55675  1.0000
  C   C1821     1.0  0.73679  0.97869  0.73068  1.0000
  C   C1822     1.0  0.93116  0.80923  0.79442  1.0000
  C   C1823     1.0  0.87153  0.80691  0.82914  1.0000
  H   H1460     1.0  0.84363  0.81395  0.79792  1.0000
  C   C1824     1.0  0.68306  0.86425  0.85902  1.0000
  C   C1825     1.0  0.78575  0.56421  0.74281  1.0000
  H   H1461     1.0  0.74870  0.57581  0.84032  1.0000
  C   C1826     1.0  0.81055  0.69237  0.55272  1.0000
  P   P62       1.0  0.80908  0.72824  0.51021  1.0000
  C   C1827     1.0  0.79575  0.58410  0.73762  1.0000
  H   H1462     1.0  0.87247  0.84045  0.78184  1.0000
  C   C1828     1.0  0.80852  0.75056  0.53901  1.0000
  C   C1829     1.0  0.78894  0.75806  0.55379  1.0000
  C   C1830     1.0  0.78883  0.77545  0.57592  1.0000
  C   C1831     1.0  0.80829  0.78521  0.58384  1.0000
  C   C1832     1.0  0.82791  0.77730  0.57020  1.0000
  C   C1833     1.0  0.82811  0.75986  0.54823  1.0000
  H   H1463     1.0  0.79902  0.52311  0.77629  1.0000
  C   C1834     1.0  0.70065  0.78191  0.88526  1.0000
  H   H1464     1.0  0.82091  0.83004  0.84210  1.0000
  H   H1465     1.0  0.66261  0.81054  0.89619  1.0000
  C   C1835     1.0  0.94320  0.80156  0.58082  1.0000
  C   C1836     1.0  0.82103  0.67496  0.56908  1.0000
  P   P63       1.0  0.76836  0.56054  0.77836  1.0000
  H   H1466     1.0  0.67170  0.73909  0.74920  1.0000
  H   H1467     1.0  0.87492  0.84215  0.67600  1.0000
  H   H1468     1.0  0.91389  0.76610  0.83947  1.0000
  H   H1469     1.0  0.69686  0.75403  0.85431  1.0000
  C   C1837     1.0  0.94687  0.77640  0.83689  1.0000
  H   H1470     1.0  0.77379  0.75036  0.54878  1.0000
  H   H1471     1.0  0.77372  0.78121  0.58732  1.0000
  H   H1472     1.0  0.80831  0.79853  0.60129  1.0000
  H   H1473     1.0  0.84306  0.78443  0.57734  1.0000
  H   H1474     1.0  0.94446  0.79809  0.67662  1.0000
  H   H1475     1.0  0.77410  0.83803  0.87211  1.0000
  H   H1476     1.0  0.81595  0.61577  0.55454  1.0000
  C   C1838     1.0  0.80938  0.57163  0.68441  1.0000
  H   H1477     1.0  0.71073  0.85964  0.89028  1.0000
  C   C1839     1.0  0.78710  0.54840  0.71796  1.0000
  C   C1840     1.0  0.77635  0.83894  0.92516  1.0000
  C   C1841     1.0  0.68685  0.73844  0.73523  1.0000
  H   H1478     1.0  0.84359  0.75360  0.53856  1.0000
  C   C1842     1.0  0.74272  0.57371  0.76755  1.0000
  C   C1843     1.0  0.72802  0.56278  0.74786  1.0000
  C   C1844     1.0  0.87997  0.76807  0.78700  1.0000
  H   H1479     1.0  0.69750  0.56464  0.72202  1.0000
  H   H1480     1.0  0.72795  0.49638  0.81483  1.0000
  C   C1845     1.0  0.87673  0.83241  0.75888  1.0000
  H   H1481     1.0  0.82852  0.58374  0.84900  1.0000
  H   H1482     1.0  0.91221  0.75606  0.77200  1.0000
  H   H1483     1.0  0.92545  0.82196  0.77776  1.0000
  H   H1484     1.0  0.87284  0.81887  0.91144  1.0000
  C   C1846     1.0  0.95329  0.80771  0.80231  1.0000
  C   C1847     1.0  0.68868  0.83323  0.89562  1.0000
  C   C1848     1.0  0.84349  0.67140  0.56545  1.0000
  C   C1849     1.0  0.74463  0.58324  0.49574  1.0000
  C   C1850     1.0  0.73283  0.82663  0.92561  1.0000
  H   H1485     1.0  0.83533  0.83266  0.89912  1.0000
  C   C1851     1.0  0.80235  0.57372  0.81810  1.0000
  H   H1486     1.0  0.70131  0.85831  0.96255  1.0000
  H   H1487     1.0  0.73607  0.82601  0.87239  1.0000
  C   C1852     1.0  0.85553  0.68538  0.54586  1.0000
  H   H1488     1.0  0.92013  0.82833  0.58775  1.0000
  C   C1853     1.0  0.71471  0.77472  0.94014  1.0000
  C   C1854     1.0  0.77437  0.98379  0.71625  1.0000
  C   C1855     1.0  0.86652  0.81763  0.88661  1.0000
  C   C1856     1.0  0.88878  0.73142  0.76773  1.0000
  H   H1489     1.0  0.84567  0.77462  0.79702  1.0000
  C   C1857     1.0  0.70926  0.74496  0.90246  1.0000
  C   C1858     1.0  0.80772  0.58768  0.70867  1.0000
  H   H1490     1.0  0.90061  0.71953  0.75823  1.0000
  C   C1859     1.0  0.85020  0.81465  0.82262  1.0000
  P   P64       1.0  0.88831  0.79528  0.79623  1.0000
  C   C1860     1.0  0.77489  0.58620  0.87063  1.0000
  H   H1491     1.0  0.89590  0.80272  0.86735  1.0000
  C   C1861     1.0  0.87312  0.84367  0.72920  1.0000
  H   H1492     1.0  0.69472  0.78939  0.80788  1.0000
  C   C1862     1.0  0.85797  0.76275  0.78936  1.0000
  C   C1863     1.0  0.79894  0.55208  0.68896  1.0000
  C   C1864     1.0  0.81108  0.58216  0.84696  1.0000
  C   C1865     1.0  0.76681  0.63086  0.52246  1.0000
  C   C1866     1.0  0.78235  0.62438  0.54578  1.0000
  C   C1867     1.0  0.79736  0.58849  0.87316  1.0000
  C   C1868     1.0  0.71865  0.60580  0.76570  1.0000
  C   C1869     1.0  0.88524  0.81094  0.75852  1.0000
  H   H1493     1.0  0.76426  0.59088  0.89105  1.0000
  C   C1870     1.0  0.83724  0.82387  0.84773  1.0000
  C   C1871     1.0  0.70642  0.78954  0.91654  1.0000
  C   C1872     1.0  0.69247  0.82469  0.96488  1.0000
  H   H1494     1.0  0.80415  0.59503  0.89549  1.0000
  C   C1873     1.0  0.72499  0.59498  0.50086  1.0000
  C   C1874     1.0  0.97076  0.69805  0.61337  1.0000
  C   C1875     1.0  0.95673  0.78437  0.63097  1.0000
  H   H1495     1.0  0.86171  0.71046  0.76249  1.0000
  H   H1496     1.0  0.73160  0.53540  0.80298  1.0000
  C   C1876     1.0  0.93144  0.81533  0.63429  1.0000
  H   H1497     1.0  0.93646  0.70161  0.60363  1.0000
  H   H1498     1.0  0.74981  0.63250  0.52977  1.0000
  H   H1499     1.0  0.77742  0.62133  0.57111  1.0000
  H   H1500     1.0  0.95384  0.73610  0.52783  1.0000
  H   H1501     1.0  0.96736  0.76975  0.75689  1.0000
  H   H1502     1.0  0.89890  0.78539  0.72734  1.0000
  C   C1877     1.0  0.67955  0.66876  0.73321  1.0000
  H   H1503     1.0  0.78811  0.68657  0.49671  1.0000
  C   C1878     1.0  0.87957  0.80845  0.86145  1.0000
  C   C1879     1.0  0.92473  0.77789  0.82912  1.0000
  C   C1880     1.0  0.81035  0.62460  0.50336  1.0000
  C   C1881     1.0  0.91676  0.79412  0.80743  1.0000
  C   C1882     1.0  0.77975  0.57189  0.81509  1.0000
  C   C1883     1.0  0.69006  0.72318  0.71011  1.0000
  C   C1884     1.0  0.78260  0.72160  0.49480  1.0000
  C   C1885     1.0  0.96711  0.76836  0.52906  1.0000
  H   H1504     1.0  0.95303  0.76352  0.85299  1.0000
  C   C1886     1.0  0.74558  0.52446  0.79964  1.0000
  C   C1887     1.0  0.80410  0.62121  0.53628  1.0000
  C   C1888     1.0  0.76611  0.57778  0.84179  1.0000
  H   H1505     1.0  0.75275  0.97178  0.81224  1.0000
  C   C1889     1.0  0.73814  0.59550  0.77583  1.0000
  C   C1890     1.0  0.85148  0.74199  0.78089  1.0000
  H   H1506     1.0  0.89187  0.80513  0.67535  1.0000
  C   C1891     1.0  0.86686  0.72633  0.77008  1.0000
  H   H1507     1.0  0.86552  0.85980  0.72948  1.0000
  H   H1508     1.0  0.85477  0.71342  0.51439  1.0000
  H   H1509     1.0  0.72427  0.96905  0.74172  1.0000
  C   C1892     1.0  0.76546  0.53210  0.78780  1.0000
  H   H1510     1.0  0.87309  0.68326  0.54431  1.0000
  H   H1511     1.0  0.83444  0.73816  0.78202  1.0000
  H   H1512     1.0  0.71213  0.71021  0.67308  1.0000
  C   C1893     1.0  0.68177  0.80902  0.98361  1.0000
  H   H1513     1.0  0.97222  0.73051  0.66987  1.0000
  C   C1894     1.0  0.94435  0.79929  0.64986  1.0000
  H   H1514     1.0  0.79282  0.84459  0.92498  1.0000
  C   C1895     1.0  0.99081  0.70799  0.61197  1.0000
  H   H1515     1.0  0.66148  0.62589  0.69014  1.0000
  C   C1896     1.0  0.77910  0.88864  0.97572  1.0000
  C   C1897     1.0  0.89643  0.76110  0.50659  1.0000
  C   C1898     1.0  0.89158  0.80159  0.72825  1.0000
  H   H1516     1.0  0.73569  0.82787  0.97911  1.0000
  C   C1899     1.0  0.74416  0.82879  0.89561  1.0000
  H   H1517     1.0  0.69535  0.79302  0.86595  1.0000
  C   C1900     1.0  0.71592  0.75248  0.93321  1.0000
  C   C1901     1.0  0.89529  0.75224  0.77575  1.0000
  H   H1518     1.0  0.82715  0.62135  0.49626  1.0000
  C   C1902     1.0  0.76575  0.83527  0.89538  1.0000
  H   H1519     1.0  0.85170  0.65815  0.57850  1.0000
  C   C1903     1.0  0.68404  0.80183  0.79732  1.0000
  H   H1520     1.0  0.68902  0.60281  0.73830  1.0000
  C   C1904     1.0  0.66336  0.85606  0.84864  1.0000
  C   C1905     1.0  0.77691  0.69989  0.49056  1.0000
  H   H1521     1.0  0.94208  0.80258  0.55422  1.0000
  H   H1522     1.0  0.79928  0.54007  0.66947  1.0000
  H   H1523     1.0  0.71533  0.62280  0.77118  1.0000
  C   C1906     1.0  0.88808  0.81294  0.69869  1.0000
  H   H1524     1.0  0.81179  0.66448  0.58514  1.0000
  C   C1907     1.0  0.69230  0.82239  0.79014  1.0000
  H   H1525     1.0  0.67742  0.71194  0.70459  1.0000
  C   C1908     1.0  0.95671  0.78573  0.59628  1.0000
  H   H1526     1.0  0.96975  0.68156  0.62254  1.0000
  C   C1909     1.0  0.66849  0.82549  0.88594  1.0000
  H   H1527     1.0  0.96644  0.77189  0.64352  1.0000
  C   C1910     1.0  0.95304  0.73091  0.59212  1.0000
  H   H1528     1.0  0.97838  0.78982  0.82899  1.0000
  H   H1529     1.0  0.65918  0.69144  0.76145  1.0000
  H   H1530     1.0  0.72208  0.74107  0.95166  1.0000
  C   C1911     1.0  0.78125  0.49547  0.79186  1.0000
  C   C1912     1.0  0.74379  0.82982  0.95549  1.0000
  H   H1531     1.0  0.72021  0.78038  0.96388  1.0000
  C   C1913     1.0  0.65954  0.67723  0.74585  1.0000
  H   H1532     1.0  0.68080  0.79259  0.97489  1.0000
  H   H1533     1.0  0.66478  0.75609  0.93994  1.0000
  C   C1914     1.0  0.76542  0.83607  0.95519  1.0000
  H   H1534     1.0  0.77349  0.83942  0.97829  1.0000
  H   H1535     1.0  0.79117  0.97795  0.71600  1.0000
  C   C1915     1.0  0.66224  0.79721  0.79069  1.0000
  C   C1916     1.0  0.66106  0.64015  0.70561  1.0000
  C   C1917     1.0  0.75465  0.98915  0.80970  1.0000
  H   H1536     1.0  0.79651  0.88757  0.97934  1.0000
  C   C1918     1.0  0.69318  0.84599  0.97677  1.0000
  C   C1919     1.0  0.70115  0.49026  0.64468  1.0000
  C   C1920     1.0  0.77299  0.63437  0.48958  1.0000
