data_image0
_chemical_formula_structural       FeS2FeS2FeSFeS3HCHC2HFeS2FeS2FeSFeHS2C2H3C7H3C4HC2H3C4HC3HC2H4C6H4C3H3C3HC6H2C2HCHCHC2H10C3H3C3HC2SHCH2C3H4CH4CSC4HCHCH2C3HCPCH2PCH3C2H2C2HC4HC8HC2HCH3CHPCH2CH5C3HC6FePC6HC6HS2C2H4CHCHCH6CSH3CHCHCH3CPCH3C3H2CHCH2CHC2H3C3H2C2SFeCFeS2FeS2FeSFeS3C3HCHFeS2FeS2FeSFeHS2PHC2HC6H2CHCHC4HC2HCHC2HC5H4C7H4C2HCH2C3HC3H2C4H6CH4C2H2CHSCHCHCHC8HC2H2C5H5CHC2HCPC2HCH2CH2CH2CHSH3CHC8PC4HCHC11H2PH5CPH5C2H3CSC2HC2H3C3HC2HCHCHCH2SCH4CSC3H4CH2C2HCPC2H2C8H4C2H6C3HC3SHC2H2CHC2H4CH2FeS2FeSHFeSFeS3FeS2FeS2FeSFeS3FeS2FeS2FeSFeS3CHC4H2CH3C7H4C6H4C6H4C6H4C2HCH3C4H3C5H4CHCH4C3HCH3CHC4PC15HCH15C4PHC2H2C5PCH2CHC3H3CH3C4H2C2H2C3HC2H2C2PHC2HSCH3CH4C2HC2HC3SCPC2HC3HC11H2C2H2CH3CH3CH5CHCHCH2C2H2CHC3H3PHC4HC3HCH2CH3C2HCHCHCHCH3CHCH2CHC3HC2H3C7PC18H8SH4C3HCH3C3SH3CHC4HC2HC3H2CH3CHCHC5HFeH2CHCHCSHC4PHC3HC4HCHCHCHFeS2FeSHFeSFeS3FeS2FeS2FeSFeS3FeS2FeS2FeSFeS4C8H2CHC6H4C6H4C4HCH4C6H4CHC3H2C6H3C2H6C2HCHC2HC8H3C7PC18H20C7PC4H3C5PH7CH2CH3CHC2HSCHC2H3CH2C2HC3HCHCH3CH3CH3CHSC2HC2HC5HCSHSHC2H3CH5C2H2CH2C2H2CHCHPHCH4C4HCHC6HC8H3C8HCH4C2HCH2CH3C2HCH2CH2C2H2CPC2H2C5H2CH6CHCHC4HCHC2H4CHC6HC2FeS2FeS2FeSFeS3FeS2FeS2FeSFeS3FeS2FeSHFeHFeSCSCH2SC6H4C6H3C2HC4HC4SCHC2HC6H3C6H4CH2CHCH4C4HC6PC7H2CHC7H11CH6CH4SCHC6PC2HC4SC3PH2C2H2C2HC10PC18H20C2HC2H2CH2C7PC16H10CH4CH5C6PC11H3C2H9SHCHC4HCHCH2CHCH3CHC3H3CH4C2FeHSH2C6SC3HCHC2HC2H2C2H6CH6C5H4CHCHC2H2PC3HC6H2CHCHC2H4CHCFeC5PHFeH2CHC3H4SHCFeS2FeS2FeSFeS3FeS2FeS2FeSFeS3FeS2C2HC2FeSCSC3SC6H4C2FeC4H2C2HC3HC5H4CHC7H2C6H4CH2PHCHC2HC2H3C4PC18FeH17C3HC13H11CH2CH3C2H2CHSC3H3CHCH2CHSH3C7H2C9PC8HC9H13CH6C2HCH5CS2CHC2H2C3HC2H6CHPHC4HC3H2C2HC4FeCH3CH3CH3FeHC2HCHC5HCH3C2HC2HC4HCH5CPHC5PH2CH2FeH2CSHCH3C2HCHC2HC2H2C2HC2HCH5C2HCH2C3H3C2SCH3C2HCPHFeS2CH2S2CSHSFeSFeS2FeS2FeCSHSHFeHSFeSH2CSFeS2FeS2FeSFeS3C4H2C6H4C6H4C3H3CPC2HCHC6H5CHCH3C5H2C5HCH2CH2CH6CH4FeCHCHC2HC2HC3HCH2C5HC5HCSH2C3HPC7PC18H12C2H6C6PC10FeC2HCH12C2H3CHCH2C2H5C7HPC2H2CHC2HCH2CHCSH2CH2FeCHSHFeC2HCH2CH3C3HC11PC18H20C4HSCHC3H2C2HC5H4SHCHC2H7CH2CHC4HFeCHCHCHCH2FeC2HCH2CHCHC4FeS2HFeHS2FeSHSFeSFeS2FeS2FeSH2SCFeHSFeS2C2SFeS2FeS2FeSFeS3C3H2C7H4C6H4CPSHC2HCH5C6H4CHC6HCH2CSC5PCH2CHC3H4CHPC5H2CHC3H3C4FeH2CHPCH2CHC7H4C3H4CHCSH4C6H2CHC3SCPC3HCH2CHCHC7HCH2CH2C2H3SCH6C2H3C2H2C3H4CHCHC2HC3HC2HCH2C6PC10H13CH2C2HC2HCH2C6PC7H15C2HCPCH2C6HC8HC4HCFeCH7C7HC2H2C2HCH2C2H4CH2C2HC6H2CHC2HCH2C3H3CHC3HC6SPCHC3H2FeCH2CHCHC3H2C2H2SHCHCSH2Fe2CHC2HCHSHFeCHCS2FeS2CFeSH2C3SFeS2FeS2FeSHS3HSCHSHC6H4C6H4C6H4C6H4C2H2C7PC18H20CH3C9HCHSH2CH2PC2H3FeCHC3H2CPHC3HCHC3HCHCHCHC2HC2HCH3C4H2C2HCH2C2FeH2CHCHC2HCFeH3CH2CHC2HSC4HC3HCHPC2H2CH3C2H2CH2CHCHCHC2PH2CH3C2HCHSC2H2FeH4C3SH2FeHC5HC2HC9H5C2HCHFeCH2C4HCHC3H2CHCHSHSPHFeSC3H2SFeS2FeS2FeSFeHS2HS2FeH2C6H4C6H4C5H3CHC6H4C2H4C2HC7HC2HC5H2C8PCHC3HC3H2CSCH4CH6CSHCHC6PC3HCHC2HC2HC6H5CHCH5CH5C9SCH4C2H2C2FeHC2FeH2CH2SCHC2FeCHSCH2FeCH2C2H7SH3CH4C2HPC13HC3HC2HC2H2SC4HCHFeCHC2H4FeCPSHC2FeSHFeS2FeS2FeSFeS3HC8H2FeHC6H4C6H4C2HC2H3CFeCSC2H2C2H4C2H2C2H5C3HC2HCH2CHC3H3C4HC3HCH3C2HC3H2C7SCSCH3PHCH5CH2C3HC9H3SC2H2CHC2SCHCHC5HCHCH2C3SHCSH3FeSCFeS2FeS2FeSFeS3CHSC2PHC3HCHC6H4C6H5CFeHCSCHC6PC5SC2HC2HC2HCH6PCH4CHCHCH2CHC5HCH2C3H4C4H2C3H4CHCHC2HC2HC6HC2H3C2H2C4HCPC3HC5HC2H2CHCSHC2H2FeH5CHSCH8CH2C2HCFeCSCHFeS2FeS2FeSFeS3FeHCHCSH2CHC7H4C6H4C6H5C3H2C2HC2HC2H2C7H2C2HC4HCHC3HC2H3C3HC2SHPHC5HC3H2CHCH7SC2SCHC2HCHC2H2PC9H2SC2HCHC2H11C3SHCHSHSH5C2PH4CHCHC2HC2HCHC2HCHCPC2HCFeCS2CFeS2FeS2FeSFeS3CH3C4H3C6H4C6H4C6H6CHCHC2H2C3H2CHSC2HCHCH2CH2CHC3HCHCHCH2CHSHC2SHC7PC18H7CH5CH4CH2C2HCH2CPC2HCHCSCHPC3H2CH3C2H2CHC2HCH3C3HC6H2C2HPFeCHC3HC3HC3SFeS2FeHSFeS2H2FeSHSHC3SFeS2FeSC3H3CHC2HCH4C6H4C6H4C6H4C5HC7PC7H2PC3H2C4HCHCH5CHCH2CSCH3S2C3HC2HC3H2C3HCHSCHCHC2HSC5H2CHC2HCH2CHCH2SHCHCHCH3CHC2H2CHCHC2H4CH6CPHC2SC4HCHC2HC6PC4Fe2HCH3CH4C3HCH3CHCHPH2C3H3C2H2C2HC2H2SHPCFeHCFeS2H2FeS3HSHCHFeS2FeS2C3HCH2C3H3C8H4C6H4C6H4CH2FeH2C6H4C8HCFeC6HC4H2C2H5C3H2CH2SC2HCPC4H2C3HC8PC2HC3H2CHFeH2C2HCSCHCHC4HCHC2HC3HCHC2H3CHC3H2C3HC2HC2HC2HC2HC2H4CH3CH4C6H4C2H5C4H3C2SCH4C2HCSHPHC8PHCPHC2FeCHC2H5CH4C3FeHCH3SCH2SCH3SH2FeC2HCSH3SC2HSPHFeHFeCSH2S3Fe2S2H3FeS2CH2S2HFeS2CFeSHSHFeS2FeS2FeSFeS3H5C6H4C6H4C6H3CHC2H2C6H6CSHCH2C2FeCHCHC3H2C2H6C8H9C6PHSCHCH4C2HC6H6CH4CH2CH8C2HSFeC4HC3HC2H2CHSH3CPC3HCHC8H2CHC3HCH2CH4CH2C4HC6H6C7HC2HCHCHCHC4PHCHC2H2C5HFeHC3HSCH2C3HPHC4PC11SHC4HCHCFeCH7C4H2CHPC2SCH2C11PC2H5CH3C6PC18H2CH12PCHC4H2C3HC2H2C2H2C3H2CHCHC2H2C2HCHC2H2CHCHC2HCH4C2FeSCFeCSCS4HFeSCH3FeS2FeSCS3FeS2CFeSPSCFeS2FeS2FeSFeS3CH2CHC6H4C6H4C6H4CHCH2C6H4CHCHC2H2C2HCHCHC2HC2H3CH3CHCHC2HCHC4H5CH4CHC6PC8HC9H11CHCH6C6PC6PC9H9CH5CH2C6H9CH2FeH2CHC3H2FeSHS2HCH3C2HCHC4PC9H2PH6C4FeH2C3H2CH3C3H3C2HCHC2SC3HCHC3HC4FeH2CH2CHSC5H2CSCH3CHCHC3HCH2CFeC2HCHC2HC2HC2HCHCH3CH2C3HC2H4C5HC4HFeH2C2H2C3H2C2H2SFeS2FeS2FeSFeS3FeS2FeS2FeSFeS3HS2CSHSFeHSHSC3FeS2C2HC9H4C6H4C6H4C3HC6H4C2HC3H2C8H4C2HC4PCH2CPC5H7C2H3C2PC10H2CH2C2H5CH3CSCHCH2C4H2CSHCH2C3HC3HC3HCH3CH2C2HCH4PHFeHC4FeH3C2HCH3CPC9PC17H17C6PC18H22C2H3C2HC3HC6HCHC2HCHCHC2H3CHC3HC3HC3HCHCH2C2H2C2H4CH2CHCHFeCH4FeH2C2HCH4CHCHPCHC3HSCHC2H4C2H2C3H2FeCH3CHSH2FeS2FeS2FeSFeS3FeS2FeS2FeSFeS3CSHC3HFeCSHSC3HS2HC11H4C6HC2HC6SC2HPC2HC6H4CPCH3C2HSC6H4C2H3C8H5CSH2C3HC2HCH2CPC9H10C6PC8HC7HCH11CH3SH4C6PC15HPC2H19CH3C3HC2HPHC2H5CHC3H2CHCH3C2HCHC2SHCH3CH3C2H3C2HC2HSH2CHCHC3HC4FeHC4HC2FeH2C5HCHSH5C3H4CH5CHC3H2C2H2C3FeC7FeH2C3HC2HFeCHC4FeHC4HCHC2H4C2H3C2H5CHFeS2FeS2FeSFeS3FeS2FeS2FeSFeS3FeS2HPSFeSFeS3CH2C10H4C6HCH2C3HC6H4C6H4C6PH3CHC2HC4H6C4H2CHCHC12HC8HC7HCH11C2H2CHCHCPCHC3FeHC3H4CHC8HCH2C4H3CH3C3H2C2PSH4CHCH2CPCH2C4H2CSCHC9PC18H21C2HCH2CHC4H3CH3CH2CH2CHSHCHC2H2C2HC2HCH2CH3CHC2H4C3H4FeH2C4H3C14H3C4H2SHCHCH2C3HC6H2CH2CH2CH3CH2C2FePCSHCHFeCFeS2FeS2FeSFeS3FeS2FeS2FeSFeS3FeS2FeCSFeSFeS3C4PCSC6H4C6H4CPH2C6H4C6H4C6H4CHCHC5HCHC7PC18H6CH4FeH8CHC8PC18H20C5SC2P2HC10H2CHC4HC3H8C4HCHC2H7C3H2SHCH3CHC4SC3HCH4C3HC2H6CHPHC4HC2H3C2HC2HC4HC2HCH2C2HC2HCHCHC2H3C4H4CHC2H3CHC2SH3CHC3H2C2H3C2HC3H3PHC2H2SPCSFeHFeS2FeS2FeSFeS3FeS2FeS2FeSFeS3HC2H3C6H2CHCHC4FeC2H2CHC6H4C2H2CH3C2H2CHCHC3HC2H3CHCH2CH7C3HCHCHC3PHC2HCHC9H6C2SH4CHCHC3HCHCH3CHCH2C3HC6HCPH2CHC5HCHCHC3PC21H17C4H3C2H2C3H3CH2C4SH2C3SC2H2C2H2CHC2H2SHCHCHC2H2C5HC2HCH5C2HCH2C3HC3HCHCSCHSHCFeS2FeS2FeSFeS3FeS2FeS2FeSFeCS2H2CSHC7H6PC6HC2HC6H4C2HC3H3CH2CH3C2H2C2HC2H2C2HCPHCHCHC3HC3H2C2H2SHCHCH4FeCHCHC3HC2SCHCFeCHC2H2C4H2C2PH2CSC2H2CH2C6H2CHCH6CPC2SHCHC2H2C7PC5HC10H2C2H4CHC3HCH4CHC3H3C2H6C6PC3HC2H4CHC6H5C3H2C3H6C3H3CHCHC2HC5HC2H2C5HFeCHCHCH2C3H4C4H4CH4CHC
_chemical_formula_sum              "Fe288 S576 H3456 C4320 P144"
_cell_length_a       91.9324
_cell_length_b       87.9235
_cell_length_c       41.4805
_cell_angle_alpha    91.2827
_cell_angle_beta     88.5196
_cell_angle_gamma    112.507

_space_group_name_H-M_alt    "P 1"
_space_group_IT_number       1

loop_
  _space_group_symop_operation_xyz
  'x, y, z'

loop_
  _atom_site_type_symbol
  _atom_site_label
  _atom_site_symmetry_multiplicity
  _atom_site_fract_x
  _atom_site_fract_y
  _atom_site_fract_z
  _atom_site_occupancy
  Fe  Fe1       1.0  0.05343  0.23217  0.30938  1.0000
  S   S1        1.0  0.03847  0.24581  0.29412  1.0000
  S   S2        1.0  0.06764  0.22140  0.27714  1.0000
  Fe  Fe2       1.0  0.04795  0.23654  0.38147  1.0000
  S   S3        1.0  0.03249  0.25048  0.37135  1.0000
  S   S4        1.0  0.05217  0.23389  0.43493  1.0000
  Fe  Fe3       1.0  0.02114  0.23138  0.33297  1.0000
  S   S5        1.0  0.99472  0.22442  0.32337  1.0000
  Fe  Fe4       1.0  0.05062  0.26366  0.33371  1.0000
  S   S6        1.0  0.05994  0.29152  0.33435  1.0000
  S   S7        1.0  0.03532  0.21634  0.34554  1.0000
  S   S8        1.0  0.06677  0.25113  0.34627  1.0000
  H   H1        1.0  0.12544  0.24667  0.34772  1.0000
  C   C1        1.0  0.19552  0.16468  0.39192  1.0000
  H   H2        1.0  0.13225  0.04345  0.24748  1.0000
  C   C2        1.0  0.18077  0.06304  0.21594  1.0000
  C   C3        1.0  0.13969  0.17832  0.04098  1.0000
  H   H3        1.0  0.14592  0.26536  0.38321  1.0000
  Fe  Fe5       1.0  0.14719  0.27137  0.08375  1.0000
  S   S9        1.0  0.15418  0.25286  0.05607  1.0000
  S   S10       1.0  0.15856  0.29925  0.08808  1.0000
  Fe  Fe6       1.0  0.11665  0.24509  0.11062  1.0000
  S   S11       1.0  0.12091  0.22439  0.08428  1.0000
  S   S12       1.0  0.09516  0.24642  0.13721  1.0000
  Fe  Fe7       1.0  0.14623  0.23688  0.10015  1.0000
  S   S13       1.0  0.16029  0.22507  0.12876  1.0000
  Fe  Fe8       1.0  0.12857  0.24158  0.04189  1.0000
  H   H4        1.0  0.13177  0.01777  0.29375  1.0000
  S   S14       1.0  0.14121  0.25657  0.12897  1.0000
  S   S15       1.0  0.12238  0.26102  0.06689  1.0000
  C   C4        1.0  0.97947  0.22696  0.40586  1.0000
  C   C5        1.0  0.17433  0.30245  0.02940  1.0000
  H   H5        1.0  0.18855  0.05845  0.20257  1.0000
  H   H6        1.0  0.01144  0.27417  0.14781  1.0000
  H   H7        1.0  0.15571  0.04511  0.36844  1.0000
  C   C6        1.0  0.18315  0.18675  0.10992  1.0000
  C   C7        1.0  0.18347  0.19400  0.14044  1.0000
  C   C8        1.0  0.17645  0.20566  0.14565  1.0000
  C   C9        1.0  0.16909  0.21037  0.12048  1.0000
  C   C10       1.0  0.16894  0.20328  0.08990  1.0000
  C   C11       1.0  0.17585  0.19152  0.08474  1.0000
  C   C12       1.0  0.12257  0.29033  0.15377  1.0000
  H   H8        1.0  0.17673  0.21108  0.16940  1.0000
  H   H9        1.0  0.16353  0.20690  0.07023  1.0000
  H   H10       1.0  0.15951  0.99052  0.32047  1.0000
  C   C13       1.0  0.96400  0.21930  0.41751  1.0000
  C   C14       1.0  0.04353  0.29006  0.15966  1.0000
  C   C15       1.0  0.97529  0.27484  0.19726  1.0000
  C   C16       1.0  0.13572  0.28809  0.47417  1.0000
  H   H11       1.0  0.07217  0.29710  0.21803  1.0000
  C   C17       1.0  0.18696  0.98728  0.38693  1.0000
  C   C18       1.0  0.06906  0.20410  0.06008  1.0000
  H   H12       1.0  0.96513  0.27485  0.21110  1.0000
  H   H13       1.0  0.16976  0.99826  0.38474  1.0000
  H   H14       1.0  0.06902  0.18998  0.01700  1.0000
  C   C19       1.0  0.06701  0.30243  0.29841  1.0000
  C   C20       1.0  0.18321  0.16892  0.40396  1.0000
  C   C21       1.0  0.06639  0.29432  0.26878  1.0000
  C   C22       1.0  0.17163  0.98684  0.38472  1.0000
  H   H15       1.0  0.06123  0.28101  0.26751  1.0000
  C   C23       1.0  0.06920  0.23253  0.45208  1.0000
  C   C24       1.0  0.08147  0.23123  0.43308  1.0000
  C   C25       1.0  0.09473  0.23017  0.44774  1.0000
  H   H16       1.0  0.06674  0.15359  0.07874  1.0000
  C   C26       1.0  0.96234  0.20878  0.32637  1.0000
  C   C27       1.0  0.17393  0.05582  0.24516  1.0000
  H   H17       1.0  0.08060  0.23074  0.40711  1.0000
  H   H18       1.0  0.10407  0.22898  0.43276  1.0000
  H   H19       1.0  0.08523  0.30054  0.16345  1.0000
  H   H20       1.0  0.19570  0.28487  0.40270  1.0000
  C   C28       1.0  0.08909  0.24037  0.17739  1.0000
  C   C29       1.0  0.08108  0.24862  0.19531  1.0000
  C   C30       1.0  0.07480  0.24327  0.22628  1.0000
  C   C31       1.0  0.07640  0.22952  0.23950  1.0000
  C   C32       1.0  0.08495  0.22168  0.22209  1.0000
  C   C33       1.0  0.09132  0.22709  0.19120  1.0000
  H   H21       1.0  0.07979  0.25923  0.18520  1.0000
  H   H22       1.0  0.06855  0.24963  0.23977  1.0000
  H   H23       1.0  0.08637  0.21119  0.23243  1.0000
  H   H24       1.0  0.09757  0.22073  0.17777  1.0000
  C   C34       1.0  0.97678  0.20798  0.33483  1.0000
  C   C35       1.0  0.97646  0.19435  0.35211  1.0000
  C   C36       1.0  0.96071  0.20905  0.44448  1.0000
  H   H25       1.0  0.98194  0.23455  0.38459  1.0000
  H   H26       1.0  0.98742  0.19355  0.35895  1.0000
  H   H27       1.0  0.08353  0.28444  0.00461  1.0000
  C   C37       1.0  0.18635  0.18474  0.41645  1.0000
  C   C38       1.0  0.20828  0.98576  0.31500  1.0000
  C   C39       1.0  0.18572  0.28069  0.41934  1.0000
  H   H28       1.0  0.17381  0.29427  0.39675  1.0000
  C   C40       1.0  0.13802  0.28088  0.21869  1.0000
  C   C41       1.0  0.12813  0.26516  0.20797  1.0000
  C   C42       1.0  0.13313  0.25202  0.20869  1.0000
  C   C43       1.0  0.14809  0.25452  0.21989  1.0000
  C   C44       1.0  0.15789  0.27008  0.23126  1.0000
  C   C45       1.0  0.15282  0.28319  0.23099  1.0000
  H   H29       1.0  0.17561  0.18612  0.06100  1.0000
  H   H30       1.0  0.10001  0.15197  0.14897  1.0000
  C   C46       1.0  0.09960  0.29266  0.13061  1.0000
  C   C47       1.0  0.11313  0.28913  0.12724  1.0000
  H   H31       1.0  0.98478  0.26042  0.12634  1.0000
  C   C48       1.0  0.12502  0.29651  0.02684  1.0000
  H   H32       1.0  0.10716  0.27292  0.01444  1.0000
  C   C49       1.0  0.03036  0.30130  0.27317  1.0000
  H   H33       1.0  0.09813  0.24560  0.35172  1.0000
  C   C50       1.0  0.10563  0.28330  0.30167  1.0000
  C   C51       1.0  0.11507  0.28384  0.27440  1.0000
  H   H34       1.0  0.96187  0.17118  0.37355  1.0000
  H   H35       1.0  0.11660  0.26309  0.19889  1.0000
  H   H36       1.0  0.12553  0.23999  0.19975  1.0000
  H   H37       1.0  0.15210  0.24441  0.21948  1.0000
  H   H38       1.0  0.16947  0.27199  0.24001  1.0000
  H   H39       1.0  0.03354  0.26601  0.22656  1.0000
  H   H40       1.0  0.13283  0.28725  0.15043  1.0000
  H   H41       1.0  0.18673  0.30769  0.19957  1.0000
  H   H42       1.0  0.09232  0.29165  0.11000  1.0000
  H   H43       1.0  0.11629  0.28526  0.10420  1.0000
  C   C52       1.0  0.12071  0.29791  0.25497  1.0000
  C   C53       1.0  0.10491  0.29865  0.18730  1.0000
  C   C54       1.0  0.13042  0.27561  0.40721  1.0000
  H   H44       1.0  0.05866  0.10911  0.12938  1.0000
  H   H45       1.0  0.10087  0.27222  0.31582  1.0000
  H   H46       1.0  0.11743  0.27298  0.26815  1.0000
  C   C55       1.0  0.05311  0.28298  0.14401  1.0000
  C   C56       1.0  0.05550  0.26983  0.15802  1.0000
  C   C57       1.0  0.04836  0.26382  0.18775  1.0000
  H   H47       1.0  0.99826  0.21257  0.45958  1.0000
  C   C58       1.0  0.18529  0.27004  0.44419  1.0000
  C   C59       1.0  0.97327  0.26685  0.16723  1.0000
  S   S16       1.0  0.20397  0.00612  0.38940  1.0000
  H   H48       1.0  0.05022  0.25363  0.19868  1.0000
  C   C60       1.0  0.03636  0.28413  0.18963  1.0000
  H   H49       1.0  0.10414  0.03909  0.24501  1.0000
  H   H50       1.0  0.09145  0.26375  0.39121  1.0000
  C   C61       1.0  0.15856  0.00220  0.31585  1.0000
  C   C62       1.0  0.08239  0.19904  0.10577  1.0000
  C   C63       1.0  0.17162  0.01688  0.32001  1.0000
  H   H51       1.0  0.08349  0.12292  0.15907  1.0000
  H   H52       1.0  0.19288  0.15239  0.38213  1.0000
  H   H53       1.0  0.97101  0.19922  0.48098  1.0000
  H   H54       1.0  0.18900  0.19051  0.16010  1.0000
  C   C64       1.0  0.17336  0.28609  0.41621  1.0000
  H   H55       1.0  0.08364  0.17481  0.04125  1.0000
  H   H56       1.0  0.16044  0.29511  0.24018  1.0000
  H   H57       1.0  0.96155  0.26068  0.15776  1.0000
  H   H58       1.0  0.08971  0.04237  0.29437  1.0000
  C   C65       1.0  0.13085  0.18745  0.03270  1.0000
  S   S17       1.0  0.19355  0.04750  0.38227  1.0000
  C   C66       1.0  0.07266  0.30346  0.24081  1.0000
  C   C67       1.0  0.02172  0.28888  0.25134  1.0000
  C   C68       1.0  0.16013  0.27015  0.46279  1.0000
  C   C69       1.0  0.01973  0.28266  0.31773  1.0000
  H   H59       1.0  0.16952  0.28915  0.02799  1.0000
  C   C70       1.0  0.00150  0.27457  0.16182  1.0000
  H   H60       1.0  0.07158  0.21686  0.10586  1.0000
  C   C71       1.0  0.17041  0.03197  0.31441  1.0000
  H   H61       1.0  0.13414  0.99123  0.30316  1.0000
  H   H62       1.0  0.17209  0.25637  0.48493  1.0000
  C   C72       1.0  0.99040  0.28270  0.20962  1.0000
  C   C73       1.0  0.15608  0.03256  0.30508  1.0000
  C   C74       1.0  0.20776  0.30789  0.22157  1.0000
  H   H63       1.0  0.18061  0.04324  0.31766  1.0000
  C   C75       1.0  0.07253  0.19228  0.04197  1.0000
  P   P1        1.0  0.13155  0.29783  0.21782  1.0000
  C   C76       1.0  0.17245  0.26467  0.46570  1.0000
  H   H64       1.0  0.17322  0.08820  0.30846  1.0000
  H   H65       1.0  0.00545  0.26344  0.24684  1.0000
  P   P2        1.0  0.14493  0.28853  0.43507  1.0000
  C   C77       1.0  0.16414  0.06196  0.26308  1.0000
  H   H66       1.0  0.18265  0.01659  0.32809  1.0000
  H   H67       1.0  0.19492  0.26596  0.44689  1.0000
  H   H68       1.0  0.17680  0.18800  0.42593  1.0000
  C   C78       1.0  0.10988  0.04869  0.32482  1.0000
  C   C79       1.0  0.10207  0.04436  0.29551  1.0000
  H   H69       1.0  0.05876  0.28772  0.12111  1.0000
  H   H70       1.0  0.06296  0.26433  0.14599  1.0000
  C   C80       1.0  0.13414  0.04964  0.29846  1.0000
  C   C81       1.0  0.12584  0.05126  0.32637  1.0000
  H   H71       1.0  0.09125  0.22712  0.01555  1.0000
  C   C82       1.0  0.16343  0.06528  0.33469  1.0000
  C   C83       1.0  0.17813  0.07661  0.20464  1.0000
  C   C84       1.0  0.01111  0.27025  0.29620  1.0000
  C   C85       1.0  0.16133  0.07542  0.25123  1.0000
  H   H72       1.0  0.20678  0.00937  0.30946  1.0000
  C   C86       1.0  0.98637  0.26672  0.14952  1.0000
  C   C87       1.0  0.07398  0.20746  0.09194  1.0000
  C   C88       1.0  0.17155  0.08237  0.33165  1.0000
  C   C89       1.0  0.17801  0.09219  0.35875  1.0000
  C   C90       1.0  0.17653  0.08504  0.38901  1.0000
  C   C91       1.0  0.16840  0.06810  0.39231  1.0000
  C   C92       1.0  0.16186  0.05825  0.36533  1.0000
  C   C93       1.0  0.12615  0.04508  0.26918  1.0000
  H   H73       1.0  0.19272  0.30360  0.48441  1.0000
  C   C94       1.0  0.11739  0.28326  0.00604  1.0000
  C   C95       1.0  0.07037  0.23268  0.48587  1.0000
  H   H74       1.0  0.11167  0.19447  0.04522  1.0000
  C   C96       1.0  0.00363  0.28261  0.19200  1.0000
  H   H75       1.0  0.10356  0.05004  0.34642  1.0000
  H   H76       1.0  0.18385  0.08252  0.18251  1.0000
  H   H77       1.0  0.06281  0.21087  0.04928  1.0000
  C   C97       1.0  0.16064  0.28113  0.43835  1.0000
  H   H78       1.0  0.13160  0.05451  0.34937  1.0000
  P   P3        1.0  0.02307  0.29259  0.20848  1.0000
  C   C98       1.0  0.01203  0.27334  0.26315  1.0000
  H   H79       1.0  0.11830  0.26325  0.46868  1.0000
  H   H80       1.0  0.00841  0.15742  0.01113  1.0000
  C   C99       1.0  0.96191  0.18169  0.36043  1.0000
  H   H81       1.0  0.18448  0.10531  0.35611  1.0000
  H   H82       1.0  0.18184  0.09255  0.40992  1.0000
  H   H83       1.0  0.16750  0.06257  0.41578  1.0000
  H   H84       1.0  0.96241  0.21925  0.31306  1.0000
  H   H85       1.0  0.15380  0.08036  0.26456  1.0000
  C   C100      1.0  0.10345  0.26446  0.38874  1.0000
  C   C101      1.0  0.16847  0.08283  0.22235  1.0000
  C   C102      1.0  0.11498  0.27516  0.40876  1.0000
  H   H86       1.0  0.03630  0.30762  0.32296  1.0000
  C   C103      1.0  0.11795  0.18689  0.05193  1.0000
  C   C104      1.0  0.11020  0.04253  0.26772  1.0000
  C   C105      1.0  0.07069  0.14714  0.09613  1.0000
  C   C106      1.0  0.10182  0.29680  0.31003  1.0000
  C   C107      1.0  0.09601  0.23058  0.48154  1.0000
  C   C108      1.0  0.08600  0.18716  0.08776  1.0000
  Fe  Fe9       1.0  0.20725  0.16118  0.12846  1.0000
  P   P4        1.0  0.09718  0.17640  0.10534  1.0000
  C   C109      1.0  0.10448  0.18561  0.14408  1.0000
  C   C110      1.0  0.08483  0.15504  0.11264  1.0000
  C   C111      1.0  0.08931  0.14614  0.13547  1.0000
  C   C112      1.0  0.07992  0.12965  0.14142  1.0000
  C   C113      1.0  0.11865  0.29526  0.18409  1.0000
  C   C114      1.0  0.10721  0.25420  0.36672  1.0000
  H   H87       1.0  0.14305  0.16226  0.07586  1.0000
  C   C115      1.0  0.12024  0.19637  0.14760  1.0000
  C   C116      1.0  0.12567  0.20342  0.17774  1.0000
  C   C117      1.0  0.11546  0.19976  0.20454  1.0000
  C   C118      1.0  0.09977  0.18902  0.20125  1.0000
  C   C119      1.0  0.09426  0.18206  0.17113  1.0000
  C   C120      1.0  0.11369  0.17710  0.07964  1.0000
  H   H88       1.0  0.17120  0.15994  0.40365  1.0000
  S   S18       1.0  0.19680  0.07699  0.45763  1.0000
  S   S19       1.0  0.19115  0.17135  0.10189  1.0000
  C   C121      1.0  0.13577  0.16880  0.06876  1.0000
  C   C122      1.0  0.12286  0.16820  0.08804  1.0000
  H   H89       1.0  0.99176  0.28877  0.23303  1.0000
  H   H90       1.0  0.11168  0.28270  0.42613  1.0000
  H   H91       1.0  0.09424  0.29625  0.33084  1.0000
  H   H92       1.0  0.13419  0.19527  0.01172  1.0000
  C   C123      1.0  0.13419  0.26543  0.38473  1.0000
  H   H93       1.0  0.01946  0.28009  0.34323  1.0000
  C   C124      1.0  0.98866  0.21450  0.44803  1.0000
  H   H94       1.0  0.12071  0.29658  0.05135  1.0000
  C   C125      1.0  0.09552  0.29744  0.16067  1.0000
  H   H95       1.0  0.16670  0.09356  0.21385  1.0000
  H   H96       1.0  0.12838  0.19943  0.12718  1.0000
  H   H97       1.0  0.13785  0.21174  0.18022  1.0000
  H   H98       1.0  0.11968  0.20531  0.22782  1.0000
  H   H99       1.0  0.09183  0.18625  0.22202  1.0000
  H   H100      1.0  0.08199  0.17400  0.16889  1.0000
  C   C126      1.0  0.97323  0.20695  0.45997  1.0000
  S   S20       1.0  0.19919  0.13443  0.14319  1.0000
  H   H101      1.0  0.04983  0.30432  0.04805  1.0000
  H   H102      1.0  0.14991  0.17904  0.02648  1.0000
  H   H103      1.0  0.12036  0.16110  0.10985  1.0000
  C   C127      1.0  0.06132  0.13063  0.10215  1.0000
  H   H104      1.0  0.04170  0.30014  0.14838  1.0000
  C   C128      1.0  0.12268  0.27417  0.48388  1.0000
  H   H105      1.0  0.00397  0.25811  0.30511  1.0000
  C   C129      1.0  0.99176  0.22442  0.42086  1.0000
  H   H106      1.0  0.17656  0.04566  0.25378  1.0000
  H   H107      1.0  0.10134  0.30240  0.21002  1.0000
  H   H108      1.0  0.15031  0.26587  0.47980  1.0000
  C   C130      1.0  0.12260  0.25479  0.36453  1.0000
  P   P5        1.0  0.15459  0.05232  0.30019  1.0000
  C   C131      1.0  0.14300  0.01775  0.30082  1.0000
  H   H109      1.0  0.20680  0.17662  0.32813  1.0000
  H   H110      1.0  0.05043  0.12462  0.08932  1.0000
  H   H111      1.0  0.00368  0.23001  0.41122  1.0000
  C   C132      1.0  0.03883  0.27091  0.20352  1.0000
  C   C133      1.0  0.13870  0.30936  0.01653  1.0000
  C   C134      1.0  0.14428  0.00263  0.30615  1.0000
  H   H112      1.0  0.20745  0.12278  0.03907  1.0000
  H   H113      1.0  0.08630  0.20223  0.13024  1.0000
  C   C135      1.0  0.08089  0.18378  0.05577  1.0000
  H   H114      1.0  0.13055  0.30813  0.40030  1.0000
  C   C136      1.0  0.06594  0.12189  0.12473  1.0000
  H   H115      1.0  0.15633  0.30596  0.16798  1.0000
  H   H116      1.0  0.14489  0.30092  0.31625  1.0000
  C   C137      1.0  0.02921  0.29821  0.30625  1.0000
  H   H117      1.0  0.20420  0.20867  0.42618  1.0000
  C   C138      1.0  0.20181  0.19638  0.41662  1.0000
  C   C139      1.0  0.19046  0.99079  0.27876  1.0000
  H   H118      1.0  0.18580  0.99920  0.26857  1.0000
  H   H119      1.0  0.20636  0.09807  0.32526  1.0000
  H   H120      1.0  0.20647  0.12416  0.30257  1.0000
  C   C140      1.0  0.20232  0.99657  0.30161  1.0000
  C   C141      1.0  0.14188  0.30145  0.49569  1.0000
  C   C142      1.0  0.20793  0.09145  0.48700  1.0000
  H   H121      1.0  0.09015  0.28988  0.49246  1.0000
  H   H122      1.0  0.06647  0.26443  0.48390  1.0000
  C   C143      1.0  0.20812  0.10029  0.29970  1.0000
  C   C144      1.0  0.20822  0.11503  0.28677  1.0000
  S   S21       1.0  0.20808  0.06875  0.29398  1.0000
  Fe  Fe10      1.0  0.20828  0.06579  0.41954  1.0000
  C   C145      1.0  0.20696  0.10725  0.99740  1.0000
  Fe  Fe11      1.0  0.04842  0.22071  0.79982  1.0000
  S   S22       1.0  0.03756  0.23946  0.79364  1.0000
  S   S23       1.0  0.05385  0.20759  0.75616  1.0000
  Fe  Fe12      1.0  0.05078  0.22543  0.87324  1.0000
  S   S24       1.0  0.04023  0.24453  0.87172  1.0000
  S   S25       1.0  0.05617  0.21930  0.92377  1.0000
  Fe  Fe13      1.0  0.02238  0.22753  0.83728  1.0000
  S   S26       1.0  0.99664  0.22493  0.84716  1.0000
  Fe  Fe14      1.0  0.05604  0.25453  0.82850  1.0000
  S   S27       1.0  0.07417  0.28075  0.82605  1.0000
  S   S28       1.0  0.03211  0.20772  0.84120  1.0000
  S   S29       1.0  0.06769  0.23638  0.83232  1.0000
  C   C146      1.0  0.07564  0.29520  0.79597  1.0000
  C   C147      1.0  0.07600  0.28382  0.57002  1.0000
  C   C148      1.0  0.11616  0.20706  0.74065  1.0000
  H   H123      1.0  0.96526  0.22078  0.86895  1.0000
  C   C149      1.0  0.14363  0.20534  0.70242  1.0000
  H   H124      1.0  0.08081  0.26028  0.61562  1.0000
  Fe  Fe15      1.0  0.14754  0.26788  0.57872  1.0000
  S   S30       1.0  0.15029  0.24950  0.54352  1.0000
  S   S31       1.0  0.15810  0.29576  0.58026  1.0000
  Fe  Fe16      1.0  0.12455  0.24128  0.62171  1.0000
  S   S32       1.0  0.12536  0.22041  0.58929  1.0000
  S   S33       1.0  0.11527  0.24528  0.67136  1.0000
  Fe  Fe17      1.0  0.15169  0.23467  0.58621  1.0000
  S   S34       1.0  0.17296  0.22684  0.58629  1.0000
  Fe  Fe18      1.0  0.12392  0.23649  0.54820  1.0000
  H   H125      1.0  0.19396  0.28227  0.90234  1.0000
  S   S35       1.0  0.15089  0.25435  0.62096  1.0000
  S   S36       1.0  0.12119  0.25595  0.58100  1.0000
  P   P6        1.0  0.08010  0.29321  0.60973  1.0000
  H   H126      1.0  0.06078  0.23320  0.50082  1.0000
  C   C150      1.0  0.17720  0.29980  0.52597  1.0000
  C   C151      1.0  0.15725  0.27322  0.95834  1.0000
  H   H127      1.0  0.17429  0.28667  0.52657  1.0000
  C   C152      1.0  0.18542  0.18411  0.62421  1.0000
  C   C153      1.0  0.16985  0.18343  0.62689  1.0000
  C   C154      1.0  0.16579  0.19626  0.61523  1.0000
  C   C155      1.0  0.17727  0.21007  0.60098  1.0000
  C   C156      1.0  0.19283  0.21077  0.59835  1.0000
  C   C157      1.0  0.11750  0.14718  0.73542  1.0000
  H   H128      1.0  0.16085  0.17286  0.63792  1.0000
  H   H129      1.0  0.15382  0.19550  0.61720  1.0000
  C   C158      1.0  0.09691  0.20912  0.78011  1.0000
  H   H130      1.0  0.09608  0.30250  0.54669  1.0000
  C   C159      1.0  0.15956  0.26856  0.73619  1.0000
  H   H131      1.0  0.11577  0.28744  0.55809  1.0000
  C   C160      1.0  0.98967  0.15278  0.93946  1.0000
  C   C161      1.0  0.08580  0.29129  0.54358  1.0000
  C   C162      1.0  0.99375  0.16728  0.85540  1.0000
  C   C163      1.0  0.19080  0.98854  0.89161  1.0000
  H   H132      1.0  0.05716  0.30943  0.84378  1.0000
  C   C164      1.0  0.18360  0.98782  0.86195  1.0000
  C   C165      1.0  0.99546  0.15931  0.96989  1.0000
  H   H133      1.0  0.18569  0.99909  0.84926  1.0000
  C   C166      1.0  0.12400  0.26341  0.85146  1.0000
  H   H134      1.0  0.00256  0.12118  0.93604  1.0000
  C   C167      1.0  0.06339  0.29314  0.77487  1.0000
  C   C168      1.0  0.19689  0.19790  0.60982  1.0000
  H   H135      1.0  0.05288  0.28199  0.77563  1.0000
  C   C169      1.0  0.07504  0.22540  0.94131  1.0000
  C   C170      1.0  0.08899  0.23120  0.92280  1.0000
  C   C171      1.0  0.10364  0.23502  0.93761  1.0000
  C   C172      1.0  0.96946  0.14325  0.85974  1.0000
  C   C173      1.0  0.07599  0.22413  0.97489  1.0000
  H   H136      1.0  0.20425  0.13244  0.78201  1.0000
  H   H137      1.0  0.08846  0.23229  0.89696  1.0000
  H   H138      1.0  0.11432  0.23903  0.92297  1.0000
  H   H139      1.0  0.14600  0.27007  0.87532  1.0000
  C   C174      1.0  0.07531  0.29419  0.96473  1.0000
  C   C175      1.0  0.09726  0.23511  0.69232  1.0000
  C   C176      1.0  0.09381  0.24284  0.71982  1.0000
  C   C177      1.0  0.08030  0.23472  0.73895  1.0000
  C   C178      1.0  0.07018  0.21867  0.73098  1.0000
  C   C179      1.0  0.07332  0.21116  0.70281  1.0000
  C   C180      1.0  0.08675  0.21942  0.68337  1.0000
  H   H140      1.0  0.10180  0.25507  0.72669  1.0000
  H   H141      1.0  0.07791  0.24075  0.76026  1.0000
  H   H142      1.0  0.06542  0.19885  0.69622  1.0000
  H   H143      1.0  0.08916  0.21360  0.66182  1.0000
  C   C181      1.0  0.97804  0.20787  0.84395  1.0000
  C   C182      1.0  0.97649  0.19305  0.82843  1.0000
  H   H144      1.0  0.11802  0.27189  0.96008  1.0000
  C   C183      1.0  0.96433  0.20937  0.85712  1.0000
  H   H145      1.0  0.98679  0.19176  0.81767  1.0000
  H   H146      1.0  0.08599  0.20338  0.79372  1.0000
  C   C184      1.0  0.10624  0.27569  0.87276  1.0000
  C   C185      1.0  0.10972  0.26551  0.85017  1.0000
  C   C186      1.0  0.06909  0.26991  0.50786  1.0000
  H   H147      1.0  0.18712  0.30538  0.98414  1.0000
  C   C187      1.0  0.13156  0.28207  0.89774  1.0000
  C   C188      1.0  0.11708  0.28393  0.89651  1.0000
  C   C189      1.0  0.10454  0.23341  0.97111  1.0000
  H   H148      1.0  0.06649  0.27555  0.89099  1.0000
  H   H149      1.0  0.18691  0.22687  0.67132  1.0000
  C   C190      1.0  0.02268  0.27632  0.84811  1.0000
  C   C191      1.0  0.16782  0.26563  0.96370  1.0000
  C   C192      1.0  0.14564  0.99257  0.88356  1.0000
  C   C193      1.0  0.98507  0.21069  0.92624  1.0000
  H   H150      1.0  0.03436  0.30447  0.94239  1.0000
  H   H151      1.0  0.95944  0.13519  0.87360  1.0000
  H   H152      1.0  0.01168  0.18550  0.92394  1.0000
  H   H153      1.0  0.11514  0.13571  0.72228  1.0000
  H   H154      1.0  0.04883  0.25140  0.53007  1.0000
  H   H155      1.0  0.03481  0.29317  0.81040  1.0000
  C   C194      1.0  0.17305  0.28723  0.91227  1.0000
  H   H156      1.0  0.09517  0.27727  0.87152  1.0000
  H   H157      1.0  0.10134  0.25936  0.83156  1.0000
  H   H158      1.0  0.05463  0.26362  0.58476  1.0000
  H   H159      1.0  0.20308  0.10183  0.87297  1.0000
  C   C195      1.0  0.09067  0.22831  0.98978  1.0000
  C   C196      1.0  0.20043  0.09906  0.50808  1.0000
  H   H160      1.0  0.17995  0.20368  0.70926  1.0000
  H   H161      1.0  0.16743  0.30668  0.76798  1.0000
  C   C197      1.0  0.13730  0.29569  0.96450  1.0000
  H   H162      1.0  0.17125  0.28115  0.77898  1.0000
  S   S37       1.0  0.19884  0.04967  0.88261  1.0000
  C   C198      1.0  0.12013  0.29729  0.71667  1.0000
  H   H163      1.0  0.14320  0.28459  0.68047  1.0000
  C   C199      1.0  0.03568  0.28129  0.89957  1.0000
  H   H164      1.0  0.02353  0.21565  0.92986  1.0000
  C   C200      1.0  0.98765  0.18422  0.92214  1.0000
  H   H165      1.0  0.20745  0.14936  0.83782  1.0000
  C   C201      1.0  0.05922  0.26818  0.69184  1.0000
  C   C202      1.0  0.06152  0.25342  0.68810  1.0000
  C   C203      1.0  0.06923  0.25065  0.66050  1.0000
  C   C204      1.0  0.07472  0.26264  0.63668  1.0000
  C   C205      1.0  0.07246  0.27752  0.64019  1.0000
  C   C206      1.0  0.06457  0.28015  0.66794  1.0000
  C   C207      1.0  0.19160  0.14386  0.75542  1.0000
  C   C208      1.0  0.10425  0.29477  0.71380  1.0000
  H   H166      1.0  0.14622  0.00132  0.86512  1.0000
  C   C209      1.0  0.14949  0.28412  0.70197  1.0000
  C   C210      1.0  0.15743  0.99667  0.90654  1.0000
  H   H167      1.0  0.20090  0.14868  0.73728  1.0000
  H   H168      1.0  0.11424  0.29194  0.91354  1.0000
  C   C211      1.0  0.15542  0.20021  0.71304  1.0000
  C   C212      1.0  0.04804  0.29514  0.88713  1.0000
  C   C213      1.0  0.11530  0.27411  0.51374  1.0000
  C   C214      1.0  0.17099  0.20804  0.70204  1.0000
  C   C215      1.0  0.07967  0.26867  0.96265  1.0000
  H   H169      1.0  0.98776  0.13355  0.90423  1.0000
  H   H170      1.0  0.05334  0.27036  0.71340  1.0000
  H   H171      1.0  0.05736  0.24414  0.70664  1.0000
  H   H172      1.0  0.07108  0.23924  0.65773  1.0000
  H   H173      1.0  0.06262  0.29145  0.67153  1.0000
  C   C216      1.0  0.11874  0.23369  0.76345  1.0000
  H   H174      1.0  0.16128  0.25730  0.74103  1.0000
  C   C217      1.0  0.12113  0.28774  0.53448  1.0000
  C   C218      1.0  0.05915  0.26254  0.53395  1.0000
  H   H175      1.0  0.20183  0.22137  0.58738  1.0000
  C   C219      1.0  0.15532  0.29781  0.72293  1.0000
  P   P7        1.0  0.14629  0.29421  0.92601  1.0000
  C   C220      1.0  0.17495  0.22114  0.68074  1.0000
  C   C221      1.0  0.98078  0.15729  0.87406  1.0000
  H   H176      1.0  0.00513  0.17143  0.80853  1.0000
  C   C222      1.0  0.07025  0.27770  0.91573  1.0000
  H   H177      1.0  0.98474  0.14695  0.78330  1.0000
  H   H178      1.0  0.97780  0.21787  0.92537  1.0000
  C   C223      1.0  0.08375  0.23192  0.50055  1.0000
  H   H179      1.0  0.96245  0.14634  0.97626  1.0000
  H   H180      1.0  0.00672  0.23195  0.93027  1.0000
  C   C224      1.0  0.00055  0.13181  0.94553  1.0000
  H   H181      1.0  0.16604  0.98861  0.94784  1.0000
  H   H182      1.0  0.17520  0.29546  0.89209  1.0000
  C   C225      1.0  0.06463  0.30576  0.75332  1.0000
  H   H183      1.0  0.05381  0.29699  0.57571  1.0000
  S   S38       1.0  0.20327  0.00757  0.91020  1.0000
  H   H184      1.0  0.18242  0.07480  0.74959  1.0000
  H   H185      1.0  0.18931  0.26315  0.94812  1.0000
  H   H186      1.0  0.16649  0.23627  0.65311  1.0000
  C   C226      1.0  0.98373  0.14968  0.80867  1.0000
  H   H187      1.0  0.10051  0.23350  0.79740  1.0000
  C   C227      1.0  0.13438  0.30141  0.52544  1.0000
  C   C228      1.0  0.00405  0.19232  0.92510  1.0000
  C   C229      1.0  0.17531  0.06608  0.82926  1.0000
  C   C230      1.0  0.17711  0.06357  0.79629  1.0000
  C   C231      1.0  0.18060  0.07665  0.77505  1.0000
  C   C232      1.0  0.18252  0.09232  0.78677  1.0000
  C   C233      1.0  0.18077  0.09499  0.81993  1.0000
  C   C234      1.0  0.17711  0.08170  0.84107  1.0000
  P   P8        1.0  0.18392  0.11533  0.83578  1.0000
  C   C235      1.0  0.16963  0.11310  0.86790  1.0000
  C   C236      1.0  0.20344  0.12449  0.85235  1.0000
  C   C237      1.0  0.00384  0.15221  0.98783  1.0000
  C   C238      1.0  0.97821  0.19356  0.92264  1.0000
  H   H188      1.0  0.19400  0.00165  0.77950  1.0000
  C   C239      1.0  0.15985  0.28422  0.93275  1.0000
  H   H189      1.0  0.12663  0.25542  0.83402  1.0000
  C   C240      1.0  0.17404  0.12221  0.89678  1.0000
  C   C241      1.0  0.16303  0.11997  0.92196  1.0000
  C   C242      1.0  0.14755  0.10870  0.91846  1.0000
  C   C243      1.0  0.14304  0.09967  0.88972  1.0000
  C   C244      1.0  0.15404  0.10184  0.86452  1.0000
  C   C245      1.0  0.18146  0.12795  0.80405  1.0000
  C   C246      1.0  0.19348  0.13461  0.78079  1.0000
  C   C247      1.0  0.20625  0.00542  0.78596  1.0000
  C   C248      1.0  0.17771  0.14666  0.75312  1.0000
  C   C249      1.0  0.16571  0.14025  0.77635  1.0000
  C   C250      1.0  0.16754  0.13091  0.80172  1.0000
  H   H190      1.0  0.17286  0.05599  0.84577  1.0000
  H   H191      1.0  0.17627  0.05160  0.78729  1.0000
  P   P9        1.0  0.97900  0.16213  0.91626  1.0000
  H   H192      1.0  0.18571  0.10228  0.76982  1.0000
  H   H193      1.0  0.17593  0.08344  0.86682  1.0000
  H   H194      1.0  0.05507  0.30423  0.73725  1.0000
  H   H195      1.0  0.08976  0.18731  0.70142  1.0000
  H   H196      1.0  0.07453  0.25536  0.91735  1.0000
  C   C251      1.0  0.99521  0.16347  0.82287  1.0000
  P   P10       1.0  0.06467  0.30652  0.91228  1.0000
  H   H197      1.0  0.18600  0.13088  0.90022  1.0000
  H   H198      1.0  0.16658  0.12684  0.94438  1.0000
  H   H199      1.0  0.13909  0.10689  0.93815  1.0000
  H   H200      1.0  0.13107  0.09085  0.88712  1.0000
  H   H201      1.0  0.15043  0.09463  0.84250  1.0000
  C   C252      1.0  0.13494  0.27172  0.87503  1.0000
  C   C253      1.0  0.04758  0.29935  0.85478  1.0000
  H   H202      1.0  0.17627  0.15372  0.73318  1.0000
  H   H203      1.0  0.15495  0.14245  0.77449  1.0000
  H   H204      1.0  0.15806  0.12600  0.81923  1.0000
  C   C254      1.0  0.00641  0.13849  0.97563  1.0000
  S   S39       1.0  0.12308  0.23701  0.98833  1.0000
  C   C255      1.0  0.08241  0.28426  0.51269  1.0000
  C   C256      1.0  0.97088  0.13956  0.82712  1.0000
  H   H205      1.0  0.01310  0.26877  0.83287  1.0000
  C   C257      1.0  0.99218  0.13890  0.92750  1.0000
  C   C258      1.0  0.07987  0.28264  0.97973  1.0000
  H   H206      1.0  0.20308  0.98192  0.80591  1.0000
  H   H207      1.0  0.14721  0.25917  0.69215  1.0000
  H   H208      1.0  0.09514  0.28341  0.72204  1.0000
  C   C259      1.0  0.18766  0.30942  0.50219  1.0000
  C   C260      1.0  0.16336  0.22642  0.67036  1.0000
  C   C261      1.0  0.10245  0.19960  0.75961  1.0000
  H   H209      1.0  0.01370  0.26107  0.88950  1.0000
  C   C262      1.0  0.16518  0.28199  0.75747  1.0000
  C   C263      1.0  0.18367  0.27970  0.91787  1.0000
  H   H210      1.0  0.08442  0.23197  0.52655  1.0000
  C   C264      1.0  0.05802  0.30659  0.59392  1.0000
  H   H211      1.0  0.12471  0.24697  0.76398  1.0000
  C   C265      1.0  0.07484  0.26623  0.93068  1.0000
  H   H212      1.0  0.96564  0.18780  0.91922  1.0000
  C   C266      1.0  0.18108  0.26895  0.94364  1.0000
  H   H213      1.0  0.06529  0.21977  0.98940  1.0000
  H   H214      1.0  0.12303  0.28780  0.72765  1.0000
  S   S40       1.0  0.18980  0.16749  0.63945  1.0000
  C   C267      1.0  0.96155  0.18002  0.82611  1.0000
  H   H215      1.0  0.20046  0.09767  0.60990  1.0000
  H   H216      1.0  0.20309  0.07868  0.56720  1.0000
  H   H217      1.0  0.10538  0.28249  0.62991  1.0000
  H   H218      1.0  0.10531  0.26329  0.52117  1.0000
  C   C268      1.0  0.10511  0.22613  0.78221  1.0000
  S   S41       1.0  0.11279  0.22868  0.49862  1.0000
  C   C269      1.0  0.17082  0.30726  0.54933  1.0000
  C   C270      1.0  0.00137  0.21864  0.92895  1.0000
  C   C271      1.0  0.02302  0.27201  0.88018  1.0000
  H   H219      1.0  0.07559  0.30491  0.97831  1.0000
  H   H220      1.0  0.15267  0.18994  0.72912  1.0000
  H   H221      1.0  0.12659  0.18835  0.78241  1.0000
  H   H222      1.0  0.00267  0.17817  0.86560  1.0000
  C   C272      1.0  0.01085  0.20945  0.92848  1.0000
  H   H223      1.0  0.03599  0.27741  0.92404  1.0000
  H   H224      1.0  0.09587  0.18643  0.75823  1.0000
  C   C273      1.0  0.15168  0.26962  0.70856  1.0000
  C   C274      1.0  0.12422  0.22422  0.74266  1.0000
  H   H225      1.0  0.96060  0.16873  0.81378  1.0000
  C   C275      1.0  0.14773  0.21849  0.68086  1.0000
  P   P11       1.0  0.12323  0.19451  0.71441  1.0000
  C   C276      1.0  0.12144  0.17615  0.73569  1.0000
  C   C277      1.0  0.11840  0.16122  0.71891  1.0000
  H   H226      1.0  0.16798  0.30574  0.65932  1.0000
  H   H227      1.0  0.12468  0.16343  0.81134  1.0000
  C   C278      1.0  0.12290  0.16280  0.78554  1.0000
  C   C279      1.0  0.12386  0.17688  0.76909  1.0000
  C   C280      1.0  0.11155  0.18825  0.67848  1.0000
  C   C281      1.0  0.11842  0.18557  0.64938  1.0000
  C   C282      1.0  0.10946  0.18063  0.62153  1.0000
  C   C283      1.0  0.09352  0.17818  0.62254  1.0000
  C   C284      1.0  0.08649  0.18045  0.65154  1.0000
  C   C285      1.0  0.09545  0.18543  0.67943  1.0000
  H   H228      1.0  0.08314  0.25964  0.97411  1.0000
  H   H229      1.0  0.13879  0.22241  0.67165  1.0000
  H   H230      1.0  0.11684  0.16039  0.69306  1.0000
  H   H231      1.0  0.13454  0.23046  0.72787  1.0000
  C   C286      1.0  0.12356  0.28276  0.97508  1.0000
  C   C287      1.0  0.06256  0.26944  0.56492  1.0000
  H   H232      1.0  0.11893  0.13703  0.78147  1.0000
  H   H233      1.0  0.13071  0.18729  0.64810  1.0000
  H   H234      1.0  0.11497  0.17896  0.59901  1.0000
  H   H235      1.0  0.08666  0.17464  0.60079  1.0000
  H   H236      1.0  0.07415  0.17866  0.65231  1.0000
  H   H237      1.0  0.16728  0.00847  0.90570  1.0000
  C   C288      1.0  0.07047  0.29179  0.93251  1.0000
  C   C289      1.0  0.11969  0.14794  0.76872  1.0000
  C   C290      1.0  0.14483  0.30900  0.98549  1.0000
  H   H238      1.0  0.08786  0.30546  0.70024  1.0000
  C   C291      1.0  0.10010  0.30711  0.70126  1.0000
  C   C292      1.0  0.11057  0.29525  0.62293  1.0000
  C   C293      1.0  0.16306  0.29655  0.75096  1.0000
  S   S42       1.0  0.20537  0.08710  0.94459  1.0000
  H   H239      1.0  0.14711  0.27041  0.97435  1.0000
  C   C294      1.0  0.13323  0.97714  0.88420  1.0000
  C   C295      1.0  0.15675  0.98542  0.93032  1.0000
  H   H240      1.0  0.16567  0.25718  0.98355  1.0000
  H   H241      1.0  0.01298  0.13304  0.98947  1.0000
  C   C296      1.0  0.07053  0.30775  0.61390  1.0000
  H   H242      1.0  0.96189  0.12896  0.81603  1.0000
  C   C297      1.0  0.10123  0.30373  0.61320  1.0000
  C   C298      1.0  0.03491  0.29002  0.83548  1.0000
  H   H243      1.0  0.18790  0.09598  0.50617  1.0000
  H   H244      1.0  0.13414  0.29647  0.63013  1.0000
  H   H245      1.0  0.99354  0.16994  0.97969  1.0000
  H   H246      1.0  0.20050  0.11251  0.98285  1.0000
  C   C299      1.0  0.12697  0.30315  0.62320  1.0000
  H   H247      1.0  0.20310  0.11624  0.54800  1.0000
  H   H248      1.0  0.09580  0.30639  0.89274  1.0000
  Fe  Fe19      1.0  0.01168  0.55517  0.41441  1.0000
  S   S43       1.0  0.02525  0.57058  0.37322  1.0000
  S   S44       1.0  0.98513  0.54375  0.42211  1.0000
  Fe  Fe20      1.0  0.04125  0.55735  0.44813  1.0000
  S   S45       1.0  0.05744  0.57268  0.40873  1.0000
  H   H249      1.0  0.01512  0.56535  0.17638  1.0000
  Fe  Fe21      1.0  0.04197  0.58729  0.40981  1.0000
  S   S46       1.0  0.05068  0.61511  0.39957  1.0000
  Fe  Fe22      1.0  0.03991  0.55517  0.37436  1.0000
  S   S47       1.0  0.04652  0.54871  0.32380  1.0000
  S   S48       1.0  0.02682  0.57308  0.45110  1.0000
  S   S49       1.0  0.02522  0.53860  0.41369  1.0000
  Fe  Fe23      1.0  0.11731  0.39428  0.21011  1.0000
  S   S50       1.0  0.11595  0.37438  0.17373  1.0000
  S   S51       1.0  0.11046  0.41617  0.19976  1.0000
  Fe  Fe24      1.0  0.13150  0.37981  0.26218  1.0000
  S   S52       1.0  0.13089  0.35888  0.22968  1.0000
  S   S53       1.0  0.13677  0.37941  0.31575  1.0000
  Fe  Fe25      1.0  0.14007  0.37757  0.19027  1.0000
  S   S54       1.0  0.15818  0.37225  0.15849  1.0000
  Fe  Fe26      1.0  0.10705  0.35718  0.21548  1.0000
  S   S55       1.0  0.08815  0.33192  0.20730  1.0000
  S   S56       1.0  0.14244  0.39890  0.22394  1.0000
  S   S57       1.0  0.10664  0.37673  0.25073  1.0000
  Fe  Fe27      1.0  0.00615  0.44926  0.16335  1.0000
  S   S58       1.0  0.02363  0.44617  0.12734  1.0000
  S   S59       1.0  0.97951  0.44175  0.16278  1.0000
  Fe  Fe28      1.0  0.03180  0.46919  0.21077  1.0000
  S   S60       1.0  0.05138  0.46779  0.17868  1.0000
  S   S61       1.0  0.03426  0.47789  0.26319  1.0000
  Fe  Fe29      1.0  0.03795  0.47294  0.13806  1.0000
  S   S62       1.0  0.05139  0.49134  0.09950  1.0000
  Fe  Fe30      1.0  0.03595  0.44125  0.17018  1.0000
  S   S63       1.0  0.04332  0.41912  0.17237  1.0000
  S   S64       1.0  0.01973  0.47642  0.17112  1.0000
  S   S65       1.0  0.01716  0.44220  0.20517  1.0000
  C   C300      1.0  0.02000  0.32268  0.19826  1.0000
  H   H250      1.0  0.20099  0.32182  0.40864  1.0000
  C   C301      1.0  0.10824  0.62480  0.44430  1.0000
  C   C302      1.0  0.15569  0.38500  0.33271  1.0000
  C   C303      1.0  0.15682  0.38121  0.36510  1.0000
  C   C304      1.0  0.17160  0.38569  0.37969  1.0000
  H   H251      1.0  0.11964  0.32183  0.24767  1.0000
  H   H252      1.0  0.97089  0.50101  0.17116  1.0000
  C   C305      1.0  0.16951  0.39323  0.31496  1.0000
  H   H253      1.0  0.14623  0.37470  0.37896  1.0000
  H   H254      1.0  0.17231  0.38303  0.40481  1.0000
  H   H255      1.0  0.06511  0.42477  0.35518  1.0000
  C   C306      1.0  0.98789  0.47882  0.21038  1.0000
  C   C307      1.0  0.18317  0.39825  0.06595  1.0000
  C   C308      1.0  0.18385  0.38327  0.07481  1.0000
  C   C309      1.0  0.17597  0.37537  0.10305  1.0000
  C   C310      1.0  0.16736  0.38233  0.12263  1.0000
  C   C311      1.0  0.16661  0.39723  0.11369  1.0000
  C   C312      1.0  0.17447  0.40513  0.08546  1.0000
  H   H256      1.0  0.19050  0.37784  0.06000  1.0000
  H   H257      1.0  0.17667  0.36386  0.10987  1.0000
  H   H258      1.0  0.16036  0.40289  0.12906  1.0000
  H   H259      1.0  0.17407  0.41680  0.07906  1.0000
  C   C313      1.0  0.06214  0.41869  0.18010  1.0000
  C   C314      1.0  0.07557  0.43305  0.18450  1.0000
  C   C315      1.0  0.09021  0.43203  0.19062  1.0000
  C   C316      1.0  0.09165  0.41668  0.19239  1.0000
  C   C317      1.0  0.07821  0.40232  0.18811  1.0000
  C   C318      1.0  0.06357  0.40335  0.18203  1.0000
  H   H260      1.0  0.07465  0.44491  0.18327  1.0000
  H   H261      1.0  0.10051  0.44320  0.19395  1.0000
  H   H262      1.0  0.07913  0.39045  0.18930  1.0000
  H   H263      1.0  0.05327  0.39220  0.17864  1.0000
  C   C319      1.0  0.02867  0.51885  0.03761  1.0000
  C   C320      1.0  0.98856  0.45782  0.29199  1.0000
  C   C321      1.0  0.05155  0.51341  0.05324  1.0000
  C   C322      1.0  0.04236  0.50157  0.07549  1.0000
  C   C323      1.0  0.02625  0.49822  0.07835  1.0000
  C   C324      1.0  0.01945  0.50676  0.05940  1.0000
  H   H264      1.0  0.11754  0.33485  0.17089  1.0000
  H   H265      1.0  0.01191  0.52918  0.34229  1.0000
  H   H266      1.0  0.01909  0.48906  0.09524  1.0000
  H   H267      1.0  0.00697  0.50399  0.06163  1.0000
  C   C325      1.0  0.04146  0.52868  0.30692  1.0000
  C   C326      1.0  0.04246  0.52675  0.27325  1.0000
  C   C327      1.0  0.03951  0.51114  0.25916  1.0000
  C   C328      1.0  0.03594  0.49740  0.27876  1.0000
  C   C329      1.0  0.03479  0.49932  0.31228  1.0000
  C   C330      1.0  0.03737  0.51483  0.32636  1.0000
  H   H268      1.0  0.04593  0.53740  0.25801  1.0000
  H   H269      1.0  0.04062  0.50985  0.23335  1.0000
  H   H270      1.0  0.03247  0.48882  0.32741  1.0000
  H   H271      1.0  0.03680  0.51621  0.35228  1.0000
  C   C331      1.0  0.06430  0.63377  0.41694  1.0000
  C   C332      1.0  0.00272  0.51747  0.33596  1.0000
  H   H272      1.0  0.16884  0.44055  0.05854  1.0000
  C   C333      1.0  0.07119  0.63433  0.44687  1.0000
  H   H273      1.0  0.03832  0.31323  0.26489  1.0000
  H   H274      1.0  0.11450  0.43284  0.35718  1.0000
  H   H275      1.0  0.06832  0.62310  0.46025  1.0000
  C   C334      1.0  0.12573  0.35959  0.46903  1.0000
  C   C335      1.0  0.97286  0.42005  0.11070  1.0000
  C   C336      1.0  0.96713  0.42836  0.13363  1.0000
  C   C337      1.0  0.18860  0.42197  0.47407  1.0000
  H   H276      1.0  0.04671  0.36209  0.19081  1.0000
  H   H277      1.0  0.17788  0.33171  0.15277  1.0000
  H   H278      1.0  0.98513  0.42165  0.11073  1.0000
  C   C338      1.0  0.18427  0.39778  0.32962  1.0000
  C   C339      1.0  0.97939  0.53772  0.35717  1.0000
  C   C340      1.0  0.97297  0.53617  0.38839  1.0000
  C   C341      1.0  0.99503  0.44613  0.28421  1.0000
  C   C342      1.0  0.19193  0.32242  0.24329  1.0000
  H   H279      1.0  0.99197  0.54375  0.35342  1.0000
  H   H280      1.0  0.98667  0.46619  0.21372  1.0000
  H   H281      1.0  0.16776  0.41956  0.01733  1.0000
  H   H282      1.0  0.18015  0.42334  0.39526  1.0000
  C   C343      1.0  0.18682  0.33700  0.03248  1.0000
  H   H283      1.0  0.14268  0.57785  0.16940  1.0000
  C   C344      1.0  0.08015  0.32882  0.27194  1.0000
  H   H284      1.0  0.05648  0.56062  0.17693  1.0000
  H   H285      1.0  0.02113  0.46609  0.46837  1.0000
  H   H286      1.0  0.08551  0.34211  0.27340  1.0000
  H   H287      1.0  0.04918  0.43017  0.23976  1.0000
  C   C345      1.0  0.17096  0.33137  0.17452  1.0000
  C   C346      1.0  0.17395  0.34567  0.19305  1.0000
  C   C347      1.0  0.16492  0.34521  0.22087  1.0000
  H   H288      1.0  0.15173  0.36904  0.05297  1.0000
  C   C348      1.0  0.06045  0.33476  0.10518  1.0000
  H   H289      1.0  0.18307  0.35719  0.18553  1.0000
  H   H290      1.0  0.16723  0.35636  0.23514  1.0000
  H   H291      1.0  0.96098  0.44718  0.36610  1.0000
  C   C349      1.0  0.04396  0.51985  0.15813  1.0000
  H   H292      1.0  0.02822  0.57591  0.12427  1.0000
  C   C350      1.0  0.97043  0.48084  0.07320  1.0000
  C   C351      1.0  0.06871  0.54490  0.18845  1.0000
  C   C352      1.0  0.06893  0.52903  0.18567  1.0000
  C   C353      1.0  0.05615  0.51638  0.17149  1.0000
  P   P12       1.0  0.08521  0.52503  0.20172  1.0000
  C   C354      1.0  0.08780  0.50743  0.18297  1.0000
  C   C355      1.0  0.10330  0.54202  0.19197  1.0000
  C   C356      1.0  0.10499  0.55010  0.16246  1.0000
  C   C357      1.0  0.11610  0.54667  0.21285  1.0000
  C   C358      1.0  0.09423  0.49797  0.20021  1.0000
  C   C359      1.0  0.09614  0.48434  0.18556  1.0000
  C   C360      1.0  0.09213  0.48037  0.15332  1.0000
  C   C361      1.0  0.08649  0.49021  0.13556  1.0000
  C   C362      1.0  0.08453  0.50381  0.15017  1.0000
  C   C363      1.0  0.08194  0.52324  0.24482  1.0000
  C   C364      1.0  0.07498  0.50774  0.25921  1.0000
  C   C365      1.0  0.07252  0.50655  0.29263  1.0000
  C   C366      1.0  0.07630  0.52079  0.31173  1.0000
  C   C367      1.0  0.08261  0.53624  0.29744  1.0000
  C   C368      1.0  0.08545  0.53749  0.26413  1.0000
  H   H293      1.0  0.03451  0.51020  0.14585  1.0000
  C   C369      1.0  0.96727  0.45114  0.47668  1.0000
  H   H294      1.0  0.96975  0.42763  0.47941  1.0000
  H   H295      1.0  0.07817  0.55473  0.20028  1.0000
  H   H296      1.0  0.05567  0.50390  0.17015  1.0000
  H   H297      1.0  0.09544  0.54634  0.14548  1.0000
  H   H298      1.0  0.11523  0.54023  0.23522  1.0000
  H   H299      1.0  0.09779  0.50108  0.22493  1.0000
  H   H300      1.0  0.10066  0.47678  0.19919  1.0000
  H   H301      1.0  0.09333  0.46964  0.14211  1.0000
  H   H302      1.0  0.08329  0.48715  0.11056  1.0000
  H   H303      1.0  0.08024  0.51130  0.13580  1.0000
  H   H304      1.0  0.07090  0.49657  0.24466  1.0000
  H   H305      1.0  0.06678  0.49457  0.30347  1.0000
  H   H306      1.0  0.07367  0.51985  0.33741  1.0000
  H   H307      1.0  0.09009  0.54957  0.25342  1.0000
  H   H308      1.0  0.09272  0.40000  0.40666  1.0000
  C   C370      1.0  0.97470  0.45538  0.06813  1.0000
  C   C371      1.0  0.02590  0.33976  0.19413  1.0000
  C   C372      1.0  0.04663  0.32379  0.20134  1.0000
  C   C373      1.0  0.99300  0.45024  0.37898  1.0000
  P   P13       1.0  0.14146  0.39337  0.48045  1.0000
  H   H309      1.0  0.96169  0.50504  0.44444  1.0000
  C   C374      1.0  0.01762  0.55270  0.09926  1.0000
  C   C375      1.0  0.05251  0.34084  0.19732  1.0000
  H   H310      1.0  0.09741  0.41143  0.46246  1.0000
  H   H311      1.0  0.09590  0.39836  0.05140  1.0000
  C   C376      1.0  0.10784  0.32566  0.01294  1.0000
  C   C377      1.0  0.04215  0.34885  0.19372  1.0000
  C   C378      1.0  0.99677  0.50513  0.35894  1.0000
  C   C379      1.0  0.99479  0.46350  0.43161  1.0000
  C   C380      1.0  0.10471  0.40534  0.45204  1.0000
  P   P14       1.0  0.96381  0.46758  0.30899  1.0000
  C   C381      1.0  0.99448  0.51196  0.47305  1.0000
  H   H312      1.0  0.97451  0.53285  0.30663  1.0000
  H   H313      1.0  0.12034  0.56927  0.13170  1.0000
  C   C382      1.0  0.97286  0.45274  0.30297  1.0000
  H   H314      1.0  0.18560  0.34470  0.42425  1.0000
  C   C383      1.0  0.00741  0.53625  0.10173  1.0000
  C   C384      1.0  0.14564  0.32566  0.31979  1.0000
  C   C385      1.0  0.02778  0.55957  0.25795  1.0000
  H   H315      1.0  0.19852  0.42603  0.49013  1.0000
  H   H316      1.0  0.00134  0.50732  0.38313  1.0000
  H   H317      1.0  0.11528  0.44134  0.41407  1.0000
  C   C386      1.0  0.14261  0.31583  0.40549  1.0000
  H   H318      1.0  0.16200  0.34921  0.48795  1.0000
  H   H319      1.0  0.17465  0.33407  0.07846  1.0000
  H   H320      1.0  0.98270  0.54769  0.25288  1.0000
  C   C387      1.0  0.97975  0.47179  0.07836  1.0000
  C   C388      1.0  0.17712  0.32776  0.05766  1.0000
  C   C389      1.0  0.05640  0.54827  0.17539  1.0000
  C   C390      1.0  0.11647  0.31128  0.26323  1.0000
  H   H321      1.0  0.20274  0.43280  0.43210  1.0000
  H   H322      1.0  0.09122  0.44167  0.44206  1.0000
  C   C391      1.0  0.19467  0.31219  0.21963  1.0000
  C   C392      1.0  0.13591  0.43844  0.01987  1.0000
  H   H323      1.0  0.08700  0.60855  0.42135  1.0000
  H   H324      1.0  0.18774  0.32263  0.35829  1.0000
  C   C393      1.0  0.97908  0.49857  0.18639  1.0000
  C   C394      1.0  0.15143  0.37054  0.02716  1.0000
  C   C395      1.0  0.96366  0.43580  0.30515  1.0000
  H   H325      1.0  0.14589  0.33073  0.25129  1.0000
  C   C396      1.0  0.00196  0.50799  0.22037  1.0000
  C   C397      1.0  0.96271  0.40975  0.08746  1.0000
  H   H326      1.0  0.08373  0.35297  0.11147  1.0000
  H   H327      1.0  0.08054  0.47338  0.28854  1.0000
  C   C398      1.0  0.04415  0.53579  0.15979  1.0000
  C   C399      1.0  0.01965  0.55000  0.23191  1.0000
  P   P15       1.0  0.98821  0.46325  0.47310  1.0000
  H   H328      1.0  0.98024  0.49801  0.27245  1.0000
  C   C400      1.0  0.07648  0.34238  0.09730  1.0000
  C   C401      1.0  0.07360  0.31970  0.29976  1.0000
  H   H329      1.0  0.16398  0.37798  0.49189  1.0000
  S   S66       1.0  0.19391  0.37750  0.46593  1.0000
  C   C402      1.0  0.12465  0.34331  0.46703  1.0000
  H   H330      1.0  0.14850  0.45270  0.06055  1.0000
  H   H331      1.0  0.96726  0.40349  0.06957  1.0000
  H   H332      1.0  0.02315  0.55738  0.07613  1.0000
  C   C403      1.0  0.00345  0.56037  0.27987  1.0000
  H   H333      1.0  0.01162  0.51759  0.23200  1.0000
  H   H334      1.0  0.05477  0.31778  0.20440  1.0000
  H   H335      1.0  0.06252  0.41365  0.26308  1.0000
  H   H336      1.0  0.99093  0.42038  0.28022  1.0000
  C   C404      1.0  0.20840  0.34111  0.33600  1.0000
  C   C405      1.0  0.13023  0.55963  0.20480  1.0000
  H   H337      1.0  0.11361  0.33352  0.46072  1.0000
  C   C406      1.0  0.96149  0.52380  0.21652  1.0000
  C   C407      1.0  0.98493  0.49005  0.35070  1.0000
  H   H338      1.0  0.14075  0.33727  0.38457  1.0000
  C   C408      1.0  0.03065  0.64068  0.46864  1.0000
  C   C409      1.0  0.17118  0.34749  0.31136  1.0000
  C   C410      1.0  0.16393  0.34260  0.40249  1.0000
  S   S67       1.0  0.19283  0.40867  0.03065  1.0000
  C   C411      1.0  0.17360  0.33659  0.41890  1.0000
  P   P16       1.0  0.10391  0.34617  0.06206  1.0000
  C   C412      1.0  0.11491  0.33951  0.09011  1.0000
  C   C413      1.0  0.20004  0.33039  0.36068  1.0000
  H   H339      1.0  0.16884  0.39631  0.29008  1.0000
  C   C414      1.0  0.99124  0.51158  0.20144  1.0000
  C   C415      1.0  0.14834  0.33236  0.39642  1.0000
  C   C416      1.0  0.11674  0.40388  0.47016  1.0000
  H   H340      1.0  0.12025  0.41518  0.08020  1.0000
  C   C417      1.0  0.12850  0.33695  0.07980  1.0000
  C   C418      1.0  0.13780  0.33332  0.10211  1.0000
  C   C419      1.0  0.13384  0.33265  0.13486  1.0000
  C   C420      1.0  0.12042  0.33519  0.14536  1.0000
  C   C421      1.0  0.11089  0.33847  0.12313  1.0000
  C   C422      1.0  0.10940  0.36815  0.06719  1.0000
  C   C423      1.0  0.09962  0.37569  0.05549  1.0000
  C   C424      1.0  0.10358  0.39261  0.05996  1.0000
  C   C425      1.0  0.11728  0.40211  0.07620  1.0000
  C   C426      1.0  0.12704  0.39471  0.08793  1.0000
  C   C427      1.0  0.12316  0.37780  0.08352  1.0000
  H   H341      1.0  0.11221  0.36545  0.00217  1.0000
  H   H342      1.0  0.99719  0.56429  0.29871  1.0000
  C   C428      1.0  0.19096  0.42590  0.44144  1.0000
  C   C429      1.0  0.13172  0.56785  0.17568  1.0000
  H   H343      1.0  0.08482  0.54724  0.31211  1.0000
  H   H344      1.0  0.02330  0.63690  0.44758  1.0000
  C   C430      1.0  0.13775  0.33962  0.47346  1.0000
  H   H345      1.0  0.13226  0.33822  0.05481  1.0000
  H   H346      1.0  0.14835  0.33147  0.09430  1.0000
  H   H347      1.0  0.14137  0.33058  0.15225  1.0000
  C   C431      1.0  0.12328  0.38929  0.42551  1.0000
  H   H348      1.0  0.10077  0.34071  0.13219  1.0000
  H   H349      1.0  0.08885  0.36845  0.04331  1.0000
  H   H350      1.0  0.17825  0.36057  0.31067  1.0000
  C   C432      1.0  0.98479  0.49979  0.29658  1.0000
  H   H351      1.0  0.13754  0.40208  0.10090  1.0000
  H   H352      1.0  0.13089  0.37240  0.09325  1.0000
  H   H353      1.0  0.06513  0.34781  0.19724  1.0000
  H   H354      1.0  0.01415  0.48728  0.43608  1.0000
  H   H355      1.0  0.10956  0.44708  0.26445  1.0000
  C   C433      1.0  0.17799  0.33577  0.30638  1.0000
  H   H356      1.0  0.14980  0.35148  0.32150  1.0000
  C   C434      1.0  0.11913  0.56305  0.15448  1.0000
  H   H357      1.0  0.99248  0.51717  0.13249  1.0000
  C   C435      1.0  0.97880  0.48729  0.31946  1.0000
  H   H358      1.0  0.19484  0.40449  0.31585  1.0000
  H   H359      1.0  0.10940  0.38589  0.38295  1.0000
  C   C436      1.0  0.99680  0.51477  0.30480  1.0000
  C   C437      1.0  0.00016  0.49166  0.22503  1.0000
  H   H360      1.0  0.05800  0.45997  0.25226  1.0000
  H   H361      1.0  0.03361  0.61760  0.47145  1.0000
  C   C438      1.0  0.14853  0.38386  0.01528  1.0000
  H   H362      1.0  0.96412  0.51718  0.23583  1.0000
  C   C439      1.0  0.96944  0.54121  0.16955  1.0000
  C   C440      1.0  0.11138  0.39091  0.40733  1.0000
  C   C441      1.0  0.09076  0.43776  0.41699  1.0000
  H   H363      1.0  0.96838  0.47226  0.17834  1.0000
  H   H364      1.0  0.00709  0.45006  0.27547  1.0000
  H   H365      1.0  0.13022  0.38282  0.41500  1.0000
  P   P17       1.0  0.99284  0.53257  0.19640  1.0000
  H   H366      1.0  0.19170  0.35031  0.03391  1.0000
  C   C442      1.0  0.02049  0.56306  0.12639  1.0000
  C   C443      1.0  0.18426  0.31168  0.00452  1.0000
  C   C444      1.0  0.98980  0.49528  0.46476  1.0000
  C   C445      1.0  0.01316  0.55695  0.15598  1.0000
  H   H367      1.0  0.09394  0.45698  0.31298  1.0000
  C   C446      1.0  0.00601  0.46371  0.36796  1.0000
  C   C447      1.0  0.07333  0.32248  0.05400  1.0000
  C   C448      1.0  0.16780  0.32024  0.42882  1.0000
  H   H368      1.0  0.00490  0.52845  0.08037  1.0000
  C   C449      1.0  0.04474  0.52202  0.03433  1.0000
  H   H369      1.0  0.98197  0.44841  0.07213  1.0000
  H   H370      1.0  0.97818  0.54814  0.15186  1.0000
  C   C450      1.0  0.14886  0.31636  0.21024  1.0000
  H   H371      1.0  0.01788  0.34602  0.19151  1.0000
  H   H372      1.0  0.97473  0.49369  0.08057  1.0000
  H   H373      1.0  0.05552  0.33948  0.12519  1.0000
  C   C451      1.0  0.98589  0.42935  0.28691  1.0000
  C   C452      1.0  0.10798  0.34133  0.02091  1.0000
  H   H374      1.0  0.05198  0.53129  0.01769  1.0000
  C   C453      1.0  0.09867  0.63063  0.39418  1.0000
  H   H375      1.0  0.14631  0.39222  0.03228  1.0000
  C   C454      1.0  0.01342  0.47706  0.38863  1.0000
  H   H376      1.0  0.00839  0.48892  0.23974  1.0000
  C   C455      1.0  0.05728  0.31495  0.06183  1.0000
  H   H377      1.0  0.06617  0.43333  0.41251  1.0000
  C   C456      1.0  0.98737  0.45012  0.41071  1.0000
  H   H378      1.0  0.04105  0.51952  0.47091  1.0000
  H   H379      1.0  0.12733  0.44413  0.02011  1.0000
  H   H380      1.0  0.00150  0.52442  0.28721  1.0000
  C   C457      1.0  0.00034  0.52996  0.13137  1.0000
  H   H381      1.0  0.07402  0.32603  0.32261  1.0000
  C   C458      1.0  0.12100  0.63995  0.44283  1.0000
  H   H382      1.0  0.01048  0.46375  0.34351  1.0000
  H   H383      1.0  0.03486  0.53844  0.14875  1.0000
  C   C459      1.0  0.15503  0.34241  0.31772  1.0000
  H   H384      1.0  0.13639  0.45260  0.24381  1.0000
  C   C460      1.0  0.00791  0.47694  0.42030  1.0000
  C   C461      1.0  0.15929  0.43646  0.04154  1.0000
  C   C462      1.0  0.16311  0.41109  0.43250  1.0000
  H   H385      1.0  0.02604  0.57193  0.30230  1.0000
  C   C463      1.0  0.18544  0.39390  0.36195  1.0000
  C   C464      1.0  0.15253  0.33060  0.22964  1.0000
  H   H386      1.0  0.98062  0.48059  0.36876  1.0000
  H   H387      1.0  0.04035  0.56282  0.26003  1.0000
  H   H388      1.0  0.14006  0.56322  0.22104  1.0000
  C   C465      1.0  0.20224  0.32840  0.26917  1.0000
  C   C466      1.0  0.06152  0.37325  0.32478  1.0000
  C   C467      1.0  0.06179  0.36619  0.29434  1.0000
  C   C468      1.0  0.06996  0.37611  0.26876  1.0000
  C   C469      1.0  0.07804  0.39303  0.27366  1.0000
  C   C470      1.0  0.07779  0.40025  0.30406  1.0000
  C   C471      1.0  0.06945  0.39023  0.32967  1.0000
  P   P18       1.0  0.08867  0.42212  0.30961  1.0000
  C   C472      1.0  0.08962  0.42785  0.35191  1.0000
  C   C473      1.0  0.10828  0.42641  0.29360  1.0000
  C   C474      1.0  0.11630  0.41636  0.30213  1.0000
  C   C475      1.0  0.13160  0.41970  0.29051  1.0000
  C   C476      1.0  0.13891  0.43288  0.26982  1.0000
  C   C477      1.0  0.13093  0.44278  0.26080  1.0000
  C   C478      1.0  0.11565  0.43956  0.27258  1.0000
  C   C479      1.0  0.07609  0.42819  0.36790  1.0000
  C   C480      1.0  0.07665  0.43306  0.40034  1.0000
  C   C481      1.0  0.16837  0.31892  0.30777  1.0000
  C   C482      1.0  0.10431  0.43759  0.40121  1.0000
  C   C483      1.0  0.10378  0.43266  0.36881  1.0000
  C   C484      1.0  0.07927  0.43405  0.29001  1.0000
  C   C485      1.0  0.06660  0.42661  0.26918  1.0000
  C   C486      1.0  0.05895  0.43596  0.25583  1.0000
  C   C487      1.0  0.06398  0.45280  0.26274  1.0000
  C   C488      1.0  0.07666  0.46033  0.28319  1.0000
  C   C489      1.0  0.08423  0.45100  0.29690  1.0000
  H   H389      1.0  0.05527  0.36552  0.34466  1.0000
  H   H390      1.0  0.05584  0.35302  0.29064  1.0000
  H   H391      1.0  0.07038  0.37066  0.24525  1.0000
  H   H392      1.0  0.08472  0.40051  0.25384  1.0000
  H   H393      1.0  0.06920  0.39535  0.35350  1.0000
  H   H394      1.0  0.11076  0.40592  0.31775  1.0000
  H   H395      1.0  0.13772  0.41187  0.29711  1.0000
  H   H396      1.0  0.15062  0.43518  0.26017  1.0000
  S   S68       1.0  0.20497  0.33817  0.47150  1.0000
  H   H397      1.0  0.98738  0.43983  0.36297  1.0000
  H   H398      1.0  0.17534  0.31600  0.44248  1.0000
  H   H399      1.0  0.99581  0.47075  0.28900  1.0000
  H   H400      1.0  0.16854  0.35523  0.39478  1.0000
  C   C490      1.0  0.00321  0.54025  0.15883  1.0000
  C   C491      1.0  0.96023  0.44794  0.05301  1.0000
  C   C492      1.0  0.15305  0.36846  0.48418  1.0000
  H   H401      1.0  0.02611  0.54594  0.21378  1.0000
  C   C493      1.0  0.10204  0.39888  0.42064  1.0000
  H   H402      1.0  0.97741  0.43951  0.41895  1.0000
  H   H403      1.0  0.15364  0.40689  0.41560  1.0000
  H   H404      1.0  0.02357  0.48750  0.38038  1.0000
  C   C494      1.0  0.15468  0.35964  0.00593  1.0000
  C   C495      1.0  0.01550  0.45837  0.48858  1.0000
  C   C496      1.0  0.08307  0.33634  0.07155  1.0000
  S   S69       1.0  0.01967  0.53022  0.01660  1.0000
  H   H405      1.0  0.06402  0.51605  0.05079  1.0000
  H   H406      1.0  0.15762  0.34977  0.01525  1.0000
  H   H407      1.0  0.96027  0.47193  0.47406  1.0000
  C   C497      1.0  0.00328  0.54544  0.22969  1.0000
  H   H408      1.0  0.07798  0.31745  0.03419  1.0000
  C   C498      1.0  0.15857  0.31676  0.18318  1.0000
  C   C499      1.0  0.15860  0.42448  0.01823  1.0000
  C   C500      1.0  0.96948  0.53162  0.33069  1.0000
  C   C501      1.0  0.01968  0.56469  0.28196  1.0000
  H   H409      1.0  0.10695  0.61664  0.46430  1.0000
  C   C502      1.0  0.17821  0.42057  0.42073  1.0000
  C   C503      1.0  0.97317  0.53244  0.19379  1.0000
  H   H410      1.0  0.99090  0.47742  0.09039  1.0000
  C   C504      1.0  0.97753  0.48228  0.19059  1.0000
  C   C505      1.0  0.07990  0.32071  0.24247  1.0000
  C   C506      1.0  0.97020  0.42418  0.29742  1.0000
  H   H411      1.0  0.11531  0.36211  0.46489  1.0000
  H   H412      1.0  0.99271  0.52042  0.45649  1.0000
  C   C507      1.0  0.99275  0.48440  0.48553  1.0000
  H   H413      1.0  0.18185  0.32577  0.24127  1.0000
  H   H414      1.0  0.98433  0.49100  0.44171  1.0000
  H   H415      1.0  0.10522  0.31634  0.03126  1.0000
  C   C508      1.0  0.14787  0.44334  0.04256  1.0000
  H   H416      1.0  0.14501  0.31921  0.03316  1.0000
  C   C509      1.0  0.99526  0.55085  0.25378  1.0000
  H   H417      1.0  0.13689  0.32705  0.47168  1.0000
  C   C510      1.0  0.05084  0.32109  0.08740  1.0000
  C   C511      1.0  0.20680  0.36301  0.28426  1.0000
  C   C512      1.0  0.12616  0.39584  0.45701  1.0000
  C   C513      1.0  0.09707  0.62015  0.42000  1.0000
  C   C514      1.0  0.96922  0.50568  0.01483  1.0000
  H   H418      1.0  0.10425  0.32123  0.29714  1.0000
  Fe  Fe31      1.0  0.20687  0.39843  0.99681  1.0000
  H   H419      1.0  0.00739  0.31595  0.19888  1.0000
  H   H420      1.0  0.08981  0.62707  0.37566  1.0000
  C   C515      1.0  0.16065  0.40676  0.46521  1.0000
  H   H421      1.0  0.04940  0.34446  0.01087  1.0000
  C   C516      1.0  0.14010  0.37237  0.47666  1.0000
  H   H422      1.0  0.97390  0.49616  0.01550  1.0000
  C   C517      1.0  0.13521  0.42648  0.99647  1.0000
  S   S70       1.0  0.20439  0.39978  0.37906  1.0000
  H   H423      1.0  0.20456  0.35613  0.23352  1.0000
  C   C518      1.0  0.19058  0.32897  0.00602  1.0000
  C   C519      1.0  0.03036  0.31455  0.20187  1.0000
  C   C520      1.0  0.03642  0.62976  0.48216  1.0000
  C   C521      1.0  0.15191  0.35214  0.48235  1.0000
  P   P19       1.0  0.19891  0.34215  0.29888  1.0000
  H   H424      1.0  0.96302  0.41115  0.29880  1.0000
  C   C522      1.0  0.11161  0.35319  0.99669  1.0000
  C   C523      1.0  0.10731  0.31080  0.29086  1.0000
  C   C524      1.0  0.15225  0.31391  0.31462  1.0000
  H   H425      1.0  0.03841  0.31524  0.09350  1.0000
  C   C525      1.0  0.17356  0.41236  0.48590  1.0000
  C   C526      1.0  0.17086  0.31046  0.05624  1.0000
  C   C527      1.0  0.20749  0.32984  0.38934  1.0000
  C   C528      1.0  0.20818  0.36612  0.25101  1.0000
  H   H426      1.0  0.15258  0.31184  0.48983  1.0000
  C   C529      1.0  0.96166  0.43393  0.47939  1.0000
  H   H427      1.0  0.13328  0.32185  0.32600  1.0000
  C   C530      1.0  0.97763  0.51987  0.99732  1.0000
  H   H428      1.0  0.11851  0.40889  0.49446  1.0000
  C   C531      1.0  0.15238  0.30959  0.42155  1.0000
  H   H429      1.0  0.17338  0.30968  0.30416  1.0000
  Fe  Fe32      1.0  0.01504  0.55916  0.91839  1.0000
  S   S71       1.0  0.03758  0.56837  0.88870  1.0000
  S   S72       1.0  0.99187  0.56091  0.90570  1.0000
  Fe  Fe33      1.0  0.02930  0.54602  0.97190  1.0000
  S   S73       1.0  0.05289  0.55455  0.94636  1.0000
  H   H430      1.0  0.18331  0.33620  0.73984  1.0000
  Fe  Fe34      1.0  0.04940  0.57833  0.93639  1.0000
  S   S74       1.0  0.07046  0.60342  0.94369  1.0000
  Fe  Fe35      1.0  0.03921  0.54426  0.90101  1.0000
  S   S75       1.0  0.04404  0.52471  0.87026  1.0000
  S   S76       1.0  0.02660  0.57023  0.96518  1.0000
  S   S77       1.0  0.01594  0.53465  0.92734  1.0000
  Fe  Fe36      1.0  0.11285  0.39724  0.71520  1.0000
  S   S78       1.0  0.10751  0.37556  0.68100  1.0000
  S   S79       1.0  0.10747  0.42031  0.70486  1.0000
  Fe  Fe37      1.0  0.12952  0.38274  0.76292  1.0000
  S   S80       1.0  0.12526  0.36033  0.73158  1.0000
  S   S81       1.0  0.13731  0.38220  0.81503  1.0000
  Fe  Fe38      1.0  0.13229  0.37744  0.68910  1.0000
  S   S82       1.0  0.14465  0.36875  0.64800  1.0000
  Fe  Fe39      1.0  0.10103  0.35991  0.72541  1.0000
  S   S83       1.0  0.07934  0.33609  0.72551  1.0000
  S   S84       1.0  0.13840  0.40022  0.72102  1.0000
  S   S85       1.0  0.10453  0.38133  0.75912  1.0000
  Fe  Fe40      1.0  0.00503  0.45979  0.66248  1.0000
  S   S86       1.0  0.01963  0.45107  0.62847  1.0000
  S   S87       1.0  0.97830  0.45017  0.66763  1.0000
  Fe  Fe41      1.0  0.03393  0.48816  0.68824  1.0000
  S   S88       1.0  0.05079  0.48166  0.65523  1.0000
  S   S89       1.0  0.04072  0.51176  0.71864  1.0000
  Fe  Fe42      1.0  0.03266  0.47792  0.61697  1.0000
  S   S90       1.0  0.03653  0.48393  0.56342  1.0000
  Fe  Fe43      1.0  0.03664  0.45535  0.66936  1.0000
  S   S91       1.0  0.04454  0.43424  0.68216  1.0000
  S   S92       1.0  0.01698  0.48626  0.64861  1.0000
  S   S93       1.0  0.02079  0.46224  0.70463  1.0000
  S   S94       1.0  0.19349  0.37902  0.96066  1.0000
  C   C532      1.0  0.13940  0.39791  0.52270  1.0000
  C   C533      1.0  0.00211  0.43939  0.54271  1.0000
  C   C534      1.0  0.15648  0.38702  0.83032  1.0000
  C   C535      1.0  0.15791  0.38195  0.86162  1.0000
  C   C536      1.0  0.17281  0.38587  0.87531  1.0000
  C   C537      1.0  0.18652  0.39457  0.85758  1.0000
  C   C538      1.0  0.18512  0.39948  0.82613  1.0000
  C   C539      1.0  0.17019  0.39578  0.81256  1.0000
  H   H431      1.0  0.14743  0.37480  0.87521  1.0000
  H   H432      1.0  0.17380  0.38200  0.89940  1.0000
  C   C540      1.0  0.97160  0.51947  0.85102  1.0000
  H   H433      1.0  0.16929  0.39971  0.78841  1.0000
  C   C541      1.0  0.18321  0.39564  0.57217  1.0000
  C   C542      1.0  0.17867  0.40469  0.59602  1.0000
  C   C543      1.0  0.16684  0.39672  0.61924  1.0000
  C   C544      1.0  0.15933  0.37956  0.61878  1.0000
  C   C545      1.0  0.16373  0.37053  0.59463  1.0000
  C   C546      1.0  0.17558  0.37848  0.57147  1.0000
  H   H434      1.0  0.18448  0.41796  0.59676  1.0000
  H   H435      1.0  0.16364  0.40386  0.63762  1.0000
  H   H436      1.0  0.15821  0.35725  0.59417  1.0000
  H   H437      1.0  0.17896  0.37134  0.55339  1.0000
  C   C547      1.0  0.06227  0.43082  0.68860  1.0000
  C   C548      1.0  0.06113  0.41510  0.69818  1.0000
  C   C549      1.0  0.07472  0.41162  0.70308  1.0000
  C   C550      1.0  0.08977  0.42385  0.69860  1.0000
  C   C551      1.0  0.09092  0.43962  0.68925  1.0000
  C   C552      1.0  0.07731  0.44307  0.68419  1.0000
  H   H438      1.0  0.04961  0.40548  0.70165  1.0000
  H   H439      1.0  0.07355  0.39945  0.71031  1.0000
  H   H440      1.0  0.10244  0.44921  0.68563  1.0000
  H   H441      1.0  0.07842  0.45512  0.67646  1.0000
  C   C553      1.0  0.00575  0.49333  0.91493  1.0000
  C   C554      1.0  0.04559  0.53255  0.54915  1.0000
  C   C555      1.0  0.04284  0.51747  0.56430  1.0000
  C   C556      1.0  0.03972  0.50314  0.54571  1.0000
  H   H442      1.0  0.00588  0.53089  0.50828  1.0000
  C   C557      1.0  0.99032  0.48482  0.90468  1.0000
  H   H443      1.0  0.97754  0.48529  0.65860  1.0000
  H   H444      1.0  0.04346  0.51697  0.59024  1.0000
  H   H445      1.0  0.02507  0.43897  0.54974  1.0000
  H   H446      1.0  0.15214  0.37690  0.93499  1.0000
  C   C558      1.0  0.04064  0.52038  0.82845  1.0000
  C   C559      1.0  0.04015  0.50521  0.81582  1.0000
  C   C560      1.0  0.03930  0.50197  0.78233  1.0000
  C   C561      1.0  0.03925  0.51406  0.76105  1.0000
  C   C562      1.0  0.03920  0.52903  0.77373  1.0000
  C   C563      1.0  0.03961  0.53208  0.80728  1.0000
  H   H447      1.0  0.04067  0.49598  0.83199  1.0000
  H   H448      1.0  0.03924  0.49037  0.77295  1.0000
  H   H449      1.0  0.03911  0.53843  0.75746  1.0000
  H   H450      1.0  0.03979  0.54372  0.81665  1.0000
  C   C564      1.0  0.07584  0.62542  0.94596  1.0000
  H   H451      1.0  0.19153  0.35068  0.60864  1.0000
  C   C565      1.0  0.98719  0.50103  0.73844  1.0000
  C   C566      1.0  0.06475  0.63280  0.94582  1.0000
  C   C567      1.0  0.95992  0.53324  0.61479  1.0000
  H   H452      1.0  0.06532  0.63923  0.85242  1.0000
  H   H453      1.0  0.05236  0.62511  0.94468  1.0000
  C   C568      1.0  0.16463  0.32711  0.68019  1.0000
  C   C569      1.0  0.15756  0.33729  0.87641  1.0000
  C   C570      1.0  0.96630  0.43648  0.63830  1.0000
  C   C571      1.0  0.97275  0.42916  0.61484  1.0000
  C   C572      1.0  0.15665  0.31466  0.91022  1.0000
  C   C573      1.0  0.95954  0.43867  0.83471  1.0000
  H   H454      1.0  0.00344  0.50843  0.81321  1.0000
  H   H455      1.0  0.98515  0.43145  0.61524  1.0000
  H   H456      1.0  0.98800  0.48412  0.87914  1.0000
  C   C574      1.0  0.97827  0.54453  0.88328  1.0000
  C   C575      1.0  0.98255  0.53223  0.86915  1.0000
  H   H457      1.0  0.98127  0.51788  0.63817  1.0000
  H   H458      1.0  0.98097  0.44270  0.53156  1.0000
  H   H459      1.0  0.99437  0.53266  0.87181  1.0000
  H   H460      1.0  0.98864  0.52119  0.98515  1.0000
  H   H461      1.0  0.96821  0.41309  0.57299  1.0000
  H   H462      1.0  0.11156  0.31002  0.97548  1.0000
  C   C576      1.0  0.05072  0.31790  0.59737  1.0000
  C   C577      1.0  0.09051  0.32225  0.77320  1.0000
  H   H463      1.0  0.19234  0.34666  0.91426  1.0000
  C   C578      1.0  0.09190  0.63585  0.94798  1.0000
  H   H464      1.0  0.10105  0.33336  0.77255  1.0000
  C   C579      1.0  0.11277  0.38376  0.89614  1.0000
  C   C580      1.0  0.08410  0.63014  0.84578  1.0000
  H   H465      1.0  0.11302  0.39323  0.98797  1.0000
  C   C581      1.0  0.00179  0.51785  0.50238  1.0000
  C   C582      1.0  0.04024  0.32399  0.97754  1.0000
  C   C583      1.0  0.10743  0.32837  0.86574  1.0000
  C   C584      1.0  0.96293  0.54395  0.87913  1.0000
  C   C585      1.0  0.14314  0.41791  0.56635  1.0000
  C   C586      1.0  0.13673  0.40514  0.58837  1.0000
  C   C587      1.0  0.13166  0.38879  0.57771  1.0000
  C   C588      1.0  0.17465  0.32433  0.54832  1.0000
  H   H466      1.0  0.14729  0.43058  0.57481  1.0000
  H   H467      1.0  0.13593  0.40788  0.61384  1.0000
  H   H468      1.0  0.12705  0.37894  0.59504  1.0000
  C   C589      1.0  0.02454  0.53073  0.66414  1.0000
  C   C590      1.0  0.08771  0.51772  0.83456  1.0000
  C   C591      1.0  0.96387  0.49630  0.68704  1.0000
  C   C592      1.0  0.06753  0.49526  0.86228  1.0000
  C   C593      1.0  0.06884  0.48417  0.83875  1.0000
  C   C594      1.0  0.07955  0.48983  0.81275  1.0000
  C   C595      1.0  0.08917  0.50666  0.81115  1.0000
  P   P20       1.0  0.08093  0.47583  0.78126  1.0000
  C   C596      1.0  0.08332  0.48603  0.74297  1.0000
  C   C597      1.0  0.09744  0.46991  0.78726  1.0000
  C   C598      1.0  0.09776  0.45557  0.77215  1.0000
  C   C599      1.0  0.11062  0.45105  0.77588  1.0000
  C   C600      1.0  0.12324  0.46075  0.79479  1.0000
  C   C601      1.0  0.12301  0.47500  0.81005  1.0000
  C   C602      1.0  0.11016  0.47960  0.80630  1.0000
  C   C603      1.0  0.07583  0.49700  0.73780  1.0000
  C   C604      1.0  0.07830  0.50557  0.70889  1.0000
  C   C605      1.0  0.08798  0.50302  0.68462  1.0000
  C   C606      1.0  0.09524  0.49192  0.68930  1.0000
  C   C607      1.0  0.09299  0.48351  0.71838  1.0000
  C   C608      1.0  0.06327  0.45731  0.78162  1.0000
  C   C609      1.0  0.06177  0.44478  0.80347  1.0000
  C   C610      1.0  0.04837  0.43018  0.80349  1.0000
  C   C611      1.0  0.03633  0.42803  0.78186  1.0000
  C   C612      1.0  0.03763  0.44052  0.76045  1.0000
  C   C613      1.0  0.05106  0.45512  0.76016  1.0000
  H   H469      1.0  0.10859  0.33160  0.68192  1.0000
  H   H470      1.0  0.06123  0.47133  0.84066  1.0000
  H   H471      1.0  0.09756  0.51130  0.79141  1.0000
  H   H472      1.0  0.08816  0.44796  0.75702  1.0000
  H   H473      1.0  0.11084  0.44006  0.76374  1.0000
  H   H474      1.0  0.13324  0.45724  0.79738  1.0000
  H   H475      1.0  0.13284  0.48255  0.82460  1.0000
  H   H476      1.0  0.11025  0.49073  0.81812  1.0000
  H   H477      1.0  0.06808  0.49898  0.75606  1.0000
  H   H478      1.0  0.07244  0.51397  0.70505  1.0000
  H   H479      1.0  0.08955  0.50940  0.66194  1.0000
  H   H480      1.0  0.10249  0.48968  0.67024  1.0000
  H   H481      1.0  0.09873  0.47496  0.72129  1.0000
  H   H482      1.0  0.07105  0.44621  0.82023  1.0000
  H   H483      1.0  0.04743  0.42042  0.81988  1.0000
  H   H484      1.0  0.02609  0.41659  0.78123  1.0000
  H   H485      1.0  0.02846  0.43861  0.74311  1.0000
  H   H486      1.0  0.05196  0.46440  0.74265  1.0000
  H   H487      1.0  0.13748  0.31470  0.88089  1.0000
  H   H488      1.0  0.13495  0.32932  0.76148  1.0000
  C   C614      1.0  0.07683  0.51203  0.86001  1.0000
  C   C615      1.0  0.03091  0.60347  0.87968  1.0000
  C   C616      1.0  0.01927  0.59468  0.85781  1.0000
  C   C617      1.0  0.02354  0.59073  0.82712  1.0000
  C   C618      1.0  0.03946  0.59576  0.81812  1.0000
  C   C619      1.0  0.05122  0.60498  0.83971  1.0000
  C   C620      1.0  0.04681  0.60836  0.87085  1.0000
  P   P21       1.0  0.07178  0.61021  0.82953  1.0000
  C   C621      1.0  0.07650  0.59363  0.84494  1.0000
  C   C622      1.0  0.07497  0.61191  0.78647  1.0000
  C   C623      1.0  0.08527  0.60565  0.77082  1.0000
  C   C624      1.0  0.08773  0.60714  0.73742  1.0000
  H   H489      1.0  0.08751  0.37421  0.90101  1.0000
  H   H490      1.0  0.09900  0.31099  0.80991  1.0000
  H   H491      1.0  0.08207  0.61626  0.69366  1.0000
  C   C625      1.0  0.08474  0.59563  0.87373  1.0000
  C   C626      1.0  0.08709  0.58232  0.88713  1.0000
  C   C627      1.0  0.08140  0.56694  0.87167  1.0000
  C   C628      1.0  0.07338  0.56488  0.84276  1.0000
  C   C629      1.0  0.07071  0.57809  0.82964  1.0000
  P   P22       1.0  0.14590  0.40386  0.96567  1.0000
  H   H492      1.0  0.00695  0.59038  0.86512  1.0000
  H   H493      1.0  0.01448  0.58334  0.81073  1.0000
  H   H494      1.0  0.04253  0.59205  0.79472  1.0000
  H   H495      1.0  0.05568  0.61432  0.88863  1.0000
  H   H496      1.0  0.09146  0.59967  0.78432  1.0000
  H   H497      1.0  0.15585  0.31874  0.97864  1.0000
  H   H498      1.0  0.98474  0.46197  0.58467  1.0000
  C   C630      1.0  0.18052  0.32733  0.63227  1.0000
  H   H499      1.0  0.95984  0.42666  0.82956  1.0000
  H   H500      1.0  0.08878  0.60726  0.88677  1.0000
  C   C631      1.0  0.05580  0.33040  0.62080  1.0000
  H   H501      1.0  0.08282  0.55650  0.88251  1.0000
  H   H502      1.0  0.06881  0.55287  0.83113  1.0000
  H   H503      1.0  0.06384  0.57606  0.80800  1.0000
  C   C632      1.0  0.14937  0.32151  0.88861  1.0000
  H   H504      1.0  0.97235  0.47377  0.97829  1.0000
  C   C633      1.0  0.99869  0.50185  0.79101  1.0000
  C   C634      1.0  0.98749  0.48534  0.73287  1.0000
  H   H505      1.0  0.08355  0.33588  0.94861  1.0000
  S   S95       1.0  0.20555  0.39900  0.87328  1.0000
  C   C635      1.0  0.17210  0.32397  0.91970  1.0000
  H   H506      1.0  0.07204  0.34118  0.65927  1.0000
  C   C636      1.0  0.06782  0.34162  0.98117  1.0000
  C   C637      1.0  0.12761  0.32431  0.69331  1.0000
  H   H507      1.0  0.01513  0.49910  0.89741  1.0000
  H   H508      1.0  0.98378  0.47892  0.71020  1.0000
  H   H509      1.0  0.04841  0.54367  0.56358  1.0000
  C   C638      1.0  0.98123  0.54307  0.71092  1.0000
  H   H510      1.0  0.13060  0.34107  0.59861  1.0000
  H   H511      1.0  0.09118  0.35542  0.84455  1.0000
  C   C639      1.0  0.95928  0.46441  0.81587  1.0000
  C   C640      1.0  0.96312  0.41871  0.59110  1.0000
  H   H512      1.0  0.02098  0.50188  0.95574  1.0000
  C   C641      1.0  0.99662  0.51944  0.67783  1.0000
  C   C642      1.0  0.99329  0.52139  0.64566  1.0000
  C   C643      1.0  0.01234  0.52434  0.68698  1.0000
  H   H513      1.0  0.18811  0.34711  0.52415  1.0000
  C   C644      1.0  0.00908  0.49489  0.94782  1.0000
  H   H514      1.0  0.99339  0.46583  0.75158  1.0000
  C   C645      1.0  0.09872  0.38332  0.94648  1.0000
  H   H515      1.0  0.11819  0.33121  0.93338  1.0000
  H   H516      1.0  0.00281  0.48246  0.53127  1.0000
  H   H517      1.0  0.17005  0.43849  0.87116  1.0000
  C   C646      1.0  0.01789  0.44303  0.53451  1.0000
  H   H518      1.0  0.02812  0.32075  0.98556  1.0000
  H   H519      1.0  0.20062  0.42184  0.92361  1.0000
  H   H520      1.0  0.01037  0.51167  0.54594  1.0000
  C   C647      1.0  0.99317  0.50937  0.76752  1.0000
  H   H521      1.0  0.06911  0.33663  0.87769  1.0000
  H   H522      1.0  0.03666  0.53410  0.67128  1.0000
  H   H523      1.0  0.15194  0.34256  0.85981  1.0000
  C   C648      1.0  0.98100  0.48469  0.58398  1.0000
  H   H524      1.0  0.17969  0.35828  0.87534  1.0000
  S   S96       1.0  0.20330  0.34005  0.97464  1.0000
  C   C649      1.0  0.02114  0.53238  0.63210  1.0000
  C   C650      1.0  0.99302  0.44535  0.52411  1.0000
  H   H525      1.0  0.96457  0.56230  0.76358  1.0000
  C   C651      1.0  0.99998  0.49040  0.51510  1.0000
  C   C652      1.0  0.10863  0.32029  0.60413  1.0000
  H   H526      1.0  0.05893  0.49098  0.88180  1.0000
  C   C653      1.0  0.99700  0.48784  0.97053  1.0000
  C   C654      1.0  0.99306  0.47787  0.75636  1.0000
  C   C655      1.0  0.09478  0.31731  0.88342  1.0000
  C   C656      1.0  0.19175  0.32653  0.50161  1.0000
  C   C657      1.0  0.13420  0.31961  0.61426  1.0000
  H   H527      1.0  0.95957  0.55348  0.88986  1.0000
  C   C658      1.0  0.95978  0.44896  0.80934  1.0000
  S   S97       1.0  0.19857  0.40636  0.54423  1.0000
  H   H528      1.0  0.97511  0.51016  0.83980  1.0000
  S   S98       1.0  0.04888  0.55278  0.49764  1.0000
  H   H529      1.0  0.14840  0.42487  0.91003  1.0000
  C   C659      1.0  0.96623  0.52454  0.75290  1.0000
  C   C660      1.0  0.97674  0.46784  0.57845  1.0000
  H   H530      1.0  0.96190  0.51257  0.76419  1.0000
  H   H531      1.0  0.09283  0.58385  0.91016  1.0000
  H   H532      1.0  0.10066  0.63044  0.94817  1.0000
  C   C661      1.0  0.17071  0.31879  0.65768  1.0000
  H   H533      1.0  0.99387  0.52180  0.77204  1.0000
  H   H534      1.0  0.00322  0.48044  0.80341  1.0000
  H   H535      1.0  0.99965  0.48933  0.99602  1.0000
  H   H536      1.0  0.19564  0.40619  0.81213  1.0000
  H   H537      1.0  0.17215  0.40902  0.51111  1.0000
  C   C662      1.0  0.15187  0.37519  0.96074  1.0000
  C   C663      1.0  0.00551  0.52779  0.62286  1.0000
  H   H538      1.0  0.95929  0.55296  0.54549  1.0000
  H   H539      1.0  0.07536  0.52063  0.87771  1.0000
  C   C664      1.0  0.15966  0.42388  0.91303  1.0000
  H   H540      1.0  0.18509  0.32080  0.61489  1.0000
  H   H541      1.0  0.17788  0.31912  0.93676  1.0000
  C   C665      1.0  0.97720  0.55562  0.72483  1.0000
  C   C666      1.0  0.12502  0.32821  0.60500  1.0000
  H   H542      1.0  0.99707  0.43221  0.56395  1.0000
  H   H543      1.0  0.10563  0.62569  0.84058  1.0000
  C   C667      1.0  0.18666  0.43092  0.89486  1.0000
  H   H544      1.0  0.11794  0.35867  0.94657  1.0000
  C   C668      1.0  0.12738  0.39501  0.94498  1.0000
  H   H545      1.0  0.12625  0.42339  0.97835  1.0000
  P   P23       1.0  0.98082  0.51105  0.70720  1.0000
  H   H546      1.0  0.98153  0.56771  0.71415  1.0000
  C   C669      1.0  0.17312  0.34623  0.88531  1.0000
  H   H547      1.0  0.14962  0.42436  0.51690  1.0000
  H   H548      1.0  0.96933  0.44300  0.94349  1.0000
  H   H549      1.0  0.19614  0.43675  0.87764  1.0000
  H   H550      1.0  0.11798  0.32589  0.86137  1.0000
  C   C670      1.0  0.02457  0.45251  0.50743  1.0000
  C   C671      1.0  0.13197  0.31212  0.70639  1.0000
  C   C672      1.0  0.11509  0.33392  0.95760  1.0000
  C   C673      1.0  0.11176  0.32185  0.69099  1.0000
  H   H551      1.0  0.13786  0.39392  0.89794  1.0000
  C   C674      1.0  0.16185  0.41445  0.93797  1.0000
  H   H552      1.0  0.96308  0.53577  0.63991  1.0000
  C   C675      1.0  0.06816  0.33157  0.64086  1.0000
  C   C676      1.0  0.97576  0.52741  0.72488  1.0000
  C   C677      1.0  0.17809  0.35251  0.65080  1.0000
  C   C678      1.0  0.16835  0.34406  0.67633  1.0000
  C   C679      1.0  0.07017  0.62173  0.73509  1.0000
  C   C680      1.0  0.96217  0.53707  0.76661  1.0000
  H   H553      1.0  0.00293  0.52913  0.59799  1.0000
  C   C681      1.0  0.98158  0.47914  0.96037  1.0000
  C   C682      1.0  0.15848  0.33092  0.74777  1.0000
  C   C683      1.0  0.17459  0.33894  0.75427  1.0000
  C   C684      1.0  0.17955  0.35074  0.77901  1.0000
  C   C685      1.0  0.16851  0.35483  0.79706  1.0000
  C   C686      1.0  0.15248  0.34708  0.79054  1.0000
  C   C687      1.0  0.14743  0.33503  0.76623  1.0000
  C   C688      1.0  0.09858  0.37984  0.91339  1.0000
  H   H554      1.0  0.06440  0.62805  0.72127  1.0000
  H   H555      1.0  0.02761  0.60587  0.90398  1.0000
  H   H556      1.0  0.99242  0.49184  0.59404  1.0000
  C   C689      1.0  0.97813  0.47752  0.92734  1.0000
  C   C690      1.0  0.96595  0.48538  0.66387  1.0000
  C   C691      1.0  0.10615  0.34215  0.85197  1.0000
  C   C692      1.0  0.97188  0.53238  0.99533  1.0000
  C   C693      1.0  0.05222  0.33737  0.99173  1.0000
  C   C694      1.0  0.00432  0.50703  0.52357  1.0000
  C   C695      1.0  0.08089  0.32023  0.88821  1.0000
  C   C696      1.0  0.04384  0.31478  0.95291  1.0000
  H   H557      1.0  0.16375  0.35087  0.69300  1.0000
  C   C697      1.0  0.07811  0.32045  0.75273  1.0000
  H   H558      1.0  0.05014  0.33915  0.62361  1.0000
  H   H559      1.0  0.96041  0.44500  0.78463  1.0000
  H   H560      1.0  0.17243  0.36420  0.81577  1.0000
  H   H561      1.0  0.14398  0.35070  0.80381  1.0000
  C   C698      1.0  0.96767  0.55261  0.75266  1.0000
  C   C699      1.0  0.11307  0.39078  0.96227  1.0000
  H   H562      1.0  0.09481  0.53075  0.83271  1.0000
  C   C700      1.0  0.04486  0.53339  0.51542  1.0000
  H   H563      1.0  0.10183  0.32713  0.59615  1.0000
  H   H564      1.0  0.19198  0.35703  0.78378  1.0000
  C   C701      1.0  0.15464  0.36180  0.97268  1.0000
  H   H565      1.0  0.16956  0.33015  0.56603  1.0000
  H   H566      1.0  0.96681  0.55881  0.60283  1.0000
  H   H567      1.0  0.03063  0.53716  0.61444  1.0000
  C   C702      1.0  0.18509  0.33395  0.52453  1.0000
  C   C703      1.0  0.18416  0.34416  0.62872  1.0000
  H   H568      1.0  0.15734  0.35346  0.95620  1.0000
  C   C704      1.0  0.07142  0.33251  0.95643  1.0000
  H   H569      1.0  0.13637  0.33597  0.68566  1.0000
  H   H570      1.0  0.12917  0.37237  0.53755  1.0000
  C   C705      1.0  0.14446  0.41433  0.53362  1.0000
  H   H571      1.0  0.17911  0.40768  0.96223  1.0000
  H   H572      1.0  0.11571  0.35036  0.83714  1.0000
  C   C706      1.0  0.13297  0.38515  0.54503  1.0000
  C   C707      1.0  0.17195  0.43180  0.89116  1.0000
  H   H573      1.0  0.18079  0.36555  0.64797  1.0000
  H   H574      1.0  0.95894  0.44559  0.55997  1.0000
  C   C708      1.0  0.11502  0.34944  0.96514  1.0000
  P   P24       1.0  0.15244  0.31657  0.71417  1.0000
  C   C709      1.0  0.07980  0.33427  0.87470  1.0000
  C   C710      1.0  0.09230  0.34502  0.85624  1.0000
  H   H575      1.0  0.95945  0.47244  0.79628  1.0000
  H   H576      1.0  0.96439  0.50382  0.50345  1.0000
  C   C711      1.0  0.18032  0.33962  0.90709  1.0000
  C   C712      1.0  0.18916  0.42238  0.92074  1.0000
  C   C713      1.0  0.17686  0.41421  0.94233  1.0000
  C   C714      1.0  0.05948  0.31900  0.94209  1.0000
  C   C715      1.0  0.99860  0.48609  0.78547  1.0000
  H   H577      1.0  0.98869  0.54571  0.68950  1.0000
  H   H578      1.0  0.01525  0.52305  0.71165  1.0000
  C   C716      1.0  0.12708  0.39118  0.91188  1.0000
  H   H579      1.0  0.11280  0.38120  0.87040  1.0000
  H   H580      1.0  0.97464  0.50543  0.57956  1.0000
  H   H581      1.0  0.14693  0.32570  0.61458  1.0000
  H   H582      1.0  0.08485  0.32132  0.65357  1.0000
  H   H583      1.0  0.09557  0.60214  0.72542  1.0000
  H   H584      1.0  0.13929  0.31165  0.54221  1.0000
  C   C717      1.0  0.10039  0.63435  0.84815  1.0000
  H   H585      1.0  0.08771  0.38037  0.95977  1.0000
  C   C718      1.0  0.08014  0.61512  0.71954  1.0000
  H   H586      1.0  0.07712  0.35195  0.99216  1.0000
  C   C719      1.0  0.07545  0.32028  0.63753  1.0000
  C   C720      1.0  0.14904  0.38648  0.98194  1.0000
  C   C721      1.0  0.97068  0.49227  0.57619  1.0000
  C   C722      1.0  0.03920  0.50402  0.51195  1.0000
  H   H587      1.0  0.03699  0.45590  0.50193  1.0000
  C   C723      1.0  0.06766  0.62023  0.76848  1.0000
  H   H588      1.0  0.06002  0.62554  0.78032  1.0000
  C   C724      1.0  0.96224  0.45862  0.56477  1.0000
  C   C725      1.0  0.11144  0.32202  0.98143  1.0000
  H   H589      1.0  0.03692  0.49304  0.49741  1.0000
  H   H590      1.0  0.96614  0.50079  0.93817  1.0000
  H   H591      1.0  0.05103  0.62630  0.51864  1.0000
  H   H592      1.0  0.04107  0.31696  0.58193  1.0000
  C   C726      1.0  0.96198  0.54620  0.59396  1.0000
  H   H593      1.0  0.97839  0.54331  0.98140  1.0000
  C   C727      1.0  0.04629  0.63470  0.50871  1.0000
  C   C728      1.0  0.07773  0.64185  0.85484  1.0000
  C   C729      1.0  0.08929  0.30961  0.79452  1.0000
  C   C730      1.0  0.99960  0.45480  0.49665  1.0000
  C   C731      1.0  0.04153  0.51901  0.49687  1.0000
  C   C732      1.0  0.14629  0.41903  0.99612  1.0000
  H   H594      1.0  0.95887  0.43575  0.88591  1.0000
  C   C733      1.0  0.95894  0.44387  0.86668  1.0000
  C   C734      1.0  0.95862  0.46960  0.84775  1.0000
  Fe  Fe44      1.0  0.13789  0.90992  0.37179  1.0000
  S   S99       1.0  0.14442  0.89244  0.40167  1.0000
  S   S100      1.0  0.14370  0.93759  0.38185  1.0000
  Fe  Fe45      1.0  0.11750  0.88191  0.32671  1.0000
  S   S101      1.0  0.12271  0.86273  0.35317  1.0000
  S   S102      1.0  0.10216  0.87833  0.28242  1.0000
  Fe  Fe46      1.0  0.11902  0.87498  0.39903  1.0000
  S   S103      1.0  0.10894  0.85621  0.43928  1.0000
  Fe  Fe47      1.0  0.14767  0.88104  0.35428  1.0000
  S   S104      1.0  0.16742  0.87149  0.35097  1.0000
  S   S105      1.0  0.11197  0.89315  0.37257  1.0000
  S   S106      1.0  0.14284  0.89952  0.32438  1.0000
  Fe  Fe48      1.0  0.05366  0.82064  0.07376  1.0000
  S   S107      1.0  0.07082  0.81087  0.09354  1.0000
  S   S108      1.0  0.05975  0.84123  0.03681  1.0000
  Fe  Fe49      1.0  0.02529  0.79657  0.11320  1.0000
  S   S109      1.0  0.04074  0.78515  0.13550  1.0000
  S   S110      1.0  0.99885  0.79121  0.12329  1.0000
  Fe  Fe50      1.0  0.05899  0.81094  0.14195  1.0000
  S   S111      1.0  0.07400  0.81593  0.18753  1.0000
  Fe  Fe51      1.0  0.05167  0.78609  0.08591  1.0000
  S   S112      1.0  0.05640  0.76396  0.06695  1.0000
  S   S113      1.0  0.04299  0.82255  0.12270  1.0000
  S   S114      1.0  0.03500  0.79567  0.06303  1.0000
  Fe  Fe52      1.0  0.11087  0.71037  0.44740  1.0000
  S   S115      1.0  0.10346  0.72515  0.41248  1.0000
  S   S116      1.0  0.09880  0.68298  0.46056  1.0000
  Fe  Fe53      1.0  0.19600  0.80381  0.17032  1.0000
  S   S117      1.0  0.13360  0.75772  0.43662  1.0000
  H   H595      1.0  0.09326  0.89457  0.48957  1.0000
  Fe  Fe54      1.0  0.10843  0.74414  0.45230  1.0000
  H   H596      1.0  0.10860  0.83659  0.14259  1.0000
  Fe  Fe55      1.0  0.12921  0.73782  0.39923  1.0000
  S   S118      1.0  0.13471  0.74383  0.34589  1.0000
  C   C735      1.0  0.11139  0.64581  0.39266  1.0000
  S   S119      1.0  0.13640  0.72169  0.43136  1.0000
  C   C736      1.0  0.12761  0.92376  0.27812  1.0000
  H   H597      1.0  0.12845  0.83847  0.02208  1.0000
  H   H598      1.0  0.96726  0.79041  0.12904  1.0000
  S   S120      1.0  0.18655  0.80932  0.21780  1.0000
  C   C737      1.0  0.15346  0.75675  0.33035  1.0000
  C   C738      1.0  0.16721  0.76045  0.34787  1.0000
  C   C739      1.0  0.18194  0.77026  0.33411  1.0000
  C   C740      1.0  0.18306  0.77650  0.30281  1.0000
  C   C741      1.0  0.16928  0.77280  0.28536  1.0000
  C   C742      1.0  0.15460  0.76300  0.29907  1.0000
  H   H599      1.0  0.16654  0.75558  0.37183  1.0000
  H   H600      1.0  0.18078  0.74376  0.26772  1.0000
  H   H601      1.0  0.16996  0.77742  0.26118  1.0000
  H   H602      1.0  0.14411  0.76037  0.28531  1.0000
  C   C743      1.0  0.16607  0.75274  0.05262  1.0000
  C   C744      1.0  0.17901  0.75578  0.07272  1.0000
  C   C745      1.0  0.18241  0.76769  0.09778  1.0000
  C   C746      1.0  0.17278  0.77656  0.10321  1.0000
  C   C747      1.0  0.15973  0.77338  0.08336  1.0000
  C   C748      1.0  0.15645  0.76164  0.05804  1.0000
  H   H603      1.0  0.18646  0.74889  0.06888  1.0000
  H   H604      1.0  0.15207  0.77999  0.08773  1.0000
  H   H605      1.0  0.14634  0.75928  0.04305  1.0000
  C   C749      1.0  0.07894  0.66369  0.41257  1.0000
  C   C750      1.0  0.08570  0.66424  0.44263  1.0000
  H   H606      1.0  0.08182  0.67490  0.39916  1.0000
  C   C751      1.0  0.98005  0.77434  0.12613  1.0000
  C   C752      1.0  0.96626  0.77774  0.12876  1.0000
  C   C753      1.0  0.97843  0.75783  0.12595  1.0000
  C   C754      1.0  0.18070  0.88006  0.48220  1.0000
  H   H607      1.0  0.98883  0.75490  0.12435  1.0000
  C   C755      1.0  0.07178  0.76524  0.03926  1.0000
  C   C756      1.0  0.07490  0.75103  0.03263  1.0000
  C   C757      1.0  0.17996  0.66016  0.42125  1.0000
  C   C758      1.0  0.05771  0.72121  0.46148  1.0000
  S   S121      1.0  0.11414  0.72874  0.48853  1.0000
  C   C759      1.0  0.08089  0.77992  0.02382  1.0000
  H   H608      1.0  0.06788  0.73963  0.04442  1.0000
  C   C760      1.0  0.20060  0.92547  0.29509  1.0000
  C   C761      1.0  0.11236  0.78297  0.07374  1.0000
  H   H609      1.0  0.07862  0.79095  0.02879  1.0000
  C   C762      1.0  0.18917  0.86100  0.25611  1.0000
  C   C763      1.0  0.18802  0.85160  0.28349  1.0000
  C   C764      1.0  0.18135  0.85499  0.31234  1.0000
  C   C765      1.0  0.17548  0.86757  0.31395  1.0000
  C   C766      1.0  0.17666  0.87705  0.28660  1.0000
  C   C767      1.0  0.18360  0.87385  0.25790  1.0000
  H   H610      1.0  0.14894  0.71022  0.09508  1.0000
  H   H611      1.0  0.18066  0.84775  0.33346  1.0000
  H   H612      1.0  0.17247  0.88699  0.28778  1.0000
  C   C768      1.0  0.09411  0.86066  0.25692  1.0000
  C   C769      1.0  0.08447  0.86105  0.23140  1.0000
  C   C770      1.0  0.07787  0.84737  0.21043  1.0000
  C   C771      1.0  0.08105  0.83319  0.21442  1.0000
  C   C772      1.0  0.09041  0.83268  0.24040  1.0000
  C   C773      1.0  0.09687  0.84629  0.26158  1.0000
  H   H613      1.0  0.08203  0.87199  0.22786  1.0000
  H   H614      1.0  0.07035  0.84784  0.19117  1.0000
  H   H615      1.0  0.09270  0.82167  0.24410  1.0000
  H   H616      1.0  0.10391  0.84565  0.28158  1.0000
  C   C774      1.0  0.09205  0.85000  0.46518  1.0000
  H   H617      1.0  0.16757  0.78249  0.40095  1.0000
  H   H618      1.0  0.16907  0.71890  0.48027  1.0000
  C   C775      1.0  0.95894  0.77567  0.02663  1.0000
  H   H619      1.0  0.16149  0.68819  0.36261  1.0000
  C   C776      1.0  0.08225  0.85882  0.46847  1.0000
  H   H620      1.0  0.14679  0.78123  0.99732  1.0000
  H   H621      1.0  0.20076  0.97230  0.38941  1.0000
  H   H622      1.0  0.06152  0.75639  0.43168  1.0000
  H   H623      1.0  0.08447  0.86951  0.45382  1.0000
  C   C777      1.0  0.13305  0.72205  0.08481  1.0000
  C   C778      1.0  0.16071  0.95648  0.38340  1.0000
  C   C779      1.0  0.17604  0.95694  0.38570  1.0000
  C   C780      1.0  0.16858  0.64982  0.36932  1.0000
  H   H624      1.0  0.17791  0.94558  0.38705  1.0000
  C   C781      1.0  0.07502  0.84734  0.38117  1.0000
  C   C782      1.0  0.07684  0.85029  0.34809  1.0000
  C   C783      1.0  0.06929  0.83759  0.32620  1.0000
  C   C784      1.0  0.06000  0.82190  0.33730  1.0000
  C   C785      1.0  0.05771  0.81891  0.37057  1.0000
  C   C786      1.0  0.06547  0.83173  0.39247  1.0000
  P   P25       1.0  0.04536  0.79864  0.38467  1.0000
  C   C787      1.0  0.03712  0.80051  0.42396  1.0000
  C   C788      1.0  0.02958  0.78930  0.35655  1.0000
  C   C789      1.0  0.02253  0.79892  0.34175  1.0000
  C   C790      1.0  0.01066  0.79182  0.31925  1.0000
  C   C791      1.0  0.00565  0.77506  0.31156  1.0000
  C   C792      1.0  0.01243  0.76535  0.32654  1.0000
  C   C793      1.0  0.02433  0.77241  0.34900  1.0000
  H   H625      1.0  0.08688  0.64969  0.48289  1.0000
  H   H626      1.0  0.15621  0.91663  0.23500  1.0000
  C   C794      1.0  0.19036  0.96319  0.28298  1.0000
  H   H627      1.0  0.96230  0.73237  0.12801  1.0000
  C   C795      1.0  0.04601  0.80214  0.45182  1.0000
  C   C796      1.0  0.05694  0.78607  0.38634  1.0000
  C   C797      1.0  0.06846  0.78742  0.36246  1.0000
  C   C798      1.0  0.07731  0.77757  0.36356  1.0000
  C   C799      1.0  0.07487  0.76646  0.38859  1.0000
  C   C800      1.0  0.06326  0.76485  0.41208  1.0000
  C   C801      1.0  0.05412  0.77436  0.41070  1.0000
  H   H628      1.0  0.08106  0.85718  0.39806  1.0000
  H   H629      1.0  0.08409  0.86244  0.33937  1.0000
  H   H630      1.0  0.07056  0.83994  0.30056  1.0000
  H   H631      1.0  0.05448  0.81220  0.31978  1.0000
  H   H632      1.0  0.06427  0.82983  0.41824  1.0000
  H   H633      1.0  0.02627  0.81194  0.34742  1.0000
  H   H634      1.0  0.00543  0.79934  0.30754  1.0000
  H   H635      1.0  0.99654  0.76961  0.29389  1.0000
  H   H636      1.0  0.00851  0.75235  0.32054  1.0000
  H   H637      1.0  0.02944  0.76467  0.36025  1.0000
  H   H638      1.0  0.14687  0.97146  0.38159  1.0000
  C   C802      1.0  0.16770  0.66548  0.42838  1.0000
  H   H639      1.0  0.11242  0.65353  0.37214  1.0000
  H   H640      1.0  0.12119  0.66754  0.47495  1.0000
  H   H641      1.0  0.05797  0.80264  0.45016  1.0000
  H   H642      1.0  0.07074  0.79613  0.34311  1.0000
  H   H643      1.0  0.08637  0.77882  0.34552  1.0000
  H   H644      1.0  0.20217  0.75719  0.22794  1.0000
  C   C803      1.0  0.14954  0.70110  0.33825  1.0000
  H   H645      1.0  0.04494  0.77257  0.42881  1.0000
  H   H646      1.0  0.08656  0.84578  0.14664  1.0000
  H   H647      1.0  0.16581  0.86162  0.08928  1.0000
  H   H648      1.0  0.17270  0.84996  0.40049  1.0000
  S   S122      1.0  0.17609  0.79139  0.13486  1.0000
  C   C804      1.0  0.13694  0.93631  0.29867  1.0000
  H   H649      1.0  0.06659  0.72443  0.41252  1.0000
  C   C805      1.0  0.16811  0.83515  0.44333  1.0000
  C   C806      1.0  0.18747  0.78681  0.47074  1.0000
  C   C807      1.0  0.15438  0.86324  0.17289  1.0000
  C   C808      1.0  0.08710  0.75146  0.01102  1.0000
  C   C809      1.0  0.03954  0.80320  0.48222  1.0000
  C   C810      1.0  0.13829  0.90545  0.49039  1.0000
  P   P26       1.0  0.19689  0.82593  0.02961  1.0000
  C   C811      1.0  0.19622  0.91163  0.34634  1.0000
  C   C812      1.0  0.16869  0.80054  0.01116  1.0000
  H   H650      1.0  0.13219  0.71849  0.05950  1.0000
  C   C813      1.0  0.06209  0.69148  0.45907  1.0000
  C   C814      1.0  0.00086  0.76071  0.04845  1.0000
  C   C815      1.0  0.01053  0.75268  0.05789  1.0000
  C   C816      1.0  0.15864  0.97157  0.38299  1.0000
  S   S123      1.0  0.20185  0.78872  0.28637  1.0000
  C   C817      1.0  0.01788  0.82708  0.03738  1.0000
  C   C818      1.0  0.10585  0.89762  0.48983  1.0000
  C   C819      1.0  0.12746  0.79272  0.06264  1.0000
  P   P27       1.0  0.13978  0.66962  0.41456  1.0000
  H   H651      1.0  0.13988  0.92367  0.45490  1.0000
  H   H652      1.0  0.17227  0.79221  0.02462  1.0000
  C   C820      1.0  0.20392  0.81046  0.04242  1.0000
  C   C821      1.0  0.12466  0.68659  0.38207  1.0000
  H   H653      1.0  0.99474  0.76512  0.06672  1.0000
  H   H654      1.0  0.01177  0.75083  0.08328  1.0000
  C   C822      1.0  0.16989  0.80157  0.47434  1.0000
  C   C823      1.0  0.20305  0.79727  0.02179  1.0000
  H   H655      1.0  0.96323  0.78800  0.01702  1.0000
  C   C824      1.0  0.15661  0.69684  0.45253  1.0000
  C   C825      1.0  0.15826  0.85134  0.18813  1.0000
  C   C826      1.0  0.13785  0.83541  0.44197  1.0000
  C   C827      1.0  0.99531  0.80168  0.04573  1.0000
  C   C828      1.0  0.10113  0.82058  0.38555  1.0000
  C   C829      1.0  0.10053  0.81052  0.41154  1.0000
  C   C830      1.0  0.10831  0.79965  0.40936  1.0000
  C   C831      1.0  0.11668  0.79882  0.38117  1.0000
  C   C832      1.0  0.11764  0.80920  0.35520  1.0000
  C   C833      1.0  0.10938  0.81971  0.35724  1.0000
  P   P28       1.0  0.12792  0.80747  0.31845  1.0000
  C   C834      1.0  0.11595  0.78761  0.30184  1.0000
  C   C835      1.0  0.13033  0.82392  0.29085  1.0000
  C   C836      1.0  0.12626  0.82072  0.25827  1.0000
  C   C837      1.0  0.12765  0.83363  0.23776  1.0000
  C   C838      1.0  0.13355  0.84985  0.24938  1.0000
  C   C839      1.0  0.13837  0.85317  0.28127  1.0000
  C   C840      1.0  0.13695  0.84027  0.30183  1.0000
  C   C841      1.0  0.11972  0.77389  0.30727  1.0000
  C   C842      1.0  0.10978  0.75827  0.29648  1.0000
  C   C843      1.0  0.09605  0.75624  0.28010  1.0000
  C   C844      1.0  0.09207  0.76982  0.27508  1.0000
  C   C845      1.0  0.10186  0.78542  0.28633  1.0000
  C   C846      1.0  0.14771  0.80907  0.32613  1.0000
  C   C847      1.0  0.15709  0.80721  0.30035  1.0000
  C   C848      1.0  0.17267  0.80913  0.30546  1.0000
  C   C849      1.0  0.17892  0.81256  0.33627  1.0000
  C   C850      1.0  0.16975  0.81466  0.36198  1.0000
  C   C851      1.0  0.15427  0.81315  0.35693  1.0000
  H   H656      1.0  0.09523  0.82913  0.38738  1.0000
  H   H657      1.0  0.09398  0.81112  0.43328  1.0000
  H   H658      1.0  0.10768  0.79169  0.42937  1.0000
  H   H659      1.0  0.12233  0.79003  0.37961  1.0000
  H   H660      1.0  0.10918  0.82719  0.33705  1.0000
  H   H661      1.0  0.12196  0.80834  0.24858  1.0000
  H   H662      1.0  0.12389  0.83108  0.21298  1.0000
  H   H663      1.0  0.13424  0.85984  0.23380  1.0000
  H   H664      1.0  0.14306  0.86575  0.29024  1.0000
  H   H665      1.0  0.14086  0.84303  0.32646  1.0000
  H   H666      1.0  0.13012  0.77512  0.32057  1.0000
  H   H667      1.0  0.11263  0.74770  0.30144  1.0000
  H   H668      1.0  0.08839  0.74410  0.27179  1.0000
  H   H669      1.0  0.08128  0.76824  0.26288  1.0000
  H   H670      1.0  0.09830  0.79571  0.28332  1.0000
  H   H671      1.0  0.15246  0.80444  0.27624  1.0000
  H   H672      1.0  0.17998  0.80786  0.28560  1.0000
  H   H673      1.0  0.19094  0.81371  0.33997  1.0000
  H   H674      1.0  0.17479  0.81770  0.38568  1.0000
  H   H675      1.0  0.14764  0.81543  0.37700  1.0000
  C   C852      1.0  0.18821  0.93754  0.23248  1.0000
  C   C853      1.0  0.02185  0.80049  0.42709  1.0000
  H   H676      1.0  0.16741  0.67120  0.45164  1.0000
  C   C854      1.0  0.16063  0.93490  0.27355  1.0000
  C   C855      1.0  0.13204  0.67830  0.47623  1.0000
  H   H677      1.0  0.16509  0.70038  0.43272  1.0000
  H   H678      1.0  0.04518  0.80375  0.99932  1.0000
  C   C856      1.0  0.18766  0.92997  0.30137  1.0000
  H   H679      1.0  0.19244  0.84182  0.28250  1.0000
  H   H680      1.0  0.08838  0.95917  0.00192  1.0000
  C   C857      1.0  0.96828  0.76624  0.02450  1.0000
  C   C858      1.0  0.14180  0.78636  0.19561  1.0000
  C   C859      1.0  0.12610  0.78475  0.19800  1.0000
  C   C860      1.0  0.11411  0.76913  0.20045  1.0000
  C   C861      1.0  0.11782  0.75510  0.19994  1.0000
  C   C862      1.0  0.13358  0.75662  0.19701  1.0000
  C   C863      1.0  0.14554  0.77238  0.19503  1.0000
  P   P29       1.0  0.13818  0.73848  0.19188  1.0000
  C   C864      1.0  0.15838  0.74346  0.20316  1.0000
  C   C865      1.0  0.12525  0.72241  0.21763  1.0000
  C   C866      1.0  0.12150  0.72634  0.24892  1.0000
  C   C867      1.0  0.11202  0.71397  0.26959  1.0000
  C   C868      1.0  0.10603  0.69757  0.25900  1.0000
  C   C869      1.0  0.10954  0.69355  0.22773  1.0000
  C   C870      1.0  0.11916  0.70591  0.20711  1.0000
  C   C871      1.0  0.16215  0.74058  0.23446  1.0000
  C   C872      1.0  0.17790  0.74537  0.24318  1.0000
  C   C873      1.0  0.17061  0.75096  0.18072  1.0000
  C   C874      1.0  0.13595  0.73193  0.14998  1.0000
  C   C875      1.0  0.12652  0.73665  0.12947  1.0000
  C   C876      1.0  0.12506  0.73167  0.09705  1.0000
  C   C877      1.0  0.99838  0.79547  0.01600  1.0000
  C   C878      1.0  0.14250  0.71737  0.10495  1.0000
  C   C879      1.0  0.14389  0.72219  0.13746  1.0000
  H   H681      1.0  0.12320  0.79558  0.19735  1.0000
  H   H682      1.0  0.10192  0.76789  0.20200  1.0000
  H   H683      1.0  0.10837  0.74305  0.20084  1.0000
  H   H684      1.0  0.15777  0.77401  0.19228  1.0000
  H   H685      1.0  0.12616  0.73895  0.25748  1.0000
  H   H686      1.0  0.10949  0.71712  0.29396  1.0000
  H   H687      1.0  0.09869  0.68798  0.27504  1.0000
  H   H688      1.0  0.10486  0.68083  0.21949  1.0000
  H   H689      1.0  0.12181  0.70250  0.18311  1.0000
  H   H690      1.0  0.15309  0.73512  0.25258  1.0000
  C   C880      1.0  0.15632  0.65513  0.37637  1.0000
  H   H691      1.0  0.16802  0.75365  0.15669  1.0000
  H   H692      1.0  0.12040  0.74430  0.13816  1.0000
  H   H693      1.0  0.11793  0.73548  0.08117  1.0000
  H   H694      1.0  0.17543  0.82602  0.13881  1.0000
  C   C881      1.0  0.00500  0.81744  0.05629  1.0000
  H   H695      1.0  0.15130  0.71847  0.15269  1.0000
  H   H696      1.0  0.02570  0.83908  0.04608  1.0000
  H   H697      1.0  0.08159  0.86173  0.10282  1.0000
  H   H698      1.0  0.19240  0.76991  0.11303  1.0000
  H   H699      1.0  0.11514  0.68147  0.39956  1.0000
  C   C882      1.0  0.10324  0.79023  0.09037  1.0000
  C   C883      1.0  0.15592  0.66322  0.40575  1.0000
  C   C884      1.0  0.15113  0.92243  0.25265  1.0000
  C   C885      1.0  0.13342  0.80979  0.06776  1.0000
  C   C886      1.0  0.12418  0.81724  0.08392  1.0000
  C   C887      1.0  0.10916  0.80725  0.09572  1.0000
  P   P30       1.0  0.13216  0.83922  0.09175  1.0000
  C   C888      1.0  0.11650  0.84699  0.09524  1.0000
  C   C889      1.0  0.14217  0.84368  0.12974  1.0000
  C   C890      1.0  0.14597  0.83172  0.14541  1.0000
  C   C891      1.0  0.15399  0.83561  0.17456  1.0000
  C   C892      1.0  0.14631  0.85942  0.14383  1.0000
  C   C893      1.0  0.11394  0.85660  0.07099  1.0000
  C   C894      1.0  0.10153  0.86207  0.07401  1.0000
  C   C895      1.0  0.09158  0.85805  0.10113  1.0000
  C   C896      1.0  0.09436  0.84903  0.12579  1.0000
  C   C897      1.0  0.10683  0.84368  0.12312  1.0000
  C   C898      1.0  0.14563  0.84926  0.05909  1.0000
  H   H700      1.0  0.15931  0.70710  0.32179  1.0000
  H   H701      1.0  0.12736  0.90687  0.23972  1.0000
  H   H702      1.0  0.20426  0.87374  0.10268  1.0000
  C   C899      1.0  0.01558  0.80198  0.45756  1.0000
  C   C900      1.0  0.16123  0.85988  0.06514  1.0000
  H   H703      1.0  0.15118  0.79836  0.19336  1.0000
  H   H704      1.0  0.96913  0.74253  0.03511  1.0000
  H   H705      1.0  0.14522  0.81709  0.05918  1.0000
  H   H706      1.0  0.10188  0.81243  0.10899  1.0000
  H   H707      1.0  0.14295  0.81949  0.13512  1.0000
  H   H708      1.0  0.15719  0.82657  0.18659  1.0000
  H   H709      1.0  0.14335  0.86875  0.13224  1.0000
  H   H710      1.0  0.12123  0.85991  0.04952  1.0000
  H   H711      1.0  0.09932  0.86903  0.05482  1.0000
  S   S124      1.0  0.09384  0.75981  0.45864  1.0000
  H   H712      1.0  0.18461  0.88130  0.23695  1.0000
  C   C901      1.0  0.18631  0.75558  0.18943  1.0000
  H   H713      1.0  0.18741  0.77393  0.42589  1.0000
  C   C902      1.0  0.18997  0.75298  0.22077  1.0000
  C   C903      1.0  0.13811  0.68275  0.38317  1.0000
  C   C904      1.0  0.15067  0.69029  0.36139  1.0000
  C   C905      1.0  0.18901  0.97219  0.38739  1.0000
  H   H714      1.0  0.16033  0.95121  0.31338  1.0000
  C   C906      1.0  0.01805  0.75064  0.00212  1.0000
  H   H715      1.0  0.14307  0.87558  0.46750  1.0000
  C   C907      1.0  0.17149  0.78660  0.42520  1.0000
  H   H716      1.0  0.19254  0.77301  0.34777  1.0000
  H   H717      1.0  0.19565  0.76157  0.17205  1.0000
  C   C908      1.0  0.12355  0.69738  0.35887  1.0000
  H   H718      1.0  0.15759  0.87538  0.18374  1.0000
  C   C909      1.0  0.18269  0.78182  0.43920  1.0000
  H   H719      1.0  0.02666  0.74148  0.04218  1.0000
  H   H720      1.0  0.20733  0.86113  0.05051  1.0000
  H   H721      1.0  0.16443  0.85418  0.21071  1.0000
  C   C910      1.0  0.16716  0.87780  0.46498  1.0000
  H   H722      1.0  0.11327  0.70055  0.35855  1.0000
  C   C911      1.0  0.18191  0.83379  0.11920  1.0000
  C   C912      1.0  0.20017  0.85334  0.06940  1.0000
  C   C913      1.0  0.06555  0.70148  0.43196  1.0000
  H   H723      1.0  0.17771  0.81338  0.08648  1.0000
  H   H724      1.0  0.18858  0.85623  0.14729  1.0000
  H   H725      1.0  0.17746  0.91348  0.37616  1.0000
  C   C914      1.0  0.17973  0.92606  0.33122  1.0000
  H   H726      1.0  0.18107  0.91131  0.23983  1.0000
  H   H727      1.0  0.18992  0.64823  0.38626  1.0000
  H   H728      1.0  0.03042  0.66499  0.47034  1.0000
  H   H729      1.0  0.13447  0.78695  0.04998  1.0000
  C   C915      1.0  0.14315  0.68219  0.45078  1.0000
  C   C916      1.0  0.18392  0.91683  0.35351  1.0000
  Fe  Fe56      1.0  0.13907  0.74096  0.47024  1.0000
  H   H730      1.0  0.00389  0.80217  0.45989  1.0000
  S   S125      1.0  0.16224  0.73758  0.02143  1.0000
  H   H731      1.0  0.06245  0.86110  0.49434  1.0000
  H   H732      1.0  0.00287  0.82187  0.07985  1.0000
  C   C917      1.0  0.07587  0.84693  0.00893  1.0000
  C   C918      1.0  0.18345  0.82658  0.08967  1.0000
  C   C919      1.0  0.17107  0.86861  0.03990  1.0000
  C   C920      1.0  0.96231  0.75018  0.03669  1.0000
  C   C921      1.0  0.06346  0.71642  0.43320  1.0000
  C   C922      1.0  0.08873  0.83591  0.48390  1.0000
  S   S126      1.0  0.19729  0.85697  0.21921  1.0000
  C   C923      1.0  0.17821  0.81739  0.00941  1.0000
  C   C924      1.0  0.02443  0.80333  0.48510  1.0000
  C   C925      1.0  0.13470  0.91690  0.25502  1.0000
  H   H733      1.0  0.09601  0.82880  0.48104  1.0000
  C   C926      1.0  0.16498  0.79628  0.44278  1.0000
  H   H734      1.0  0.13146  0.94133  0.31720  1.0000
  C   C927      1.0  0.15336  0.94185  0.29645  1.0000
  C   C928      1.0  0.15893  0.70735  0.47940  1.0000
  H   H735      1.0  0.17978  0.83481  0.44297  1.0000
  C   C929      1.0  0.14899  0.84371  0.41841  1.0000
  C   C930      1.0  0.14033  0.84690  0.02723  1.0000
  H   H736      1.0  0.17015  0.92996  0.33724  1.0000
  H   H737      1.0  0.10762  0.76979  0.06915  1.0000
  C   C931      1.0  0.19160  0.91823  0.19289  1.0000
  C   C932      1.0  0.16413  0.84360  0.41907  1.0000
  H   H738      1.0  0.15592  0.79936  0.43182  1.0000
  H   H739      1.0  0.08595  0.83039  0.02662  1.0000
  H   H740      1.0  0.13527  0.71323  0.31941  1.0000
  H   H741      1.0  0.09142  0.78266  0.09871  1.0000
  H   H742      1.0  0.16720  0.87635  0.43895  1.0000
  H   H743      1.0  0.05638  0.73291  0.46283  1.0000
  C   C933      1.0  0.08175  0.64946  0.45962  1.0000
  H   H744      1.0  0.11115  0.91668  0.45436  1.0000
  H   H745      1.0  0.06420  0.68018  0.45789  1.0000
  H   H746      1.0  0.18905  0.66199  0.43874  1.0000
  H   H747      1.0  0.01474  0.79946  0.40620  1.0000
  H   H748      1.0  0.07018  0.69778  0.41022  1.0000
  H   H749      1.0  0.12613  0.83552  0.44135  1.0000
  C   C934      1.0  0.14171  0.82678  0.46597  1.0000
  C   C935      1.0  0.13596  0.70458  0.33690  1.0000
  C   C936      1.0  0.15695  0.82674  0.46716  1.0000
  C   C937      1.0  0.01900  0.74751  0.03472  1.0000
  C   C938      1.0  0.18639  0.92142  0.22330  1.0000
  H   H750      1.0  0.07883  0.78148  0.48008  1.0000
  H   H751      1.0  0.11488  0.91901  0.28065  1.0000
  H   H752      1.0  0.08213  0.75926  0.39009  1.0000
  H   H753      1.0  0.14585  0.85023  0.39962  1.0000
  C   C939      1.0  0.05404  0.71114  0.48849  1.0000
  H   H754      1.0  0.98585  0.79417  0.06154  1.0000
  C   C940      1.0  0.18943  0.85077  0.12395  1.0000
  H   H755      1.0  0.18301  0.87696  0.04478  1.0000
  C   C941      1.0  0.11590  0.91009  0.47009  1.0000
  C   C942      1.0  0.05614  0.69613  0.48748  1.0000
  H   H756      1.0  0.13263  0.81988  0.48297  1.0000
  H   H757      1.0  0.19036  0.90580  0.18624  1.0000
  P   P31       1.0  0.18188  0.94154  0.27233  1.0000
  C   C943      1.0  0.13212  0.91403  0.47041  1.0000
  C   C944      1.0  0.19309  0.83618  0.06507  1.0000
  C   C945      1.0  0.14997  0.85616  0.00227  1.0000
  H   H758      1.0  0.06300  0.64834  0.37683  1.0000
  C   C946      1.0  0.19836  0.86059  0.09886  1.0000
  C   C947      1.0  0.99944  0.76345  0.01571  1.0000
  C   C948      1.0  0.03477  0.65658  0.48155  1.0000
  C   C949      1.0  0.12251  0.65074  0.41734  1.0000
  C   C950      1.0  0.20467  0.91608  0.31728  1.0000
  C   C951      1.0  0.16535  0.86697  0.00857  1.0000
  H   H759      1.0  0.19909  0.90399  0.36319  1.0000
  H   H760      1.0  0.14043  0.77962  0.48993  1.0000
  C   C952      1.0  0.06979  0.85403  0.49149  1.0000
  H   H761      1.0  0.15091  0.90882  0.49043  1.0000
  C   C953      1.0  0.06825  0.64858  0.39997  1.0000
  H   H762      1.0  0.08938  0.74042  0.00621  1.0000
  C   C954      1.0  0.96332  0.74504  0.12823  1.0000
  C   C955      1.0  0.08710  0.83980  0.00924  1.0000
  H   H763      1.0  0.19692  0.96293  0.21702  1.0000
  H   H764      1.0  0.14711  0.65294  0.35896  1.0000
  H   H765      1.0  0.19767  0.79585  0.99844  1.0000
  H   H766      1.0  0.19576  0.78262  0.48197  1.0000
  C   C956      1.0  0.18043  0.65238  0.39170  1.0000
  H   H767      1.0  0.17507  0.96978  0.25223  1.0000
  C   C957      1.0  0.02113  0.82093  0.00791  1.0000
  Fe  Fe57      1.0  0.20458  0.83498  0.21324  1.0000
  C   C958      1.0  0.19524  0.95038  0.21061  1.0000
  C   C959      1.0  0.20236  0.96914  0.30576  1.0000
  C   C960      1.0  0.18445  0.97415  0.26953  1.0000
  C   C961      1.0  0.09305  0.78032  0.00203  1.0000
  C   C962      1.0  0.15357  0.87762  0.48119  1.0000
  P   P32       1.0  0.98732  0.77437  0.00437  1.0000
  H   H768      1.0  0.19120  0.88020  0.46948  1.0000
  Fe  Fe58      1.0  0.20574  0.80362  0.24026  1.0000
  H   H769      1.0  0.18663  0.84799  0.49507  1.0000
  H   H770      1.0  0.20698  0.96099  0.31703  1.0000
  C   C963      1.0  0.19856  0.93109  0.17128  1.0000
  H   H771      1.0  0.12970  0.64327  0.46159  1.0000
  C   C964      1.0  0.18109  0.79662  0.48832  1.0000
  C   C965      1.0  0.08315  0.76017  0.49442  1.0000
  C   C966      1.0  0.20035  0.94714  0.18011  1.0000
  H   H772      1.0  0.20749  0.92901  0.27299  1.0000
  H   H773      1.0  0.20267  0.92863  0.14776  1.0000
  H   H774      1.0  0.20764  0.77504  0.01622  1.0000
  H   H775      1.0  0.20582  0.95711  0.16339  1.0000
  S   S127      1.0  0.11708  0.72574  0.99682  1.0000
  H   H776      1.0  0.16886  0.64364  0.34655  1.0000
  C   C967      1.0  0.01157  0.80509  0.99743  1.0000
  Fe  Fe59      1.0  0.14514  0.91034  0.85393  1.0000
  S   S128      1.0  0.15138  0.89285  0.88439  1.0000
  S   S129      1.0  0.15746  0.93861  0.84703  1.0000
  Fe  Fe60      1.0  0.11800  0.88168  0.82157  1.0000
  S   S130      1.0  0.12227  0.86228  0.84946  1.0000
  S   S131      1.0  0.09863  0.87742  0.78455  1.0000
  Fe  Fe61      1.0  0.12533  0.87878  0.89305  1.0000
  S   S132      1.0  0.11940  0.86497  0.94097  1.0000
  Fe  Fe62      1.0  0.14793  0.87692  0.83999  1.0000
  S   S133      1.0  0.16292  0.86170  0.83502  1.0000
  S   S134      1.0  0.11909  0.89750  0.86603  1.0000
  S   S135      1.0  0.14360  0.89514  0.80833  1.0000
  Fe  Fe63      1.0  0.04528  0.81460  0.57793  1.0000
  S   S136      1.0  0.06333  0.80682  0.59999  1.0000
  S   S137      1.0  0.05149  0.83512  0.54083  1.0000
  Fe  Fe64      1.0  0.01777  0.79105  0.61939  1.0000
  S   S138      1.0  0.03428  0.78176  0.64415  1.0000
  S   S139      1.0  0.99195  0.78325  0.63827  1.0000
  Fe  Fe65      1.0  0.05158  0.80805  0.64770  1.0000
  S   S140      1.0  0.06738  0.81459  0.69201  1.0000
  Fe  Fe66      1.0  0.04508  0.78127  0.59509  1.0000
  S   S141      1.0  0.05254  0.75987  0.58375  1.0000
  S   S142      1.0  0.03456  0.81766  0.62621  1.0000
  S   S143      1.0  0.02746  0.78871  0.56963  1.0000
  Fe  Fe67      1.0  0.11229  0.70783  0.95412  1.0000
  S   S144      1.0  0.11202  0.72717  0.91917  1.0000
  S   S145      1.0  0.09108  0.68262  0.95085  1.0000
  C   C968      1.0  0.15789  0.82161  0.97878  1.0000
  C   C969      1.0  0.10792  0.72424  0.83067  1.0000
  H   H777      1.0  0.99407  0.74710  0.64972  1.0000
  C   C970      1.0  0.14438  0.96997  0.93100  1.0000
  C   C971      1.0  0.09096  0.79428  0.77488  1.0000
  Fe  Fe68      1.0  0.13801  0.73346  0.91186  1.0000
  S   S146      1.0  0.14811  0.73544  0.86041  1.0000
  C   C972      1.0  0.04041  0.70050  0.56642  1.0000
  S   S147      1.0  0.13810  0.71336  0.94474  1.0000
  C   C973      1.0  0.09322  0.71447  0.81845  1.0000
  C   C974      1.0  0.08623  0.72091  0.79574  1.0000
  C   C975      1.0  0.13533  0.92967  0.92699  1.0000
  S   S148      1.0  0.18585  0.81418  0.70839  1.0000
  C   C976      1.0  0.16078  0.75371  0.84100  1.0000
  C   C977      1.0  0.16491  0.75294  0.80824  1.0000
  C   C978      1.0  0.17520  0.76709  0.79209  1.0000
  C   C979      1.0  0.18166  0.78212  0.80872  1.0000
  C   C980      1.0  0.17764  0.78279  0.84149  1.0000
  C   C981      1.0  0.16713  0.76877  0.85751  1.0000
  H   H778      1.0  0.16018  0.74131  0.79532  1.0000
  H   H779      1.0  0.01470  0.80020  0.97533  1.0000
  H   H780      1.0  0.18259  0.79434  0.85443  1.0000
  H   H781      1.0  0.16415  0.76956  0.88271  1.0000
  C   C982      1.0  0.16465  0.76135  0.53717  1.0000
  C   C983      1.0  0.17988  0.76767  0.55005  1.0000
  Fe  Fe69      1.0  0.19524  0.80504  0.66466  1.0000
  C   C984      1.0  0.17101  0.78022  0.59538  1.0000
  C   C985      1.0  0.15578  0.77388  0.58249  1.0000
  C   C986      1.0  0.15261  0.76447  0.55366  1.0000
  C   C987      1.0  0.10383  0.91958  0.81015  1.0000
  H   H782      1.0  0.14635  0.77619  0.59497  1.0000
  H   H783      1.0  0.14081  0.75940  0.54443  1.0000
  C   C988      1.0  0.09680  0.65324  0.94985  1.0000
  C   C989      1.0  0.08571  0.66061  0.94953  1.0000
  H   H784      1.0  0.10918  0.66093  0.95137  1.0000
  C   C990      1.0  0.97196  0.77021  0.62907  1.0000
  C   C991      1.0  0.96795  0.75950  0.60230  1.0000
  C   C992      1.0  0.18671  0.84259  0.51814  1.0000
  H   H785      1.0  0.97715  0.75904  0.58601  1.0000
  C   C993      1.0  0.09309  0.91464  0.83601  1.0000
  C   C994      1.0  0.06467  0.76056  0.54964  1.0000
  C   C995      1.0  0.07118  0.74854  0.54573  1.0000
  C   C996      1.0  0.10030  0.95023  0.92785  1.0000
  C   C997      1.0  0.08759  0.77693  0.72731  1.0000
  H   H786      1.0  0.18168  0.87985  0.72483  1.0000
  H   H787      1.0  0.06269  0.78190  0.52888  1.0000
  H   H788      1.0  0.06897  0.73927  0.56393  1.0000
  H   H789      1.0  0.11081  0.67267  0.88191  1.0000
  C   C998      1.0  0.09849  0.77093  0.73891  1.0000
  H   H790      1.0  0.19699  0.84392  0.76475  1.0000
  C   C999      1.0  0.19022  0.86175  0.74128  1.0000
  C   C1000     1.0  0.19053  0.85192  0.76708  1.0000
  C   C1001     1.0  0.18240  0.85234  0.79596  1.0000
  C   C1002     1.0  0.17367  0.86235  0.79903  1.0000
  C   C1003     1.0  0.17341  0.87228  0.77333  1.0000
  C   C1004     1.0  0.18183  0.87210  0.74460  1.0000
  C   C1005     1.0  0.17350  0.97249  0.84886  1.0000
  H   H791      1.0  0.18927  0.76524  0.53764  1.0000
  H   H792      1.0  0.16675  0.88007  0.77561  1.0000
  C   C1006     1.0  0.09044  0.86023  0.75789  1.0000
  C   C1007     1.0  0.07880  0.85986  0.73608  1.0000
  C   C1008     1.0  0.07180  0.84623  0.71510  1.0000
  C   C1009     1.0  0.07625  0.83270  0.71606  1.0000
  C   C1010     1.0  0.08787  0.83313  0.73781  1.0000
  C   C1011     1.0  0.09504  0.84683  0.75836  1.0000
  H   H793      1.0  0.07512  0.87016  0.73549  1.0000
  H   H794      1.0  0.06281  0.84607  0.69864  1.0000
  H   H795      1.0  0.09136  0.82277  0.73875  1.0000
  H   H796      1.0  0.10393  0.84693  0.77503  1.0000
  C   C1012     1.0  0.10187  0.85747  0.96497  1.0000
  H   H797      1.0  0.05538  0.67772  0.59040  1.0000
  H   H798      1.0  0.97897  0.71826  0.63201  1.0000
  P   P33       1.0  0.11912  0.76799  0.78429  1.0000
  H   H799      1.0  0.12987  0.89726  0.97582  1.0000
  C   C1013     1.0  0.09028  0.86408  0.96365  1.0000
  H   H800      1.0  0.96124  0.67988  0.76625  1.0000
  C   C1014     1.0  0.10870  0.74706  0.79764  1.0000
  C   C1015     1.0  0.16727  0.88254  0.53190  1.0000
  H   H801      1.0  0.09143  0.87345  0.94619  1.0000
  C   C1016     1.0  0.17764  0.95831  0.89465  1.0000
  C   C1017     1.0  0.17041  0.95759  0.86503  1.0000
  H   H802      1.0  0.20002  0.83458  0.96053  1.0000
  H   H803      1.0  0.17550  0.94706  0.90746  1.0000
  H   H804      1.0  0.17188  0.72522  0.91032  1.0000
  C   C1018     1.0  0.15984  0.85041  0.59464  1.0000
  C   C1019     1.0  0.14734  0.84186  0.61566  1.0000
  C   C1020     1.0  0.14927  0.84377  0.64921  1.0000
  C   C1021     1.0  0.16366  0.85469  0.66134  1.0000
  P   P34       1.0  0.13254  0.83471  0.67597  1.0000
  C   C1022     1.0  0.12345  0.84967  0.67814  1.0000
  C   C1023     1.0  0.12007  0.81469  0.66068  1.0000
  C   C1024     1.0  0.10362  0.80937  0.66273  1.0000
  C   C1025     1.0  0.09408  0.79401  0.65006  1.0000
  C   C1026     1.0  0.10088  0.78349  0.63677  1.0000
  C   C1027     1.0  0.11726  0.78833  0.63627  1.0000
  C   C1028     1.0  0.12685  0.80392  0.64796  1.0000
  C   C1029     1.0  0.11202  0.84918  0.65592  1.0000
  C   C1030     1.0  0.10497  0.86073  0.65800  1.0000
  C   C1031     1.0  0.10957  0.87310  0.68173  1.0000
  C   C1032     1.0  0.12140  0.87409  0.70311  1.0000
  C   C1033     1.0  0.12848  0.86257  0.70107  1.0000
  C   C1034     1.0  0.13791  0.83090  0.71566  1.0000
  C   C1035     1.0  0.12879  0.83199  0.74259  1.0000
  C   C1036     1.0  0.13304  0.82973  0.77361  1.0000
  C   C1037     1.0  0.14615  0.82576  0.77788  1.0000
  C   C1038     1.0  0.15481  0.82373  0.75112  1.0000
  C   C1039     1.0  0.15077  0.82635  0.72001  1.0000
  Fe  Fe70      1.0  0.11881  0.74517  0.96086  1.0000
  H   H805      1.0  0.13612  0.83403  0.60577  1.0000
  H   H806      1.0  0.16531  0.85675  0.68705  1.0000
  H   H807      1.0  0.09811  0.81702  0.67415  1.0000
  H   H808      1.0  0.08136  0.79024  0.65090  1.0000
  H   H809      1.0  0.09341  0.77157  0.62703  1.0000
  H   H810      1.0  0.12257  0.78010  0.62638  1.0000
  H   H811      1.0  0.13954  0.80755  0.64710  1.0000
  H   H812      1.0  0.10835  0.83974  0.63734  1.0000
  H   H813      1.0  0.09563  0.85987  0.64176  1.0000
  H   H814      1.0  0.10377  0.88174  0.68401  1.0000
  H   H815      1.0  0.12477  0.88353  0.72188  1.0000
  H   H816      1.0  0.13771  0.86364  0.71776  1.0000
  H   H817      1.0  0.11867  0.83509  0.73969  1.0000
  H   H818      1.0  0.12648  0.83155  0.79438  1.0000
  H   H819      1.0  0.14991  0.82483  0.80198  1.0000
  H   H820      1.0  0.16501  0.82072  0.75472  1.0000
  H   H821      1.0  0.15787  0.82515  0.69960  1.0000
  C   C1040     1.0  0.06862  0.68765  0.54658  1.0000
  C   C1041     1.0  0.07746  0.85898  0.98582  1.0000
  C   C1042     1.0  0.18687  0.82271  0.89939  1.0000
  H   H822      1.0  0.98038  0.79449  0.89758  1.0000
  C   C1043     1.0  0.17250  0.82793  0.99377  1.0000
  C   C1044     1.0  0.14806  0.78087  0.70437  1.0000
  C   C1045     1.0  0.15448  0.76881  0.70282  1.0000
  C   C1046     1.0  0.15013  0.75644  0.72585  1.0000
  C   C1047     1.0  0.13934  0.75609  0.75048  1.0000
  C   C1048     1.0  0.13269  0.76805  0.75201  1.0000
  C   C1049     1.0  0.12967  0.78014  0.81815  1.0000
  C   C1050     1.0  0.12216  0.77835  0.84853  1.0000
  C   C1051     1.0  0.12998  0.78784  0.87489  1.0000
  C   C1052     1.0  0.14537  0.79933  0.87101  1.0000
  C   C1053     1.0  0.15303  0.80107  0.84097  1.0000
  C   C1054     1.0  0.14529  0.79138  0.81465  1.0000
  C   C1055     1.0  0.10170  0.78811  0.78678  1.0000
  H   H823      1.0  0.16300  0.76918  0.68397  1.0000
  H   H824      1.0  0.15536  0.74729  0.72495  1.0000
  H   H825      1.0  0.13640  0.74659  0.76842  1.0000
  H   H826      1.0  0.11025  0.76956  0.85185  1.0000
  H   H827      1.0  0.12410  0.78629  0.89834  1.0000
  H   H828      1.0  0.15129  0.80687  0.89130  1.0000
  H   H829      1.0  0.16507  0.80981  0.83796  1.0000
  H   H830      1.0  0.15158  0.79274  0.79177  1.0000
  H   H831      1.0  0.08821  0.80355  0.78846  1.0000
  H   H832      1.0  0.10711  0.79267  0.80965  1.0000
  H   H833      1.0  0.16998  0.80450  0.92978  1.0000
  C   C1056     1.0  0.13730  0.78060  0.72901  1.0000
  H   H834      1.0  0.13317  0.95116  0.84615  1.0000
  H   H835      1.0  0.08232  0.66583  0.87618  1.0000
  C   C1057     1.0  0.10540  0.77622  0.76908  1.0000
  H   H836      1.0  0.13267  0.79023  0.73016  1.0000
  H   H837      1.0  0.03147  0.82825  0.99391  1.0000
  H   H838      1.0  0.12702  0.74779  0.83016  1.0000
  C   C1058     1.0  0.09396  0.73711  0.78522  1.0000
  C   C1059     1.0  0.97545  0.76847  0.89635  1.0000
  H   H839      1.0  0.14379  0.82129  0.55019  1.0000
  H   H840      1.0  0.97720  0.74597  0.96069  1.0000
  C   C1060     1.0  0.11001  0.64966  0.86099  1.0000
  H   H841      1.0  0.08834  0.74171  0.76751  1.0000
  S   S149      1.0  0.19538  0.80026  0.79064  1.0000
  C   C1061     1.0  0.12822  0.89258  0.50974  1.0000
  C   C1062     1.0  0.20165  0.82771  0.88416  1.0000
  C   C1063     1.0  0.19615  0.76290  0.93811  1.0000
  H   H842      1.0  0.20763  0.85162  0.58759  1.0000
  H   H843      1.0  0.12543  0.68605  0.52195  1.0000
  H   H844      1.0  0.01689  0.66515  0.52832  1.0000
  C   C1064     1.0  0.06966  0.65018  0.94746  1.0000
  H   H845      1.0  0.10147  0.76210  0.72441  1.0000
  C   C1065     1.0  0.14725  0.89133  0.63018  1.0000
  H   H846      1.0  0.18728  0.87138  0.64996  1.0000
  H   H847      1.0  0.15165  0.79056  0.68665  1.0000
  C   C1066     1.0  0.18072  0.88231  0.51567  1.0000
  H   H848      1.0  0.11426  0.82054  0.52316  1.0000
  S   S150      1.0  0.17413  0.79200  0.63185  1.0000
  H   H849      1.0  0.10994  0.95294  0.97567  1.0000
  H   H850      1.0  0.07536  0.79322  0.73614  1.0000
  H   H851      1.0  0.10128  0.91272  0.78754  1.0000
  C   C1067     1.0  0.20327  0.77006  0.90882  1.0000
  C   C1068     1.0  0.08376  0.69505  0.53289  1.0000
  C   C1069     1.0  0.17611  0.86317  0.64029  1.0000
  C   C1070     1.0  0.97709  0.74691  0.68652  1.0000
  C   C1071     1.0  0.20551  0.80403  0.90575  1.0000
  C   C1072     1.0  0.17421  0.86106  0.60700  1.0000
  C   C1073     1.0  0.18085  0.73759  0.91006  1.0000
  H   H852      1.0  0.11351  0.71922  0.84793  1.0000
  H   H853      1.0  0.08733  0.70190  0.82653  1.0000
  C   C1074     1.0  0.14171  0.89192  0.57327  1.0000
  C   C1075     1.0  0.11529  0.78281  0.54851  1.0000
  C   C1076     1.0  0.06697  0.68362  0.57943  1.0000
  C   C1077     1.0  0.07618  0.75434  0.84588  1.0000
  C   C1078     1.0  0.08063  0.74631  0.87015  1.0000
  C   C1079     1.0  0.08576  0.75434  0.89958  1.0000
  C   C1080     1.0  0.08621  0.77027  0.90496  1.0000
  C   C1081     1.0  0.08110  0.77818  0.88129  1.0000
  C   C1082     1.0  0.07660  0.77027  0.85123  1.0000
  P   P35       1.0  0.08161  0.79871  0.88943  1.0000
  C   C1083     1.0  0.06976  0.79972  0.92432  1.0000
  C   C1084     1.0  0.10198  0.81129  0.89678  1.0000
  C   C1085     1.0  0.10728  0.81560  0.92837  1.0000
  C   C1086     1.0  0.12298  0.82574  0.93379  1.0000
  C   C1087     1.0  0.13348  0.83173  0.90778  1.0000
  C   C1088     1.0  0.12837  0.82715  0.87633  1.0000
  C   C1089     1.0  0.11272  0.81685  0.87082  1.0000
  C   C1090     1.0  0.06746  0.81440  0.93081  1.0000
  H   H854      1.0  0.10014  0.79173  0.99042  1.0000
  C   C1091     1.0  0.15021  0.90810  0.63313  1.0000
  C   C1092     1.0  0.05419  0.78787  0.97245  1.0000
  C   C1093     1.0  0.06293  0.78637  0.94529  1.0000
  C   C1094     1.0  0.07452  0.80741  0.85706  1.0000
  C   C1095     1.0  0.06053  0.79801  0.84122  1.0000
  C   C1096     1.0  0.05502  0.80490  0.81655  1.0000
  C   C1097     1.0  0.06295  0.82146  0.80871  1.0000
  C   C1098     1.0  0.07622  0.83119  0.82595  1.0000
  C   C1099     1.0  0.08202  0.82422  0.84989  1.0000
  H   H855      1.0  0.07250  0.74825  0.82280  1.0000
  H   H856      1.0  0.08041  0.73400  0.86606  1.0000
  H   H857      1.0  0.08950  0.74827  0.91829  1.0000
  H   H858      1.0  0.09049  0.77638  0.92779  1.0000
  H   H859      1.0  0.07359  0.77631  0.83165  1.0000
  H   H860      1.0  0.09927  0.81144  0.94885  1.0000
  H   H861      1.0  0.12679  0.82936  0.95817  1.0000
  H   H862      1.0  0.14547  0.84022  0.91179  1.0000
  H   H863      1.0  0.13650  0.83193  0.85619  1.0000
  H   H864      1.0  0.10888  0.81373  0.84630  1.0000
  H   H865      1.0  0.07288  0.82505  0.91566  1.0000
  H   H866      1.0  0.02503  0.74704  0.98441  1.0000
  H   H867      1.0  0.08226  0.90393  0.83327  1.0000
  C   C1100     1.0  0.08378  0.78854  0.74533  1.0000
  H   H868      1.0  0.06436  0.77486  0.94130  1.0000
  H   H869      1.0  0.05381  0.78540  0.84806  1.0000
  H   H870      1.0  0.04447  0.79751  0.80373  1.0000
  H   H871      1.0  0.05871  0.82687  0.78964  1.0000
  H   H872      1.0  0.08198  0.84422  0.82092  1.0000
  H   H873      1.0  0.09209  0.83218  0.86334  1.0000
  C   C1101     1.0  0.11558  0.74046  0.82048  1.0000
  C   C1102     1.0  0.19901  0.76072  0.88017  1.0000
  H   H874      1.0  0.04978  0.71533  0.51003  1.0000
  C   C1103     1.0  0.07605  0.95768  0.95774  1.0000
  H   H875      1.0  0.00393  0.69662  0.59349  1.0000
  H   H876      1.0  0.07487  0.71328  0.78613  1.0000
  H   H877      1.0  0.14064  0.87024  0.59871  1.0000
  H   H878      1.0  0.18613  0.78823  0.93569  1.0000
  H   H879      1.0  0.98362  0.75962  0.69364  1.0000
  C   C1104     1.0  0.14399  0.80171  0.51800  1.0000
  S   S151      1.0  0.11158  0.76705  0.96819  1.0000
  S   S152      1.0  0.14479  0.75287  0.95077  1.0000
  C   C1105     1.0  0.97985  0.78394  0.91132  1.0000
  H   H880      1.0  0.12250  0.65268  0.86366  1.0000
  C   C1106     1.0  0.17639  0.82019  0.55593  1.0000
  C   C1107     1.0  0.05181  0.80246  0.97829  1.0000
  H   H881      1.0  0.16832  0.80792  0.56225  1.0000
  H   H882      1.0  0.10383  0.87885  0.52363  1.0000
  C   C1108     1.0  0.13775  0.80858  0.54294  1.0000
  C   C1109     1.0  0.08030  0.68709  0.59827  1.0000
  C   C1110     1.0  0.12152  0.77587  0.52392  1.0000
  H   H883      1.0  0.18263  0.84462  0.81572  1.0000
  C   C1111     1.0  0.18773  0.82922  0.57818  1.0000
  C   C1112     1.0  0.18307  0.77712  0.57892  1.0000
  H   H884      1.0  0.17953  0.82971  0.89620  1.0000
  H   H885      1.0  0.05648  0.82694  0.96201  1.0000
  H   H886      1.0  0.12677  0.93633  0.79433  1.0000
  H   H887      1.0  0.08534  0.69816  0.50762  1.0000
  H   H888      1.0  0.97094  0.74279  0.90273  1.0000
  H   H889      1.0  0.08211  0.77265  0.70425  1.0000
  C   C1113     1.0  0.12071  0.93103  0.93149  1.0000
  H   H890      1.0  0.15345  0.91433  0.65627  1.0000
  P   P36       1.0  0.13634  0.88131  0.53489  1.0000
  H   H891      1.0  0.11858  0.80456  0.57707  1.0000
  C   C1114     1.0  0.14297  0.88325  0.60045  1.0000
  C   C1115     1.0  0.12347  0.79914  0.55818  1.0000
  C   C1116     1.0  0.11814  0.93291  0.81392  1.0000
  C   C1117     1.0  0.98302  0.77226  0.96195  1.0000
  H   H892      1.0  0.10569  0.69714  0.59891  1.0000
  C   C1118     1.0  0.08828  0.95691  0.97612  1.0000
  C   C1119     1.0  0.98301  0.73982  0.66166  1.0000
  C   C1120     1.0  0.18789  0.74455  0.88088  1.0000
  H   H893      1.0  0.14403  0.96156  0.94988  1.0000
  H   H894      1.0  0.19484  0.78191  0.58848  1.0000
  C   C1121     1.0  0.01296  0.69368  0.58063  1.0000
  C   C1122     1.0  0.12173  0.94134  0.84348  1.0000
  H   H895      1.0  0.08855  0.91856  0.88589  1.0000
  C   C1123     1.0  0.08046  0.74838  0.51831  1.0000
  C   C1124     1.0  0.06766  0.77259  0.52609  1.0000
  C   C1125     1.0  0.14482  0.90880  0.57637  1.0000
  C   C1126     1.0  0.14866  0.80478  0.97997  1.0000
  Fe  Fe71      1.0  0.20574  0.83821  0.70069  1.0000
  C   C1127     1.0  0.12739  0.90680  0.96379  1.0000
  H   H896      1.0  0.10409  0.77554  0.55987  1.0000
  H   H897      1.0  0.15838  0.84894  0.56879  1.0000
  H   H898      1.0  0.17838  0.76632  0.76700  1.0000
  C   C1128     1.0  0.04489  0.66177  0.50794  1.0000
  H   H899      1.0  0.18423  0.73759  0.85859  1.0000
  H   H900      1.0  0.16765  0.88463  0.55771  1.0000
  H   H901      1.0  0.12409  0.97420  0.86644  1.0000
  C   C1129     1.0  0.19815  0.85153  0.54040  1.0000
  H   H902      1.0  0.98655  0.79784  0.95539  1.0000
  H   H903      1.0  0.10850  0.86874  0.57745  1.0000
  H   H904      1.0  0.05258  0.70892  0.56832  1.0000
  Fe  Fe72      1.0  0.14282  0.73263  0.98465  1.0000
  H   H905      1.0  0.14406  0.93771  0.91050  1.0000
  C   C1130     1.0  0.11101  0.93649  0.86958  1.0000
  C   C1131     1.0  0.06690  0.84030  0.51120  1.0000
  H   H906      1.0  0.18817  0.82397  0.60138  1.0000
  C   C1132     1.0  0.05058  0.65066  0.52149  1.0000
  H   H907      1.0  0.18472  0.79998  0.51294  1.0000
  C   C1133     1.0  0.15366  0.88044  0.51466  1.0000
  C   C1134     1.0  0.09974  0.84240  0.57356  1.0000
  C   C1135     1.0  0.11009  0.85832  0.56578  1.0000
  C   C1136     1.0  0.18502  0.74674  0.93867  1.0000
  C   C1137     1.0  0.10164  0.82879  0.55902  1.0000
  H   H908      1.0  0.18390  0.86770  0.59086  1.0000
  C   C1138     1.0  0.97452  0.75482  0.91422  1.0000
  H   H909      1.0  0.03201  0.71533  0.59790  1.0000
  H   H910      1.0  0.09764  0.92011  0.95449  1.0000
  H   H911      1.0  0.06090  0.65559  0.94730  1.0000
  C   C1139     1.0  0.11354  0.83110  0.53584  1.0000
  C   C1140     1.0  0.97817  0.75668  0.94698  1.0000
  H   H912      1.0  0.09002  0.84061  0.59041  1.0000
  C   C1141     1.0  0.12230  0.86074  0.54294  1.0000
  C   C1142     1.0  0.09706  0.69838  0.55171  1.0000
  H   H913      1.0  0.09348  0.81644  0.56462  1.0000
  C   C1143     1.0  0.98350  0.78583  0.94408  1.0000
  C   C1144     1.0  0.08818  0.95139  0.90941  1.0000
  C   C1145     1.0  0.14901  0.91683  0.60625  1.0000
  C   C1146     1.0  0.09670  0.92297  0.86571  1.0000
  H   H914      1.0  0.05866  0.65434  0.54133  1.0000
  C   C1147     1.0  0.12386  0.84700  0.52777  1.0000
  H   H915      1.0  0.13724  0.79986  0.96866  1.0000
  H   H916      1.0  0.07399  0.82031  0.52127  1.0000
  H   H917      1.0  0.14825  0.88456  0.65098  1.0000
  H   H918      1.0  0.14399  0.91582  0.55589  1.0000
  H   H919      1.0  0.15131  0.92985  0.60855  1.0000
  C   C1148     1.0  0.17581  0.82676  0.52563  1.0000
  P   P37       1.0  0.05141  0.68291  0.52219  1.0000
  H   H920      1.0  0.10870  0.70395  0.54079  1.0000
  C   C1149     1.0  0.03632  0.68644  0.54635  1.0000
  C   C1150     1.0  0.13871  0.91769  0.94327  1.0000
  C   C1151     1.0  0.97444  0.72363  0.65160  1.0000
  C   C1152     1.0  0.10010  0.84521  0.98766  1.0000
  C   C1153     1.0  0.10043  0.95331  0.96121  1.0000
  P   P38       1.0  0.11623  0.94597  0.90892  1.0000
  H   H921      1.0  0.20569  0.83849  0.86899  1.0000
  H   H922      1.0  0.19127  0.88419  0.52899  1.0000
  C   C1154     1.0  0.00879  0.67956  0.56101  1.0000
  H   H923      1.0  0.01970  0.80470  0.50873  1.0000
  H   H924      1.0  0.07897  0.68400  0.62360  1.0000
  Fe  Fe73      1.0  0.20237  0.80749  0.73808  1.0000
  H   H925      1.0  0.14999  0.91665  0.93942  1.0000
  H   H926      1.0  0.04947  0.77783  0.98935  1.0000
  C   C1155     1.0  0.19077  0.79932  0.92156  1.0000
  S   S153      1.0  0.19997  0.86089  0.70462  1.0000
  H   H927      1.0  0.08526  0.73894  0.51534  1.0000
  C   C1156     1.0  0.10348  0.66099  0.87102  1.0000
  H   H928      1.0  0.14540  0.85526  0.97814  1.0000
  H   H929      1.0  0.20678  0.86358  0.53428  1.0000
  H   H930      1.0  0.19315  0.97395  0.93073  1.0000
  C   C1157     1.0  0.10928  0.91985  0.95171  1.0000
  C   C1158     1.0  0.96247  0.73798  0.70095  1.0000
  H   H931      1.0  0.04632  0.80423  0.50370  1.0000
  C   C1159     1.0  0.02877  0.70416  0.58328  1.0000
  H   H932      1.0  0.08813  0.94966  0.88349  1.0000
  C   C1160     1.0  0.08737  0.65712  0.86775  1.0000
  C   C1161     1.0  0.09534  0.69447  0.58440  1.0000
  H   H933      1.0  0.13281  0.84850  0.50937  1.0000
  C   C1162     1.0  0.14777  0.70342  0.50455  1.0000
  C   C1163     1.0  0.18150  0.80859  0.91828  1.0000
  H   H934      1.0  0.15368  0.82976  0.96635  1.0000
  H   H935      1.0  0.99651  0.67151  0.55879  1.0000
  C   C1164     1.0  0.02041  0.67598  0.54377  1.0000
  C   C1165     1.0  0.05827  0.81561  0.95727  1.0000
  H   H936      1.0  0.11524  0.76320  0.51642  1.0000
  C   C1166     1.0  0.11269  0.90789  0.96802  1.0000
  C   C1167     1.0  0.13579  0.78527  0.50870  1.0000
  H   H937      1.0  0.17937  0.74136  0.96123  1.0000
  C   C1168     1.0  0.18773  0.97363  0.90776  1.0000
  H   H938      1.0  0.00826  0.76154  0.96741  1.0000
  H   H939      1.0  0.06666  0.95578  0.91009  1.0000
  H   H940      1.0  0.14936  0.71192  0.52475  1.0000
  H   H941      1.0  0.96251  0.77868  0.67067  1.0000
  H   H942      1.0  0.97264  0.76704  0.87096  1.0000
  C   C1169     1.0  0.07604  0.95499  0.92439  1.0000
  C   C1170     1.0  0.13273  0.96554  0.90737  1.0000
  H   H943      1.0  0.17276  0.87418  0.98920  1.0000
  C   C1171     1.0  0.00842  0.75874  0.99261  1.0000
  H   H944      1.0  0.16797  0.97219  0.82602  1.0000
  H   H945      1.0  0.19886  0.76988  0.96046  1.0000
  C   C1172     1.0  0.19870  0.84482  0.57036  1.0000
  C   C1173     1.0  0.13436  0.68888  0.50300  1.0000
  C   C1174     1.0  0.07627  0.83108  0.50679  1.0000
  H   H946      1.0  0.10384  0.89921  0.98346  1.0000
  H   H947      1.0  0.06875  0.86446  0.98516  1.0000
  H   H948      1.0  0.10886  0.83989  0.98867  1.0000
  C   C1175     1.0  0.95967  0.77048  0.64991  1.0000
  C   C1176     1.0  0.95988  0.71457  0.66623  1.0000
  S   S154      1.0  0.16119  0.74942  0.50085  1.0000
  C   C1177     1.0  0.11194  0.88876  0.50935  1.0000
  H   H949      1.0  0.20381  0.76588  0.85704  1.0000
  H   H950      1.0  0.17933  0.84106  0.99330  1.0000
  H   H951      1.0  0.06665  0.96048  0.96931  1.0000
  C   C1178     1.0  0.07679  0.77231  0.49847  1.0000
  C   C1179     1.0  0.09623  0.76611  0.99566  1.0000
  H   H952      1.0  0.95945  0.69844  0.72440  1.0000
  C   C1180     1.0  0.15409  0.79426  0.99605  1.0000
  P   P39       1.0  0.16165  0.81443  0.49646  1.0000
  H   H953      1.0  0.26492  0.19412  0.46465  1.0000
  Fe  Fe74      1.0  0.23902  0.06678  0.38946  1.0000
  S   S155      1.0  0.22477  0.08213  0.38254  1.0000
  S   S156      1.0  0.26514  0.08202  0.38536  1.0000
  C   C1181     1.0  0.29307  0.12861  0.46669  1.0000
  H   H954      1.0  0.24019  0.17478  0.44194  1.0000
  H   H955      1.0  0.25367  0.19873  0.34986  1.0000
  S   S157      1.0  0.22347  0.05151  0.42923  1.0000
  S   S158      1.0  0.22680  0.04857  0.35065  1.0000
  C   C1182     1.0  0.27943  0.19644  0.03114  1.0000
  S   S159      1.0  0.23618  0.14204  0.16014  1.0000
  H   H956      1.0  0.26092  0.06215  0.44258  1.0000
  S   S160      1.0  0.22789  0.16004  0.09904  1.0000
  Fe  Fe75      1.0  0.22080  0.13418  0.11647  1.0000
  S   S161      1.0  0.22360  0.11249  0.08932  1.0000
  Fe  Fe76      1.0  0.24185  0.16789  0.14459  1.0000
  S   S162      1.0  0.26743  0.18586  0.14049  1.0000
  S   S163      1.0  0.22185  0.17091  0.17282  1.0000
  Fe  Fe77      1.0  0.43954  0.01405  0.05107  1.0000
  S   S164      1.0  0.43221  0.02865  0.08825  1.0000
  S   S165      1.0  0.42700  0.98652  0.04124  1.0000
  Fe  Fe78      1.0  0.43758  0.04820  0.05040  1.0000
  C   C1183     1.0  0.24853  0.18379  0.42632  1.0000
  S   S166      1.0  0.44351  0.03273  0.01212  1.0000
  H   H957      1.0  0.21408  0.08213  0.23030  1.0000
  S   S167      1.0  0.35075  0.11726  0.45575  1.0000
  H   H958      1.0  0.28908  0.19380  0.07647  1.0000
  Fe  Fe79      1.0  0.36162  0.13717  0.04440  1.0000
  H   H959      1.0  0.38567  0.17859  0.43176  1.0000
  S   S168      1.0  0.35523  0.14372  0.09497  1.0000
  Fe  Fe80      1.0  0.35237  0.14248  0.47171  1.0000
  S   S169      1.0  0.34723  0.16183  0.44329  1.0000
  H   H960      1.0  0.34222  0.28663  0.34311  1.0000
  H   H961      1.0  0.43710  0.05924  0.43327  1.0000
  C   C1184     1.0  0.30183  0.18866  0.03603  1.0000
  S   S170      1.0  0.36156  0.11180  0.03529  1.0000
  Fe  Fe81      1.0  0.36889  0.21198  0.27938  1.0000
  S   S171      1.0  0.35695  0.22906  0.29462  1.0000
  S   S172      1.0  0.37573  0.19383  0.30793  1.0000
  Fe  Fe82      1.0  0.37006  0.22126  0.20857  1.0000
  S   S173      1.0  0.35816  0.23926  0.21830  1.0000
  S   S174      1.0  0.37843  0.21554  0.15916  1.0000
  Fe  Fe83      1.0  0.37425  0.24800  0.26122  1.0000
  S   S175      1.0  0.38487  0.27472  0.28226  1.0000
  Fe  Fe84      1.0  0.34190  0.21947  0.25078  1.0000
  S   S176      1.0  0.31515  0.20956  0.25721  1.0000
  S   S177      1.0  0.38722  0.23126  0.24909  1.0000
  S   S178      1.0  0.35274  0.20122  0.23800  1.0000
  C   C1185     1.0  0.40009  0.29435  0.27277  1.0000
  C   C1186     1.0  0.40893  0.29728  0.24388  1.0000
  C   C1187     1.0  0.21277  0.10612  0.23325  1.0000
  C   C1188     1.0  0.24528  0.18464  0.39365  1.0000
  H   H962      1.0  0.40671  0.28739  0.22636  1.0000
  H   H963      1.0  0.37456  0.07499  0.07406  1.0000
  C   C1189     1.0  0.36177  0.16383  0.11208  1.0000
  C   C1190     1.0  0.37429  0.17701  0.09857  1.0000
  C   C1191     1.0  0.37943  0.19270  0.11354  1.0000
  C   C1192     1.0  0.37207  0.19541  0.14200  1.0000
  C   C1193     1.0  0.35966  0.18217  0.15560  1.0000
  C   C1194     1.0  0.35454  0.16650  0.14072  1.0000
  H   H964      1.0  0.38013  0.17507  0.07683  1.0000
  H   H965      1.0  0.38917  0.20281  0.10304  1.0000
  H   H966      1.0  0.35376  0.18406  0.17725  1.0000
  H   H967      1.0  0.34469  0.15651  0.15116  1.0000
  C   C1195     1.0  0.35484  0.17007  0.40502  1.0000
  C   C1196     1.0  0.35183  0.18358  0.39409  1.0000
  C   C1197     1.0  0.35801  0.19086  0.36428  1.0000
  C   C1198     1.0  0.36729  0.18472  0.34512  1.0000
  C   C1199     1.0  0.37023  0.17114  0.35594  1.0000
  C   C1200     1.0  0.36387  0.16369  0.38557  1.0000
  H   H968      1.0  0.34490  0.18860  0.40903  1.0000
  H   H969      1.0  0.35605  0.20152  0.35639  1.0000
  H   H970      1.0  0.37754  0.16642  0.34140  1.0000
  H   H971      1.0  0.36613  0.15320  0.39357  1.0000
  C   C1201     1.0  0.41383  0.07416  0.02984  1.0000
  C   C1202     1.0  0.39225  0.11128  0.18916  1.0000
  C   C1203     1.0  0.44543  0.01714  0.30620  1.0000
  H   H972      1.0  0.42078  0.04735  0.38531  1.0000
  H   H973      1.0  0.37964  0.06502  0.12868  1.0000
  H   H974      1.0  0.30306  0.15462  0.45983  1.0000
  C   C1204     1.0  0.36398  0.09129  0.21905  1.0000
  P   P40       1.0  0.39986  0.20654  0.47583  1.0000
  C   C1205     1.0  0.29916  0.13376  0.00539  1.0000
  C   C1206     1.0  0.29530  0.14484  0.47488  1.0000
  H   H975      1.0  0.35627  0.22447  0.05593  1.0000
  C   C1207     1.0  0.42120  0.99549  0.26789  1.0000
  H   H976      1.0  0.41727  0.99432  0.10462  1.0000
  C   C1208     1.0  0.28056  0.19174  0.17325  1.0000
  C   C1209     1.0  0.27555  0.18687  0.20489  1.0000
  C   C1210     1.0  0.28630  0.19233  0.23037  1.0000
  C   C1211     1.0  0.30216  0.20250  0.22440  1.0000
  C   C1212     1.0  0.30719  0.20715  0.19274  1.0000
  C   C1213     1.0  0.29643  0.20182  0.16734  1.0000
  H   H977      1.0  0.26334  0.17919  0.20972  1.0000
  H   H978      1.0  0.28228  0.18880  0.25482  1.0000
  H   H979      1.0  0.31933  0.21507  0.18786  1.0000
  H   H980      1.0  0.30041  0.20565  0.14298  1.0000
  H   H981      1.0  0.43809  0.08942  0.02034  1.0000
  C   C1214     1.0  0.22410  0.09553  0.48966  1.0000
  H   H982      1.0  0.35310  0.08340  0.23070  1.0000
  C   C1215     1.0  0.27334  0.20702  0.42026  1.0000
  H   H983      1.0  0.37414  0.20950  0.05945  1.0000
  H   H984      1.0  0.22564  0.11385  0.36550  1.0000
  H   H985      1.0  0.32526  0.11154  0.06229  1.0000
  C   C1216     1.0  0.36004  0.18933  0.02901  1.0000
  C   C1217     1.0  0.39826  0.07337  0.02887  1.0000
  C   C1218     1.0  0.22319  0.09353  0.03549  1.0000
  C   C1219     1.0  0.30698  0.19582  0.43357  1.0000
  C   C1220     1.0  0.36356  0.20435  0.04533  1.0000
  H   H986      1.0  0.25792  0.10863  0.43065  1.0000
  H   H987      1.0  0.22937  0.08805  0.05024  1.0000
  C   C1221     1.0  0.39653  0.16142  0.44040  1.0000
  C   C1222     1.0  0.27785  0.08227  0.41646  1.0000
  C   C1223     1.0  0.29338  0.09391  0.41549  1.0000
  C   C1224     1.0  0.30375  0.09484  0.44040  1.0000
  C   C1225     1.0  0.28212  0.10202  0.09022  1.0000
  H   H988      1.0  0.30982  0.18591  0.05141  1.0000
  C   C1226     1.0  0.27281  0.07130  0.44208  1.0000
  H   H989      1.0  0.29730  0.10234  0.39560  1.0000
  H   H990      1.0  0.31560  0.10407  0.43979  1.0000
  C   C1227     1.0  0.24203  0.17113  0.28313  1.0000
  H   H991      1.0  0.40184  0.97666  0.14902  1.0000
  H   H992      1.0  0.44747  0.98462  0.08844  1.0000
  C   C1228     1.0  0.33614  0.19100  0.00876  1.0000
  H   H993      1.0  0.33058  0.21158  0.41921  1.0000
  H   H994      1.0  0.33954  0.08976  0.30631  1.0000
  H   H995      1.0  0.21444  0.10822  0.20757  1.0000
  H   H996      1.0  0.41144  0.14169  0.04679  1.0000
  H   H997      1.0  0.40603  0.16404  0.07567  1.0000
  H   H998      1.0  0.41095  0.98354  0.31236  1.0000
  C   C1229     1.0  0.37619  0.10217  0.23757  1.0000
  H   H999      1.0  0.38975  0.15263  0.42239  1.0000
  H   H1000     1.0  0.36793  0.18282  0.03016  1.0000
  H   H1001     1.0  0.38705  0.22833  0.35518  1.0000
  H   H1002     1.0  0.44682  0.98054  0.32948  1.0000
  Fe  Fe85      1.0  0.21157  0.06314  0.34604  1.0000
  C   C1230     1.0  0.40710  0.10121  0.00796  1.0000
  H   H1003     1.0  0.29181  0.12610  0.02415  1.0000
  C   C1231     1.0  0.45335  0.03958  0.36337  1.0000
  H   H1004     1.0  0.36065  0.10563  0.34407  1.0000
  C   C1232     1.0  0.36280  0.30582  0.32353  1.0000
  C   C1233     1.0  0.23083  0.17465  0.26611  1.0000
  H   H1005     1.0  0.37082  0.17800  0.48890  1.0000
  C   C1234     1.0  0.32052  0.19112  0.49016  1.0000
  C   C1235     1.0  0.25471  0.14703  0.04405  1.0000
  H   H1006     1.0  0.27000  0.09909  0.09790  1.0000
  C   C1236     1.0  0.29009  0.19312  0.05035  1.0000
  C   C1237     1.0  0.43382  0.00823  0.25354  1.0000
  C   C1238     1.0  0.21034  0.11792  0.25342  1.0000
  H   H1007     1.0  0.21012  0.12599  0.45743  1.0000
  C   C1239     1.0  0.22329  0.15000  0.39074  1.0000
  H   H1008     1.0  0.40333  0.11897  0.17789  1.0000
  H   H1009     1.0  0.43103  0.03500  0.34071  1.0000
  C   C1240     1.0  0.40278  0.18743  0.46950  1.0000
  C   C1241     1.0  0.28327  0.07208  0.46683  1.0000
  C   C1242     1.0  0.42396  0.09158  0.11487  1.0000
  C   C1243     1.0  0.39196  0.07257  0.12458  1.0000
  C   C1244     1.0  0.30260  0.15069  0.00542  1.0000
  H   H1010     1.0  0.24648  0.14985  0.02945  1.0000
  C   C1245     1.0  0.21672  0.17507  0.31606  1.0000
  C   C1246     1.0  0.21738  0.14536  0.42220  1.0000
  C   C1247     1.0  0.42607  0.08861  0.01974  1.0000
  C   C1248     1.0  0.20987  0.08819  0.27935  1.0000
  C   C1249     1.0  0.43826  0.03999  0.36153  1.0000
  H   H1011     1.0  0.30481  0.08365  0.05363  1.0000
  C   C1250     1.0  0.39424  0.17612  0.44579  1.0000
  S   S179      1.0  0.20962  0.13625  0.23798  1.0000
  H   H1012     1.0  0.38870  0.06222  0.03633  1.0000
  H   H1013     1.0  0.27024  0.19974  0.04241  1.0000
  C   C1251     1.0  0.34639  0.18266  0.01086  1.0000
  C   C1252     1.0  0.39035  0.11209  0.22264  1.0000
  C   C1253     1.0  0.40006  0.21639  0.37959  1.0000
  H   H1014     1.0  0.30174  0.19756  0.41159  1.0000
  P   P41       1.0  0.38295  0.09945  0.12730  1.0000
  C   C1254     1.0  0.39283  0.14843  0.11423  1.0000
  C   C1255     1.0  0.31957  0.19767  0.35285  1.0000
  C   C1256     1.0  0.31140  0.20664  0.34036  1.0000
  C   C1257     1.0  0.29550  0.19873  0.33310  1.0000
  C   C1258     1.0  0.28786  0.18180  0.33775  1.0000
  C   C1259     1.0  0.29614  0.17250  0.34887  1.0000
  C   C1260     1.0  0.31197  0.18069  0.35745  1.0000
  P   P42       1.0  0.28670  0.15023  0.34961  1.0000
  C   C1261     1.0  0.27466  0.14327  0.38559  1.0000
  C   C1262     1.0  0.27435  0.14318  0.31456  1.0000
  C   C1263     1.0  0.26062  0.12879  0.31586  1.0000
  C   C1264     1.0  0.25069  0.12393  0.28940  1.0000
  C   C1265     1.0  0.25426  0.13337  0.26151  1.0000
  C   C1266     1.0  0.26819  0.14731  0.25946  1.0000
  C   C1267     1.0  0.27824  0.15216  0.28577  1.0000
  C   C1268     1.0  0.26864  0.15359  0.40273  1.0000
  C   C1269     1.0  0.25899  0.14775  0.43006  1.0000
  C   C1270     1.0  0.25515  0.13160  0.44016  1.0000
  C   C1271     1.0  0.26099  0.12124  0.42307  1.0000
  C   C1272     1.0  0.27081  0.12707  0.39609  1.0000
  C   C1273     1.0  0.30132  0.14114  0.34941  1.0000
  C   C1274     1.0  0.30386  0.13272  0.32207  1.0000
  C   C1275     1.0  0.31486  0.12529  0.32279  1.0000
  C   C1276     1.0  0.32350  0.12637  0.35059  1.0000
  C   C1277     1.0  0.32102  0.13470  0.37786  1.0000
  C   C1278     1.0  0.30990  0.14196  0.37740  1.0000
  H   H1015     1.0  0.33193  0.20384  0.35805  1.0000
  H   H1016     1.0  0.31752  0.21961  0.33521  1.0000
  H   H1017     1.0  0.28934  0.20561  0.32226  1.0000
  H   H1018     1.0  0.27572  0.17584  0.33093  1.0000
  H   H1019     1.0  0.31873  0.17406  0.36653  1.0000
  H   H1020     1.0  0.25745  0.12124  0.33715  1.0000
  H   H1021     1.0  0.24016  0.11281  0.29057  1.0000
  H   H1022     1.0  0.24625  0.12984  0.24141  1.0000
  H   H1023     1.0  0.27108  0.15446  0.23755  1.0000
  H   H1024     1.0  0.28885  0.16311  0.28369  1.0000
  H   H1025     1.0  0.27127  0.16604  0.39501  1.0000
  H   H1026     1.0  0.25428  0.15561  0.44331  1.0000
  C   C1279     1.0  0.21949  0.08785  0.00349  1.0000
  C   C1280     1.0  0.33991  0.20626  0.02478  1.0000
  H   H1027     1.0  0.27515  0.11875  0.38315  1.0000
  H   H1028     1.0  0.29737  0.13180  0.30024  1.0000
  H   H1029     1.0  0.31667  0.11866  0.30183  1.0000
  H   H1030     1.0  0.33202  0.12063  0.35119  1.0000
  H   H1031     1.0  0.32761  0.13541  0.39954  1.0000
  H   H1032     1.0  0.30805  0.14825  0.39893  1.0000
  C   C1281     1.0  0.27506  0.11535  0.20189  1.0000
  C   C1282     1.0  0.25860  0.10901  0.20147  1.0000
  C   C1283     1.0  0.25090  0.11072  0.17403  1.0000
  C   C1284     1.0  0.25960  0.11872  0.14695  1.0000
  C   C1285     1.0  0.27614  0.12516  0.14714  1.0000
  C   C1286     1.0  0.28381  0.12318  0.17464  1.0000
  P   P43       1.0  0.28745  0.13396  0.11114  1.0000
  C   C1287     1.0  0.27490  0.13900  0.08399  1.0000
  C   C1288     1.0  0.30369  0.15326  0.11948  1.0000
  C   C1289     1.0  0.31461  0.16109  0.09484  1.0000
  C   C1290     1.0  0.32678  0.17631  0.10055  1.0000
  C   C1291     1.0  0.32790  0.18413  0.13055  1.0000
  C   C1292     1.0  0.31697  0.17661  0.15504  1.0000
  C   C1293     1.0  0.30474  0.16140  0.14943  1.0000
  C   C1294     1.0  0.27249  0.15370  0.08898  1.0000
  C   C1295     1.0  0.26243  0.15765  0.06916  1.0000
  C   C1296     1.0  0.40717  0.15775  0.45905  1.0000
  Fe  Fe86      1.0  0.45784  0.04011  0.10092  1.0000
  C   C1297     1.0  0.26690  0.12825  0.05892  1.0000
  C   C1298     1.0  0.29346  0.11809  0.09401  1.0000
  H   H1033     1.0  0.37475  0.10281  0.26352  1.0000
  C   C1299     1.0  0.30918  0.12127  0.08479  1.0000
  H   H1034     1.0  0.28099  0.11410  0.22328  1.0000
  H   H1035     1.0  0.25177  0.10278  0.22239  1.0000
  H   H1036     1.0  0.23813  0.10585  0.17360  1.0000
  H   H1037     1.0  0.25328  0.11972  0.12591  1.0000
  H   H1038     1.0  0.29654  0.12774  0.17494  1.0000
  H   H1039     1.0  0.31378  0.15545  0.07117  1.0000
  H   H1040     1.0  0.33548  0.18201  0.08184  1.0000
  H   H1041     1.0  0.33736  0.19595  0.13497  1.0000
  H   H1042     1.0  0.31791  0.18275  0.17825  1.0000
  H   H1043     1.0  0.29594  0.15636  0.16826  1.0000
  H   H1044     1.0  0.27804  0.16198  0.10874  1.0000
  H   H1045     1.0  0.26030  0.16879  0.07396  1.0000
  C   C1300     1.0  0.22336  0.12264  0.38141  1.0000
  C   C1301     1.0  0.38541  0.22181  0.43616  1.0000
  H   H1046     1.0  0.26784  0.11650  0.05502  1.0000
  H   H1047     1.0  0.27832  0.21790  0.37320  1.0000
  H   H1048     1.0  0.31851  0.13312  0.08890  1.0000
  C   C1302     1.0  0.41286  0.98110  0.10178  1.0000
  H   H1049     1.0  0.29758  0.15594  0.02432  1.0000
  C   C1303     1.0  0.35054  0.07007  0.06325  1.0000
  H   H1050     1.0  0.39001  0.15805  0.12622  1.0000
  H   H1051     1.0  0.37955  0.22396  0.45768  1.0000
  C   C1304     1.0  0.28620  0.08967  0.07568  1.0000
  C   C1305     1.0  0.21466  0.12955  0.43316  1.0000
  H   H1052     1.0  0.37422  0.23340  0.40535  1.0000
  H   H1053     1.0  0.36559  0.29763  0.30667  1.0000
  H   H1054     1.0  0.45580  0.02827  0.26063  1.0000
  H   H1055     1.0  0.28505  0.17912  0.45354  1.0000
  H   H1056     1.0  0.39988  0.12041  0.23703  1.0000
  C   C1306     1.0  0.45375  0.99467  0.13606  1.0000
  C   C1307     1.0  0.21883  0.10610  0.04865  1.0000
  C   C1308     1.0  0.43272  0.00428  0.32038  1.0000
  C   C1309     1.0  0.40280  0.06497  0.12135  1.0000
  C   C1310     1.0  0.36430  0.07754  0.08089  1.0000
  C   C1311     1.0  0.21814  0.17651  0.28250  1.0000
  C   C1312     1.0  0.33729  0.07370  0.07058  1.0000
  H   H1057     1.0  0.23003  0.08979  0.47362  1.0000
  P   P44       1.0  0.22691  0.17058  0.37700  1.0000
  C   C1313     1.0  0.22800  0.17163  0.33343  1.0000
  C   C1314     1.0  0.43242  0.04706  0.38668  1.0000
  H   H1058     1.0  0.35650  0.08146  0.17182  1.0000
  H   H1059     1.0  0.32681  0.06830  0.05617  1.0000
  C   C1315     1.0  0.36590  0.09033  0.18558  1.0000
  H   H1060     1.0  0.35211  0.10155  0.13132  1.0000
  C   C1316     1.0  0.44597  0.01890  0.27254  1.0000
  C   C1317     1.0  0.24061  0.16960  0.31662  1.0000
  H   H1061     1.0  0.29883  0.12600  0.44540  1.0000
  C   C1318     1.0  0.29869  0.08398  0.46622  1.0000
  H   H1062     1.0  0.28411  0.21571  0.43060  1.0000
  H   H1063     1.0  0.27938  0.06359  0.48665  1.0000
  C   C1319     1.0  0.31319  0.10889  0.07012  1.0000
  H   H1064     1.0  0.40861  0.14612  0.45548  1.0000
  C   C1320     1.0  0.39586  0.21364  0.43769  1.0000
  S   S180      1.0  0.41707  0.05659  0.04332  1.0000
  H   H1065     1.0  0.25059  0.12387  0.02006  1.0000
  H   H1066     1.0  0.25164  0.16936  0.27015  1.0000
  C   C1321     1.0  0.39036  0.11992  0.11099  1.0000
  H   H1067     1.0  0.39883  0.05167  0.12201  1.0000
  H   H1068     1.0  0.22603  0.20145  0.40470  1.0000
  Fe  Fe87      1.0  0.38060  0.12339  0.99817  1.0000
  C   C1322     1.0  0.21251  0.09133  0.24618  1.0000
  H   H1069     1.0  0.38286  0.08591  0.01728  1.0000
  S   S181      1.0  0.38195  0.14929  0.01007  1.0000
  H   H1070     1.0  0.24750  0.12702  0.46101  1.0000
  Fe  Fe88      1.0  0.21524  0.14411  0.18551  1.0000
  C   C1323     1.0  0.40661  0.09206  0.47693  1.0000
  C   C1324     1.0  0.40180  0.15179  0.08568  1.0000
  H   H1071     1.0  0.32764  0.08784  0.10076  1.0000
  C   C1325     1.0  0.38690  0.13250  0.12657  1.0000
  H   H1072     1.0  0.37934  0.12997  0.14779  1.0000
  H   H1073     1.0  0.43864  0.98197  0.38645  1.0000
  C   C1326     1.0  0.40483  0.13920  0.06942  1.0000
  H   H1074     1.0  0.42696  0.23387  0.44790  1.0000
  H   H1075     1.0  0.39124  0.02076  0.47816  1.0000
  H   H1076     1.0  0.35031  0.06185  0.04324  1.0000
  C   C1327     1.0  0.32998  0.20130  0.46606  1.0000
  C   C1328     1.0  0.41316  0.09923  0.11808  1.0000
  C   C1329     1.0  0.42270  0.10200  0.00872  1.0000
  H   H1077     1.0  0.34260  0.20714  0.46916  1.0000
  C   C1330     1.0  0.29754  0.18546  0.45744  1.0000
  C   C1331     1.0  0.33780  0.08479  0.09559  1.0000
  C   C1332     1.0  0.38966  0.22448  0.37828  1.0000
  C   C1333     1.0  0.39490  0.08679  0.01813  1.0000
  C   C1334     1.0  0.42070  0.99347  0.30128  1.0000
  C   C1335     1.0  0.32955  0.11502  0.15304  1.0000
  C   C1336     1.0  0.31434  0.10428  0.16153  1.0000
  C   C1337     1.0  0.30908  0.10361  0.19355  1.0000
  C   C1338     1.0  0.31897  0.11384  0.21695  1.0000
  C   C1339     1.0  0.33445  0.12436  0.20877  1.0000
  C   C1340     1.0  0.33964  0.12491  0.17651  1.0000
  P   P45       1.0  0.34665  0.13830  0.23894  1.0000
  C   C1341     1.0  0.33626  0.15086  0.25408  1.0000
  C   C1342     1.0  0.35119  0.12755  0.27154  1.0000
  C   C1343     1.0  0.36343  0.13628  0.29259  1.0000
  C   C1344     1.0  0.36679  0.12841  0.31862  1.0000
  C   C1345     1.0  0.35814  0.11167  0.32363  1.0000
  C   C1346     1.0  0.34623  0.10276  0.30238  1.0000
  C   C1347     1.0  0.34283  0.11060  0.27629  1.0000
  C   C1348     1.0  0.33952  0.15836  0.28470  1.0000
  C   C1349     1.0  0.33225  0.16889  0.29548  1.0000
  C   C1350     1.0  0.32158  0.17199  0.27601  1.0000
  C   C1351     1.0  0.31819  0.16459  0.24552  1.0000
  C   C1352     1.0  0.32563  0.15421  0.23436  1.0000
  C   C1353     1.0  0.36548  0.15158  0.22225  1.0000
  C   C1354     1.0  0.36998  0.16874  0.22238  1.0000
  C   C1355     1.0  0.38475  0.17891  0.21022  1.0000
  C   C1356     1.0  0.39527  0.17206  0.19836  1.0000
  C   C1357     1.0  0.39106  0.15501  0.19891  1.0000
  C   C1358     1.0  0.37618  0.14480  0.21068  1.0000
  H   H1078     1.0  0.33349  0.11594  0.12807  1.0000
  H   H1079     1.0  0.30656  0.09670  0.14319  1.0000
  H   H1080     1.0  0.29720  0.09541  0.20006  1.0000
  H   H1081     1.0  0.31447  0.11369  0.24138  1.0000
  H   H1082     1.0  0.35124  0.13332  0.16894  1.0000
  H   H1083     1.0  0.37027  0.14931  0.28918  1.0000
  H   H1084     1.0  0.37603  0.13535  0.33511  1.0000
  H   H1085     1.0  0.41144  0.20493  0.40964  1.0000
  H   H1086     1.0  0.24926  0.16670  0.32946  1.0000
  H   H1087     1.0  0.33366  0.10334  0.26017  1.0000
  H   H1088     1.0  0.34799  0.15658  0.30014  1.0000
  H   H1089     1.0  0.33532  0.17506  0.31857  1.0000
  H   H1090     1.0  0.31641  0.18063  0.28413  1.0000
  H   H1091     1.0  0.31024  0.16745  0.23018  1.0000
  H   H1092     1.0  0.32343  0.14925  0.21003  1.0000
  H   H1093     1.0  0.36220  0.17439  0.23185  1.0000
  H   H1094     1.0  0.38796  0.19215  0.20986  1.0000
  H   H1095     1.0  0.40667  0.18001  0.18880  1.0000
  H   H1096     1.0  0.39930  0.14976  0.18997  1.0000
  H   H1097     1.0  0.37294  0.13161  0.21072  1.0000
  C   C1359     1.0  0.39898  0.12327  0.08180  1.0000
  C   C1360     1.0  0.39699  0.08973  0.12194  1.0000
  C   C1361     1.0  0.35348  0.21280  0.04328  1.0000
  C   C1362     1.0  0.41344  0.18362  0.48820  1.0000
  H   H1098     1.0  0.45816  0.05420  0.28618  1.0000
  S   S182      1.0  0.34356  0.13399  0.00711  1.0000
  C   C1363     1.0  0.37997  0.10054  0.17034  1.0000
  H   H1099     1.0  0.23176  0.17549  0.24008  1.0000
  C   C1364     1.0  0.41878  0.07446  0.11640  1.0000
  C   C1365     1.0  0.21768  0.11822  0.41278  1.0000
  C   C1366     1.0  0.25705  0.13239  0.03878  1.0000
  H   H1100     1.0  0.43428  0.00979  0.22759  1.0000
  H   H1101     1.0  0.27730  0.07744  0.07201  1.0000
  C   C1367     1.0  0.38236  0.22722  0.40655  1.0000
  C   C1368     1.0  0.36488  0.08863  0.10616  1.0000
  H   H1102     1.0  0.40539  0.21396  0.35746  1.0000
  C   C1369     1.0  0.32321  0.20371  0.43784  1.0000
  C   C1370     1.0  0.35161  0.09242  0.11302  1.0000
  C   C1371     1.0  0.40328  0.21112  0.40916  1.0000
  C   C1372     1.0  0.30170  0.09316  0.06535  1.0000
  C   C1373     1.0  0.22606  0.13838  0.37032  1.0000
  H   H1103     1.0  0.40110  0.11358  0.06844  1.0000
  H   H1104     1.0  0.41752  0.11251  0.11737  1.0000
  H   H1105     1.0  0.21555  0.10598  0.42130  1.0000
  H   H1106     1.0  0.44210  0.99437  0.14210  1.0000
  S   S183      1.0  0.38873  0.11108  0.47422  1.0000
  H   H1107     1.0  0.43218  0.00259  0.34625  1.0000
  C   C1374     1.0  0.45678  0.98922  0.10575  1.0000
  H   H1108     1.0  0.45846  0.01436  0.39478  1.0000
  C   C1375     1.0  0.34966  0.29962  0.34410  1.0000
  C   C1376     1.0  0.26254  0.19485  0.43943  1.0000
  H   H1109     1.0  0.40996  0.98640  0.47070  1.0000
  H   H1110     1.0  0.20991  0.30002  0.20312  1.0000
  H   H1111     1.0  0.23008  0.14112  0.34568  1.0000
  H   H1112     1.0  0.33242  0.21316  0.02289  1.0000
  H   H1113     1.0  0.44796  0.98536  0.26891  1.0000
  H   H1114     1.0  0.40503  0.09073  0.45113  1.0000
  H   H1115     1.0  0.42709  0.06849  0.11308  1.0000
  C   C1377     1.0  0.27009  0.20822  0.38794  1.0000
  H   H1116     1.0  0.43635  0.09888  0.11078  1.0000
  H   H1117     1.0  0.40365  0.97925  0.41312  1.0000
  C   C1378     1.0  0.44162  0.05384  0.41365  1.0000
  H   H1118     1.0  0.42209  0.07866  0.47739  1.0000
  C   C1379     1.0  0.25609  0.19718  0.37470  1.0000
  C   C1380     1.0  0.30327  0.18788  0.00225  1.0000
  C   C1381     1.0  0.39934  0.10108  0.49495  1.0000
  C   C1382     1.0  0.28355  0.11571  0.48616  1.0000
  H   H1119     1.0  0.41185  0.98716  0.25308  1.0000
  Fe  Fe89      1.0  0.36974  0.12042  0.49214  1.0000
  C   C1383     1.0  0.21086  0.11309  0.02928  1.0000
  H   H1120     1.0  0.21719  0.99024  0.33335  1.0000
  C   C1384     1.0  0.45674  0.05375  0.41528  1.0000
  H   H1121     1.0  0.39671  0.30550  0.31765  1.0000
  C   C1385     1.0  0.41558  0.16882  0.48298  1.0000
  H   H1122     1.0  0.21471  0.15386  0.43827  1.0000
  C   C1386     1.0  0.21112  0.17622  0.39259  1.0000
  H   H1123     1.0  0.43224  0.11305  0.00073  1.0000
  H   H1124     1.0  0.28169  0.10314  0.47978  1.0000
  Fe  Fe90      1.0  0.20975  0.03412  0.38939  1.0000
  C   C1387     1.0  0.21417  0.19220  0.40455  1.0000
  C   C1388     1.0  0.41625  0.08511  0.49180  1.0000
  H   H1125     1.0  0.33575  0.30539  0.38133  1.0000
  C   C1389     1.0  0.30422  0.18308  0.48597  1.0000
  H   H1126     1.0  0.20928  0.17883  0.26896  1.0000
  H   H1127     1.0  0.34402  0.17106  0.99833  1.0000
  C   C1390     1.0  0.42860  0.23361  0.47359  1.0000
  H   H1128     1.0  0.45084  0.25431  0.47201  1.0000
  C   C1391     1.0  0.40328  0.30755  0.29509  1.0000
  H   H1129     1.0  0.45496  0.30828  0.20675  1.0000
  C   C1392     1.0  0.44220  0.24523  0.48718  1.0000
  C   C1393     1.0  0.41732  0.22186  0.49312  1.0000
  C   C1394     1.0  0.28057  0.19539  0.99755  1.0000
  C   C1395     1.0  0.23265  0.13910  0.88247  1.0000
  Fe  Fe91      1.0  0.24448  0.06608  0.89282  1.0000
  S   S184      1.0  0.23195  0.08207  0.87763  1.0000
  S   S185      1.0  0.27104  0.07961  0.88734  1.0000
  H   H1130     1.0  0.34942  0.97970  0.68112  1.0000
  Fe  Fe92      1.0  0.21802  0.06121  0.84533  1.0000
  H   H1131     1.0  0.25475  0.07881  0.53504  1.0000
  S   S186      1.0  0.22754  0.05466  0.93393  1.0000
  S   S187      1.0  0.23147  0.04571  0.85809  1.0000
  Fe  Fe93      1.0  0.22675  0.14274  0.68092  1.0000
  S   S188      1.0  0.24729  0.14729  0.64691  1.0000
  H   H1132     1.0  0.26805  0.06623  0.95231  1.0000
  S   S189      1.0  0.23207  0.16784  0.60194  1.0000
  Fe  Fe94      1.0  0.22981  0.14156  0.60671  1.0000
  S   S190      1.0  0.23673  0.12830  0.56448  1.0000
  Fe  Fe95      1.0  0.24829  0.17302  0.64420  1.0000
  S   S191      1.0  0.27233  0.19391  0.64270  1.0000
  S   S192      1.0  0.22887  0.16916  0.68086  1.0000
  Fe  Fe96      1.0  0.42860  0.02155  0.54102  1.0000
  S   S193      1.0  0.43128  0.04099  0.57831  1.0000
  S   S194      1.0  0.40776  0.99725  0.53734  1.0000
  Fe  Fe97      1.0  0.44084  0.05929  0.53847  1.0000
  S   S195      1.0  0.43303  0.08119  0.54416  1.0000
  H   H1133     1.0  0.37190  0.00012  0.51375  1.0000
  H   H1134     1.0  0.43040  0.04179  0.67258  1.0000
  S   S196      1.0  0.36363  0.11949  0.95710  1.0000
  C   C1396     1.0  0.22247  0.10101  0.63182  1.0000
  Fe  Fe98      1.0  0.35398  0.13508  0.54332  1.0000
  H   H1135     1.0  0.25198  0.99949  0.76182  1.0000
  S   S197      1.0  0.35064  0.14268  0.59477  1.0000
  Fe  Fe99      1.0  0.36370  0.14442  0.97162  1.0000
  S   S198      1.0  0.35968  0.16406  0.94243  1.0000
  S   S199      1.0  0.40339  0.11835  0.99353  1.0000
  C   C1397     1.0  0.27920  0.13957  0.87620  1.0000
  C   C1398     1.0  0.38958  0.02395  0.50295  1.0000
  S   S200      1.0  0.35262  0.10930  0.53290  1.0000
  Fe  Fe100     1.0  0.37390  0.21085  0.77581  1.0000
  S   S201      1.0  0.36090  0.22637  0.79433  1.0000
  S   S202      1.0  0.38237  0.19352  0.80264  1.0000
  Fe  Fe101     1.0  0.37187  0.21986  0.70561  1.0000
  S   S203      1.0  0.35871  0.23624  0.71904  1.0000
  S   S204      1.0  0.37853  0.21544  0.65387  1.0000
  Fe  Fe102     1.0  0.37619  0.24584  0.75945  1.0000
  S   S205      1.0  0.38568  0.27258  0.77948  1.0000
  Fe  Fe103     1.0  0.34475  0.21586  0.75255  1.0000
  S   S206      1.0  0.31822  0.20400  0.76043  1.0000
  S   S207      1.0  0.39028  0.23078  0.74361  1.0000
  S   S208      1.0  0.35675  0.19903  0.73652  1.0000
  C   C1399     1.0  0.40004  0.29250  0.76958  1.0000
  C   C1400     1.0  0.41096  0.29501  0.74409  1.0000
  C   C1401     1.0  0.40980  0.99160  0.60180  1.0000
  H   H1136     1.0  0.25419  0.18666  0.79045  1.0000
  H   H1137     1.0  0.41101  0.28459  0.72981  1.0000
  C   C1402     1.0  0.42279  0.08719  0.92743  1.0000
  C   C1403     1.0  0.35861  0.16314  0.60994  1.0000
  C   C1404     1.0  0.35173  0.16701  0.63787  1.0000
  C   C1405     1.0  0.35774  0.18293  0.65145  1.0000
  C   C1406     1.0  0.37076  0.19524  0.63723  1.0000
  C   C1407     1.0  0.37750  0.19150  0.60884  1.0000
  C   C1408     1.0  0.37145  0.17549  0.59520  1.0000
  H   H1138     1.0  0.34164  0.15760  0.64902  1.0000
  H   H1139     1.0  0.35221  0.18570  0.67276  1.0000
  H   H1140     1.0  0.38749  0.20098  0.59749  1.0000
  H   H1141     1.0  0.37680  0.17269  0.57354  1.0000
  C   C1409     1.0  0.36602  0.17175  0.90328  1.0000
  C   C1410     1.0  0.36105  0.18380  0.89150  1.0000
  C   C1411     1.0  0.36588  0.19055  0.86071  1.0000
  C   C1412     1.0  0.37581  0.18531  0.84142  1.0000
  C   C1413     1.0  0.38064  0.17311  0.85304  1.0000
  C   C1414     1.0  0.37575  0.16631  0.88382  1.0000
  H   H1142     1.0  0.35353  0.18803  0.90647  1.0000
  H   H1143     1.0  0.36208  0.19991  0.85206  1.0000
  H   H1144     1.0  0.38833  0.16899  0.83824  1.0000
  H   H1145     1.0  0.37967  0.15706  0.89264  1.0000
  C   C1415     1.0  0.37079  0.18803  0.50434  1.0000
  P   P46       1.0  0.25458  0.08086  0.60548  1.0000
  S   S209      1.0  0.22602  0.13324  0.73199  1.0000
  H   H1146     1.0  0.32326  0.23872  0.79268  1.0000
  C   C1416     1.0  0.24657  0.17997  0.52656  1.0000
  C   C1417     1.0  0.41162  0.09623  0.54301  1.0000
  H   H1147     1.0  0.40352  0.02740  0.65323  1.0000
  C   C1418     1.0  0.27527  0.15057  0.89629  1.0000
  H   H1148     1.0  0.39630  0.10983  0.54248  1.0000
  H   H1149     1.0  0.41384  0.09830  0.56853  1.0000
  H   H1150     1.0  0.43865  0.98802  0.58821  1.0000
  H   H1151     1.0  0.30619  0.17102  0.91963  1.0000
  H   H1152     1.0  0.41853  0.00405  0.60318  1.0000
  C   C1419     1.0  0.28494  0.19657  0.67563  1.0000
  C   C1420     1.0  0.27970  0.18749  0.70384  1.0000
  C   C1421     1.0  0.29005  0.18981  0.72957  1.0000
  C   C1422     1.0  0.30572  0.20108  0.72722  1.0000
  C   C1423     1.0  0.31109  0.20982  0.69868  1.0000
  C   C1424     1.0  0.30066  0.20775  0.67319  1.0000
  H   H1153     1.0  0.26765  0.17874  0.70589  1.0000
  H   H1154     1.0  0.28592  0.18272  0.75120  1.0000
  H   H1155     1.0  0.32318  0.21843  0.69649  1.0000
  H   H1156     1.0  0.30482  0.21472  0.65135  1.0000
  C   C1425     1.0  0.22517  0.11441  0.53472  1.0000
  H   H1157     1.0  0.22851  0.11471  0.89913  1.0000
  C   C1426     1.0  0.27306  0.15700  0.82115  1.0000
  C   C1427     1.0  0.27385  0.07338  0.68886  1.0000
  C   C1428     1.0  0.22703  0.99929  0.81014  1.0000
  C   C1429     1.0  0.21858  0.08295  0.77500  1.0000
  C   C1430     1.0  0.37887  0.27474  0.68617  1.0000
  C   C1431     1.0  0.33248  0.20449  0.88177  1.0000
  H   H1158     1.0  0.32610  0.18954  0.51170  1.0000
  C   C1432     1.0  0.22111  0.09995  0.72767  1.0000
  H   H1159     1.0  0.24372  0.14473  0.89462  1.0000
  H   H1160     1.0  0.39432  0.17466  0.69289  1.0000
  C   C1433     1.0  0.37573  0.15270  0.67549  1.0000
  S   S210      1.0  0.37261  0.14665  0.50529  1.0000
  C   C1434     1.0  0.21684  0.02148  0.78003  1.0000
  C   C1435     1.0  0.28470  0.08203  0.91816  1.0000
  C   C1436     1.0  0.30056  0.09217  0.91250  1.0000
  C   C1437     1.0  0.31199  0.09400  0.93576  1.0000
  C   C1438     1.0  0.30767  0.08551  0.96481  1.0000
  P   P47       1.0  0.44945  0.07900  0.92163  1.0000
  C   C1439     1.0  0.28027  0.07395  0.94761  1.0000
  H   H1161     1.0  0.30402  0.09855  0.88991  1.0000
  H   H1162     1.0  0.32420  0.10175  0.93106  1.0000
  C   C1440     1.0  0.27515  0.11402  0.60282  1.0000
  H   H1163     1.0  0.42810  0.01877  0.89882  1.0000
  C   C1441     1.0  0.25107  0.16140  0.79752  1.0000
  C   C1442     1.0  0.44368  0.10425  0.89182  1.0000
  C   C1443     1.0  0.32014  0.18925  0.88595  1.0000
  H   H1164     1.0  0.31430  0.18224  0.86506  1.0000
  H   H1165     1.0  0.43388  0.08536  0.62285  1.0000
  H   H1166     1.0  0.30293  0.11354  0.98188  1.0000
  H   H1167     1.0  0.34833  0.19602  0.56369  1.0000
  C   C1444     1.0  0.23259  0.10689  0.51344  1.0000
  H   H1168     1.0  0.23405  0.15449  0.51339  1.0000
  P   P48       1.0  0.35476  0.28608  0.69711  1.0000
  C   C1445     1.0  0.33673  0.30147  0.62105  1.0000
  C   C1446     1.0  0.42003  0.22172  0.52630  1.0000
  C   C1447     1.0  0.27515  0.00210  0.82632  1.0000
  C   C1448     1.0  0.20901  0.11056  0.53178  1.0000
  C   C1449     1.0  0.25193  0.06654  0.54418  1.0000
  H   H1169     1.0  0.40698  0.07138  0.60333  1.0000
  H   H1170     1.0  0.26937  0.10902  0.52944  1.0000
  C   C1450     1.0  0.36841  0.30544  0.71306  1.0000
  H   H1171     1.0  0.35609  0.08552  0.60759  1.0000
  C   C1451     1.0  0.26469  0.00567  0.80664  1.0000
  C   C1452     1.0  0.34283  0.26141  0.78236  1.0000
  C   C1453     1.0  0.22306  0.11192  0.78114  1.0000
  H   H1172     1.0  0.31832  0.16121  0.53405  1.0000
  H   H1173     1.0  0.43558  0.23321  0.56544  1.0000
  H   H1174     1.0  0.35019  0.22511  0.90525  1.0000
  C   C1454     1.0  0.43362  0.23336  0.53980  1.0000
  C   C1455     1.0  0.36829  0.07404  0.63604  1.0000
  C   C1456     1.0  0.25911  0.16081  0.51358  1.0000
  C   C1457     1.0  0.27250  0.09771  0.59352  1.0000
  Fe  Fe104     1.0  0.21232  0.16187  0.63899  1.0000
  H   H1175     1.0  0.30583  0.29436  0.67353  1.0000
  H   H1176     1.0  0.35948  0.24784  0.61178  1.0000
  C   C1458     1.0  0.27394  0.17309  0.51997  1.0000
  H   H1177     1.0  0.35610  0.02877  0.65369  1.0000
  P   P49       1.0  0.29177  0.16906  0.51568  1.0000
  C   C1459     1.0  0.30152  0.17096  0.55363  1.0000
  H   H1178     1.0  0.23601  0.01455  0.92959  1.0000
  H   H1179     1.0  0.28497  0.04570  0.91910  1.0000
  C   C1460     1.0  0.36468  0.27490  0.67484  1.0000
  H   H1180     1.0  0.34054  0.30588  0.59687  1.0000
  C   C1461     1.0  0.27308  0.03500  0.87514  1.0000
  C   C1462     1.0  0.40165  0.10282  0.52827  1.0000
  C   C1463     1.0  0.31434  0.16609  0.55524  1.0000
  C   C1464     1.0  0.32219  0.16748  0.58416  1.0000
  C   C1465     1.0  0.31714  0.17342  0.61194  1.0000
  C   C1466     1.0  0.30399  0.17765  0.61088  1.0000
  C   C1467     1.0  0.29614  0.17640  0.58191  1.0000
  H   H1181     1.0  0.36535  0.04617  0.56063  1.0000
  H   H1182     1.0  0.36140  0.28313  0.76503  1.0000
  H   H1183     1.0  0.36809  0.00719  0.57001  1.0000
  H   H1184     1.0  0.39210  0.30455  0.80796  1.0000
  C   C1468     1.0  0.25785  0.15074  0.80846  1.0000
  C   C1469     1.0  0.27859  0.13518  0.52236  1.0000
  C   C1470     1.0  0.32886  0.24821  0.77505  1.0000
  H   H1185     1.0  0.37899  0.17786  0.74057  1.0000
  H   H1186     1.0  0.32755  0.16079  0.94003  1.0000
  H   H1187     1.0  0.26205  0.20429  0.54143  1.0000
  H   H1188     1.0  0.32121  0.10014  0.60801  1.0000
  C   C1471     1.0  0.41797  0.03723  0.96355  1.0000
  H   H1189     1.0  0.34625  0.26420  0.63994  1.0000
  C   C1472     1.0  0.24723  0.04771  0.58865  1.0000
  S   S211      1.0  0.45245  0.02162  0.54944  1.0000
  H   H1190     1.0  0.33215  0.16384  0.58494  1.0000
  H   H1191     1.0  0.32334  0.17463  0.63430  1.0000
  H   H1192     1.0  0.29982  0.18188  0.63254  1.0000
  H   H1193     1.0  0.28584  0.17954  0.58210  1.0000
  C   C1473     1.0  0.27493  0.18891  0.52928  1.0000
  C   C1474     1.0  0.24374  0.06722  0.66593  1.0000
  C   C1475     1.0  0.36505  0.25569  0.63206  1.0000
  C   C1476     1.0  0.42933  0.98955  0.95309  1.0000
  C   C1477     1.0  0.39673  0.04358  0.54732  1.0000
  C   C1478     1.0  0.22078  0.09667  0.79483  1.0000
  H   H1194     1.0  0.37008  0.22338  0.56116  1.0000
  H   H1195     1.0  0.27916  0.00877  0.84871  1.0000
  C   C1479     1.0  0.31719  0.29501  0.66426  1.0000
  H   H1196     1.0  0.22637  0.07170  0.56415  1.0000
  C   C1480     1.0  0.36081  0.07597  0.60840  1.0000
  C   C1481     1.0  0.22410  0.12219  0.88493  1.0000
  C   C1482     1.0  0.35969  0.06577  0.58147  1.0000
  S   S212      1.0  0.31112  0.08567  0.49877  1.0000
  C   C1483     1.0  0.43524  0.11425  0.88673  1.0000
  P   P50       1.0  0.25786  0.02185  0.81767  1.0000
  C   C1484     1.0  0.23773  0.01548  0.80468  1.0000
  C   C1485     1.0  0.25881  0.02487  0.86105  1.0000
  C   C1486     1.0  0.24551  0.01732  0.88108  1.0000
  H   H1197     1.0  0.32071  0.13092  0.93944  1.0000
  C   C1487     1.0  0.33006  0.25862  0.72105  1.0000
  H   H1198     1.0  0.26192  0.06229  0.73302  1.0000
  H   H1199     1.0  0.26128  0.97740  0.74654  1.0000
  C   C1488     1.0  0.22559  0.07985  0.58335  1.0000
  H   H1200     1.0  0.22113  0.10107  0.70189  1.0000
  C   C1489     1.0  0.30548  0.12661  0.98143  1.0000
  H   H1201     1.0  0.22052  0.09550  0.82073  1.0000
  C   C1490     1.0  0.23256  0.02649  0.78914  1.0000
  C   C1491     1.0  0.27027  0.04095  0.79888  1.0000
  C   C1492     1.0  0.27979  0.04104  0.77179  1.0000
  C   C1493     1.0  0.28987  0.05600  0.75852  1.0000
  C   C1494     1.0  0.29047  0.07092  0.77215  1.0000
  C   C1495     1.0  0.28086  0.07088  0.79882  1.0000
  C   C1496     1.0  0.27078  0.05599  0.81201  1.0000
  H   H1202     1.0  0.42362  0.16578  0.49776  1.0000
  C   C1497     1.0  0.24550  0.16425  0.51691  1.0000
  H   H1203     1.0  0.29324  0.19055  0.95707  1.0000
  H   H1204     1.0  0.44015  0.12489  0.87138  1.0000
  C   C1498     1.0  0.23757  0.08651  0.60608  1.0000
  H   H1205     1.0  0.23424  0.00962  0.87131  1.0000
  H   H1206     1.0  0.32255  0.07148  0.68960  1.0000
  C   C1499     1.0  0.23580  0.09702  0.63054  1.0000
  C   C1500     1.0  0.43750  0.09056  0.91213  1.0000
  H   H1207     1.0  0.41060  0.03429  0.98521  1.0000
  H   H1208     1.0  0.38392  0.28139  0.70803  1.0000
  H   H1209     1.0  0.34142  0.00368  0.68459  1.0000
  S   S213      1.0  0.33406  0.13258  0.51103  1.0000
  C   C1501     1.0  0.38277  0.21628  0.52312  1.0000
  H   H1210     1.0  0.24041  0.03910  0.78496  1.0000
  H   H1211     1.0  0.27963  0.02964  0.76113  1.0000
  H   H1212     1.0  0.29733  0.05599  0.73789  1.0000
  H   H1213     1.0  0.29842  0.08250  0.76224  1.0000
  H   H1214     1.0  0.28133  0.08235  0.80985  1.0000
  H   H1215     1.0  0.26361  0.05626  0.83297  1.0000
  C   C1502     1.0  0.27648  0.11901  0.51408  1.0000
  C   C1503     1.0  0.32239  0.24692  0.74452  1.0000
  H   H1216     1.0  0.27304  0.13751  0.54429  1.0000
  H   H1217     1.0  0.39710  0.26517  0.67935  1.0000
  H   H1218     1.0  0.28623  0.19853  0.53458  1.0000
  C   C1504     1.0  0.31278  0.16067  0.98173  1.0000
  C   C1505     1.0  0.39846  0.03964  0.51503  1.0000
  H   H1219     1.0  0.33605  0.20927  0.85768  1.0000
  H   H1220     1.0  0.28551  0.07576  0.69770  1.0000
  C   C1506     1.0  0.29176  0.07551  0.97067  1.0000
  C   C1507     1.0  0.22669  0.14877  0.86504  1.0000
  C   C1508     1.0  0.31917  0.15335  0.95781  1.0000
  H   H1221     1.0  0.44049  0.99708  0.64548  1.0000
  H   H1222     1.0  0.32756  0.09567  0.72546  1.0000
  H   H1223     1.0  0.31284  0.13302  0.57447  1.0000
  H   H1224     1.0  0.30799  0.10462  0.55624  1.0000
  C   C1509     1.0  0.37016  0.21360  0.54484  1.0000
  H   H1225     1.0  0.23070  0.99059  0.82226  1.0000
  C   C1510     1.0  0.35764  0.26504  0.64802  1.0000
  H   H1226     1.0  0.40334  0.09492  0.93516  1.0000
  C   C1511     1.0  0.42699  0.07287  0.63031  1.0000
  C   C1512     1.0  0.37373  0.16767  0.72385  1.0000
  H   H1227     1.0  0.38500  0.24848  0.63107  1.0000
  C   C1513     1.0  0.24644  0.02011  0.91443  1.0000
  C   C1514     1.0  0.27207  0.07788  0.65751  1.0000
  C   C1515     1.0  0.35033  0.27331  0.75918  1.0000
  H   H1228     1.0  0.28837  0.98679  0.83286  1.0000
  C   C1516     1.0  0.22325  0.11367  0.74752  1.0000
  C   C1517     1.0  0.27431  0.18479  0.81295  1.0000
  H   H1229     1.0  0.39217  0.22836  0.52232  1.0000
  C   C1518     1.0  0.36617  0.05374  0.58200  1.0000
  H   H1230     1.0  0.21694  0.07405  0.72583  1.0000
  H   H1231     1.0  0.27413  0.16135  0.88654  1.0000
  C   C1519     1.0  0.31170  0.16422  0.69851  1.0000
  C   C1520     1.0  0.29657  0.15472  0.68796  1.0000
  C   C1521     1.0  0.29187  0.13768  0.68452  1.0000
  C   C1522     1.0  0.30229  0.13013  0.69177  1.0000
  C   C1523     1.0  0.31762  0.13964  0.70210  1.0000
  C   C1524     1.0  0.32217  0.15674  0.70559  1.0000
  P   P51       1.0  0.33085  0.12976  0.71277  1.0000
  C   C1525     1.0  0.35119  0.14360  0.70678  1.0000
  C   C1526     1.0  0.32766  0.12400  0.75471  1.0000
  C   C1527     1.0  0.34008  0.12334  0.77292  1.0000
  C   C1528     1.0  0.33766  0.11896  0.80541  1.0000
  C   C1529     1.0  0.32278  0.11496  0.81983  1.0000
  C   C1530     1.0  0.31031  0.11536  0.80179  1.0000
  C   C1531     1.0  0.31273  0.11989  0.76936  1.0000
  C   C1532     1.0  0.36022  0.14157  0.68038  1.0000
  C   C1533     1.0  0.32671  0.11172  0.68724  1.0000
  C   C1534     1.0  0.43367  0.06460  0.64977  1.0000
  H   H1232     1.0  0.31542  0.17745  0.70106  1.0000
  H   H1233     1.0  0.28849  0.16059  0.68239  1.0000
  H   H1234     1.0  0.28012  0.13037  0.67626  1.0000
  H   H1235     1.0  0.29836  0.11688  0.68929  1.0000
  H   H1236     1.0  0.33381  0.16445  0.71349  1.0000
  H   H1237     1.0  0.35170  0.12632  0.76218  1.0000
  H   H1238     1.0  0.34737  0.11881  0.81952  1.0000
  H   H1239     1.0  0.32099  0.11169  0.84507  1.0000
  H   H1240     1.0  0.29883  0.11237  0.81316  1.0000
  H   H1241     1.0  0.30298  0.12023  0.75586  1.0000
  H   H1242     1.0  0.38237  0.15143  0.65434  1.0000
  H   H1243     1.0  0.35533  0.13181  0.66276  1.0000
  H   H1244     1.0  0.32571  0.12428  0.64347  1.0000
  C   C1535     1.0  0.29888  0.10720  0.56963  1.0000
  H   H1245     1.0  0.28352  0.04102  0.86038  1.0000
  H   H1246     1.0  0.31433  0.30386  0.61776  1.0000
  C   C1536     1.0  0.37943  0.25601  0.64295  1.0000
  C   C1537     1.0  0.25991  0.99683  0.77758  1.0000
  H   H1247     1.0  0.32528  0.25695  0.69704  1.0000
  C   C1538     1.0  0.43745  0.05764  0.92978  1.0000
  C   C1539     1.0  0.32582  0.09672  0.70003  1.0000
  H   H1248     1.0  0.34820  0.26216  0.80562  1.0000
  C   C1540     1.0  0.24408  0.03458  0.56663  1.0000
  H   H1249     1.0  0.42065  0.98843  0.97206  1.0000
  H   H1250     1.0  0.24644  0.04519  0.61417  1.0000
  C   C1541     1.0  0.32461  0.16852  0.78883  1.0000
  C   C1542     1.0  0.33542  0.16630  0.80929  1.0000
  C   C1543     1.0  0.33013  0.15694  0.83706  1.0000
  C   C1544     1.0  0.31400  0.14982  0.84442  1.0000
  C   C1545     1.0  0.30303  0.15210  0.82401  1.0000
  C   C1546     1.0  0.30851  0.16139  0.79594  1.0000
  P   P52       1.0  0.28213  0.14305  0.83316  1.0000
  C   C1547     1.0  0.27349  0.12448  0.80887  1.0000
  C   C1548     1.0  0.28111  0.12603  0.89014  1.0000
  C   C1549     1.0  0.26355  0.10950  0.82255  1.0000
  C   C1550     1.0  0.25646  0.09557  0.80305  1.0000
  C   C1551     1.0  0.25858  0.09659  0.76966  1.0000
  C   C1552     1.0  0.26805  0.11149  0.75566  1.0000
  C   C1553     1.0  0.27553  0.12537  0.77514  1.0000
  H   H1251     1.0  0.32870  0.17611  0.76774  1.0000
  H   H1252     1.0  0.34793  0.17203  0.80380  1.0000
  H   H1253     1.0  0.33860  0.15538  0.85306  1.0000
  H   H1254     1.0  0.31031  0.14273  0.86619  1.0000
  H   H1255     1.0  0.30045  0.16358  0.77980  1.0000
  H   H1256     1.0  0.28466  0.11760  0.87558  1.0000
  H   H1257     1.0  0.27913  0.11220  0.93334  1.0000
  H   H1258     1.0  0.26072  0.10848  0.84802  1.0000
  H   H1259     1.0  0.24873  0.08409  0.81375  1.0000
  H   H1260     1.0  0.25229  0.08597  0.75469  1.0000
  H   H1261     1.0  0.26917  0.11240  0.72967  1.0000
  H   H1262     1.0  0.28244  0.13692  0.76372  1.0000
  H   H1263     1.0  0.25129  0.13760  0.80638  1.0000
  H   H1264     1.0  0.41163  0.21257  0.54177  1.0000
  H   H1265     1.0  0.24465  0.10211  0.64876  1.0000
  C   C1554     1.0  0.40538  0.98194  0.62962  1.0000
  C   C1555     1.0  0.37485  0.06207  0.63660  1.0000
  H   H1266     1.0  0.44506  0.04750  0.88736  1.0000
  C   C1556     1.0  0.24472  0.03741  0.53349  1.0000
  P   P53       1.0  0.38371  0.03751  0.60946  1.0000
  C   C1557     1.0  0.37271  0.01925  0.63231  1.0000
  H   H1267     1.0  0.45638  0.01979  0.87159  1.0000
  H   H1268     1.0  0.37216  0.98090  0.64652  1.0000
  C   C1558     1.0  0.41907  0.08742  0.52490  1.0000
  C   C1559     1.0  0.27398  0.03764  0.90851  1.0000
  C   C1560     1.0  0.44978  0.99167  0.60047  1.0000
  C   C1561     1.0  0.26065  0.03028  0.92814  1.0000
  C   C1562     1.0  0.35977  0.01848  0.65194  1.0000
  C   C1563     1.0  0.35140  0.00425  0.66949  1.0000
  H   H1269     1.0  0.23531  0.05703  0.71281  1.0000
  C   C1564     1.0  0.36869  0.99139  0.64803  1.0000
  C   C1565     1.0  0.37706  0.00556  0.63044  1.0000
  C   C1566     1.0  0.40301  0.04819  0.62654  1.0000
  C   C1567     1.0  0.40971  0.04011  0.64685  1.0000
  C   C1568     1.0  0.42498  0.04830  0.65829  1.0000
  C   C1569     1.0  0.35821  0.15662  0.72879  1.0000
  C   C1570     1.0  0.35811  0.18541  0.52580  1.0000
  C   C1571     1.0  0.41172  0.06477  0.61896  1.0000
  H   H1270     1.0  0.41429  0.11879  0.89904  1.0000
  C   C1572     1.0  0.44470  0.24513  0.52026  1.0000
  C   C1573     1.0  0.37403  0.05197  0.60942  1.0000
  C   C1574     1.0  0.24557  0.06277  0.69728  1.0000
  C   C1575     1.0  0.42490  0.98076  0.92413  1.0000
  H   H1271     1.0  0.36933  0.08209  0.65675  1.0000
  C   C1576     1.0  0.28044  0.98962  0.81739  1.0000
  Fe  Fe105     1.0  0.21323  0.03524  0.89736  1.0000
  C   C1577     1.0  0.41445  0.09729  0.92246  1.0000
  H   H1272     1.0  0.40366  0.05579  0.55602  1.0000
  H   H1273     1.0  0.34282  0.21396  0.95981  1.0000
  H   H1274     1.0  0.24213  0.02724  0.51640  1.0000
  H   H1275     1.0  0.25783  0.14844  0.50680  1.0000
  H   H1276     1.0  0.38695  0.00583  0.61528  1.0000
  H   H1277     1.0  0.24100  0.02217  0.57521  1.0000
  H   H1278     1.0  0.31170  0.23652  0.73879  1.0000
  C   C1578     1.0  0.42794  0.05355  0.95777  1.0000
  C   C1579     1.0  0.43628  0.98182  0.90028  1.0000
  C   C1580     1.0  0.25118  0.06380  0.57755  1.0000
  C   C1581     1.0  0.27814  0.12299  0.92306  1.0000
  C   C1582     1.0  0.35785  0.19816  0.54624  1.0000
  C   C1583     1.0  0.30156  0.12328  0.57972  1.0000
  C   C1584     1.0  0.21136  0.99431  0.80085  1.0000
  H   H1279     1.0  0.32329  0.28677  0.70831  1.0000
  C   C1585     1.0  0.42067  0.11081  0.90219  1.0000
  C   C1586     1.0  0.32198  0.30039  0.63284  1.0000
  H   H1280     1.0  0.27139  0.13125  0.96812  1.0000
  H   H1281     1.0  0.21278  0.03019  0.76909  1.0000
  C   C1587     1.0  0.21116  0.09454  0.98438  1.0000
  C   C1588     1.0  0.41798  0.02471  0.94226  1.0000
  H   H1282     1.0  0.22449  0.12235  0.79680  1.0000
  C   C1589     1.0  0.34044  0.21340  0.90858  1.0000
  H   H1283     1.0  0.41781  0.07718  0.94404  1.0000
  H   H1284     1.0  0.26933  0.15601  0.94473  1.0000
  C   C1590     1.0  0.33621  0.20699  0.93956  1.0000
  C   C1591     1.0  0.38244  0.16581  0.69707  1.0000
  H   H1285     1.0  0.31933  0.07361  0.63080  1.0000
  H   H1286     1.0  0.38094  0.06096  0.65790  1.0000
  H   H1287     1.0  0.23952  0.15642  0.78676  1.0000
  H   H1288     1.0  0.28247  0.08367  0.64249  1.0000
  C   C1592     1.0  0.32389  0.19159  0.94398  1.0000
  H   H1289     1.0  0.29299  0.17934  0.83284  1.0000
  H   H1290     1.0  0.28088  0.19799  0.81386  1.0000
  C   C1593     1.0  0.35587  0.99073  0.66756  1.0000
  C   C1594     1.0  0.31539  0.13638  0.95748  1.0000
  H   H1291     1.0  0.26127  0.03263  0.95392  1.0000
  C   C1595     1.0  0.38630  0.26548  0.67008  1.0000
  C   C1596     1.0  0.40269  0.98525  0.57244  1.0000
  C   C1597     1.0  0.21875  0.08464  0.74136  1.0000
  C   C1598     1.0  0.25698  0.07488  0.64582  1.0000
  C   C1599     1.0  0.27257  0.14763  0.92937  1.0000
  C   C1600     1.0  0.31571  0.18290  0.91691  1.0000
  H   H1292     1.0  0.35166  0.15840  0.74961  1.0000
  H   H1293     1.0  0.42828  0.06295  0.97535  1.0000
  C   C1601     1.0  0.25931  0.17842  0.79967  1.0000
  H   H1294     1.0  0.41065  0.98706  0.65243  1.0000
  C   C1602     1.0  0.28119  0.17414  0.82357  1.0000
  C   C1603     1.0  0.27379  0.13372  0.94264  1.0000
  H   H1295     1.0  0.44575  0.07063  0.65742  1.0000
  C   C1604     1.0  0.32473  0.11273  0.65399  1.0000
  H   H1296     1.0  0.29167  0.13924  0.60354  1.0000
  H   H1297     1.0  0.45638  0.11075  0.95611  1.0000
  C   C1605     1.0  0.44504  0.99984  0.95770  1.0000
  C   C1606     1.0  0.34401  0.27203  0.72836  1.0000
  C   C1607     1.0  0.28969  0.12671  0.59618  1.0000
  H   H1298     1.0  0.23596  0.18244  0.53025  1.0000
  H   H1299     1.0  0.41050  0.01205  0.94729  1.0000
  H   H1300     1.0  0.28296  0.08203  0.56933  1.0000
  C   C1608     1.0  0.28452  0.09443  0.57680  1.0000
  H   H1301     1.0  0.24499  0.10975  0.51553  1.0000
  C   C1609     1.0  0.32300  0.08296  0.67977  1.0000
  C   C1610     1.0  0.32119  0.08414  0.64665  1.0000
  C   C1611     1.0  0.26061  0.06580  0.70871  1.0000
  H   H1302     1.0  0.26611  0.11706  0.61515  1.0000
  C   C1612     1.0  0.42788  0.02853  0.91497  1.0000
  C   C1613     1.0  0.43751  0.04493  0.90859  1.0000
  C   C1614     1.0  0.24858  0.05337  0.52232  1.0000
  C   C1615     1.0  0.38614  0.03191  0.56796  1.0000
  C   C1616     1.0  0.32211  0.09904  0.63380  1.0000
  C   C1617     1.0  0.26128  0.19227  0.53291  1.0000
  S   S214      1.0  0.21550  0.06353  0.79139  1.0000
  P   P54       1.0  0.31893  0.18282  0.98383  1.0000
  C   C1618     1.0  0.32706  0.29057  0.68381  1.0000
  H   H1303     1.0  0.34870  0.17334  0.52696  1.0000
  C   C1619     1.0  0.45220  0.99170  0.90519  1.0000
  C   C1620     1.0  0.37680  0.01634  0.55527  1.0000
  C   C1621     1.0  0.26520  0.98435  0.76875  1.0000
  H   H1304     1.0  0.23329  0.16192  0.86336  1.0000
  H   H1305     1.0  0.38687  0.30814  0.67733  1.0000
  Fe  Fe106     1.0  0.21422  0.06964  0.91647  1.0000
  C   C1622     1.0  0.34660  0.29699  0.64052  1.0000
  H   H1306     1.0  0.45525  0.25413  0.53075  1.0000
  H   H1307     1.0  0.23197  0.06469  0.65744  1.0000
  C   C1623     1.0  0.34166  0.29112  0.67174  1.0000
  H   H1308     1.0  0.35410  0.06744  0.55984  1.0000
  C   C1624     1.0  0.40043  0.30628  0.78814  1.0000
  H   H1309     1.0  0.44852  0.00652  0.98025  1.0000
  C   C1625     1.0  0.38331  0.20339  0.50308  1.0000
  C   C1626     1.0  0.37867  0.01235  0.52301  1.0000
  C   C1627     1.0  0.28788  0.14821  0.50264  1.0000
  H   H1310     1.0  0.42003  0.19189  0.50700  1.0000
  H   H1311     1.0  0.22141  0.10951  0.65007  1.0000
  C   C1628     1.0  0.20957  0.11490  0.86995  1.0000
  C   C1629     1.0  0.21208  0.14154  0.85027  1.0000
  H   H1312     1.0  0.45785  0.03904  0.82809  1.0000
  H   H1313     1.0  0.35245  0.30727  0.75083  1.0000
  S   S215      1.0  0.43637  0.03942  0.50007  1.0000
  H   H1314     1.0  0.35810  0.29813  0.63128  1.0000
  C   C1630     1.0  0.27543  0.98072  0.78868  1.0000
  H   H1315     1.0  0.44474  0.07516  0.85210  1.0000
  C   C1631     1.0  0.45079  0.99670  0.63275  1.0000
  S   S216      1.0  0.20890  0.13493  0.64127  1.0000
  H   H1316     1.0  0.20890  0.19869  0.60759  1.0000
  H   H1317     1.0  0.40685  0.04876  0.49958  1.0000
  Fe  Fe107     1.0  0.45602  0.04249  0.58431  1.0000
  Fe  Fe108     1.0  0.33401  0.10784  0.49768  1.0000
  C   C1632     1.0  0.29247  0.19116  0.98310  1.0000
  H   H1318     1.0  0.27226  0.19796  0.98275  1.0000
  C   C1633     1.0  0.45635  0.00132  0.93355  1.0000
  C   C1634     1.0  0.21215  0.08364  0.58514  1.0000
  H   H1319     1.0  0.28831  0.06898  0.99317  1.0000
  C   C1635     1.0  0.45692  0.07719  0.85645  1.0000
  H   H1320     1.0  0.45523  0.10753  0.88062  1.0000
  S   S217      1.0  0.32182  0.08709  0.99410  1.0000
  H   H1321     1.0  0.22276  0.07805  0.99388  1.0000
  Fe  Fe109     1.0  0.34471  0.10959  0.99539  1.0000
  C   C1636     1.0  0.21064  0.09431  0.60921  1.0000
  H   H1322     1.0  0.24886  0.05552  0.49664  1.0000
  C   C1637     1.0  0.38633  0.53590  0.08386  1.0000
  S   S218      1.0  0.45059  0.39310  0.24302  1.0000
  S   S219      1.0  0.43918  0.34583  0.25086  1.0000
  Fe  Fe110     1.0  0.44324  0.40355  0.28759  1.0000
  S   S220      1.0  0.42612  0.41628  0.28571  1.0000
  S   S221      1.0  0.44001  0.38164  0.31778  1.0000
  C   C1638     1.0  0.36923  0.39303  0.37678  1.0000
  Fe  Fe111     1.0  0.24054  0.39871  0.46881  1.0000
  S   S222      1.0  0.22473  0.41294  0.46480  1.0000
  H   H1323     1.0  0.41818  0.51398  0.99896  1.0000
  H   H1324     1.0  0.39823  0.51780  0.49403  1.0000
  C   C1639     1.0  0.36916  0.33324  0.34685  1.0000
  C   C1640     1.0  0.34607  0.31019  0.36569  1.0000
  C   C1641     1.0  0.44055  0.60728  0.15718  1.0000
  S   S223      1.0  0.22746  0.38022  0.43061  1.0000
  Fe  Fe112     1.0  0.36111  0.46162  0.42509  1.0000
  S   S224      1.0  0.37119  0.45023  0.46203  1.0000
  S   S225      1.0  0.33477  0.45486  0.41456  1.0000
  Fe  Fe113     1.0  0.39426  0.48539  0.40237  1.0000
  S   S226      1.0  0.40630  0.47535  0.43796  1.0000
  S   S227      1.0  0.41285  0.50671  0.37544  1.0000
  Fe  Fe114     1.0  0.38889  0.45057  0.42325  1.0000
  S   S228      1.0  0.39801  0.43002  0.41948  1.0000
  H   H1325     1.0  0.44771  0.63239  0.25745  1.0000
  S   S229      1.0  0.39531  0.48567  0.03278  1.0000
  S   S230      1.0  0.37799  0.46029  0.38497  1.0000
  S   S231      1.0  0.37683  0.48769  0.43961  1.0000
  H   H1326     1.0  0.43573  0.45422  0.35740  1.0000
  S   S232      1.0  0.44611  0.56850  0.17688  1.0000
  C   C1642     1.0  0.37323  0.38192  0.35747  1.0000
  H   H1327     1.0  0.33796  0.47187  0.00145  1.0000
  S   S233      1.0  0.44558  0.55397  0.08388  1.0000
  H   H1328     1.0  0.41143  0.53812  0.39967  1.0000
  C   C1643     1.0  0.40999  0.50439  0.04612  1.0000
  C   C1644     1.0  0.41945  0.51631  0.02464  1.0000
  C   C1645     1.0  0.43042  0.53141  0.03642  1.0000
  C   C1646     1.0  0.43241  0.53446  0.06975  1.0000
  C   C1647     1.0  0.42335  0.52221  0.09114  1.0000
  C   C1648     1.0  0.41205  0.50739  0.07937  1.0000
  H   H1329     1.0  0.36354  0.39912  0.42472  1.0000
  H   H1330     1.0  0.43739  0.54075  0.01963  1.0000
  H   H1331     1.0  0.42454  0.52439  0.11681  1.0000
  H   H1332     1.0  0.40469  0.49830  0.09616  1.0000
  C   C1649     1.0  0.41437  0.51272  0.33459  1.0000
  C   C1650     1.0  0.40155  0.50700  0.31396  1.0000
  C   C1651     1.0  0.40331  0.51256  0.28194  1.0000
  C   C1652     1.0  0.41798  0.52344  0.26994  1.0000
  C   C1653     1.0  0.43083  0.52897  0.29048  1.0000
  C   C1654     1.0  0.42896  0.52381  0.32276  1.0000
  H   H1333     1.0  0.39023  0.49857  0.32286  1.0000
  H   H1334     1.0  0.39320  0.50846  0.26651  1.0000
  H   H1335     1.0  0.44210  0.53746  0.28158  1.0000
  H   H1336     1.0  0.43891  0.52839  0.33863  1.0000
  C   C1655     1.0  0.28608  0.42081  0.45751  1.0000
  C   C1656     1.0  0.28719  0.43099  0.43128  1.0000
  C   C1657     1.0  0.30212  0.44122  0.41857  1.0000
  C   C1658     1.0  0.31623  0.44144  0.43164  1.0000
  C   C1659     1.0  0.31511  0.43115  0.45768  1.0000
  C   C1660     1.0  0.44737  0.43480  0.47255  1.0000
  H   H1337     1.0  0.27655  0.43106  0.42090  1.0000
  H   H1338     1.0  0.30273  0.44905  0.39841  1.0000
  H   H1339     1.0  0.44162  0.36543  0.40113  1.0000
  H   H1340     1.0  0.33044  0.48085  0.46000  1.0000
  C   C1661     1.0  0.41865  0.42026  0.32317  1.0000
  C   C1662     1.0  0.40927  0.42961  0.32418  1.0000
  C   C1663     1.0  0.40295  0.43280  0.35358  1.0000
  C   C1664     1.0  0.40593  0.42652  0.38222  1.0000
  C   C1665     1.0  0.41533  0.41716  0.38126  1.0000
  C   C1666     1.0  0.42182  0.41418  0.35186  1.0000
  H   H1341     1.0  0.40705  0.43455  0.30217  1.0000
  H   H1342     1.0  0.39569  0.43999  0.35406  1.0000
  H   H1343     1.0  0.41774  0.41235  0.40339  1.0000
  H   H1344     1.0  0.42926  0.40717  0.35142  1.0000
  C   C1667     1.0  0.42390  0.32621  0.25997  1.0000
  C   C1668     1.0  0.41503  0.32331  0.28876  1.0000
  H   H1345     1.0  0.35252  0.33488  0.38348  1.0000
  H   H1346     1.0  0.41738  0.33320  0.30626  1.0000
  C   C1669     1.0  0.41745  0.34527  0.17734  1.0000
  C   C1670     1.0  0.38468  0.48860  0.20492  1.0000
  C   C1671     1.0  0.37188  0.48008  0.18535  1.0000
  C   C1672     1.0  0.36648  0.46294  0.18241  1.0000
  C   C1673     1.0  0.37401  0.45434  0.19873  1.0000
  C   C1674     1.0  0.38704  0.46284  0.21802  1.0000
  C   C1675     1.0  0.39214  0.48001  0.22145  1.0000
  P   P55       1.0  0.39731  0.45170  0.23718  1.0000
  C   C1676     1.0  0.38278  0.43438  0.25780  1.0000
  C   C1677     1.0  0.40854  0.44489  0.20784  1.0000
  C   C1678     1.0  0.42000  0.43933  0.21844  1.0000
  C   C1679     1.0  0.42847  0.43352  0.19635  1.0000
  C   C1680     1.0  0.42573  0.43344  0.16335  1.0000
  C   C1681     1.0  0.41471  0.43946  0.15245  1.0000
  C   C1682     1.0  0.40612  0.44515  0.17457  1.0000
  C   C1683     1.0  0.38420  0.41903  0.25836  1.0000
  C   C1684     1.0  0.37327  0.40601  0.27569  1.0000
  C   C1685     1.0  0.36078  0.40815  0.29242  1.0000
  C   C1686     1.0  0.35917  0.42331  0.29168  1.0000
  C   C1687     1.0  0.37006  0.43635  0.27433  1.0000
  C   C1688     1.0  0.41085  0.46503  0.26625  1.0000
  C   C1689     1.0  0.42615  0.47521  0.25633  1.0000
  C   C1690     1.0  0.43652  0.48607  0.27821  1.0000
  C   C1691     1.0  0.43180  0.48658  0.31034  1.0000
  C   C1692     1.0  0.41673  0.47626  0.32058  1.0000
  C   C1693     1.0  0.40616  0.46578  0.29854  1.0000
  H   H1347     1.0  0.38892  0.50191  0.20728  1.0000
  H   H1348     1.0  0.36611  0.48675  0.17254  1.0000
  H   H1349     1.0  0.35649  0.45634  0.16738  1.0000
  H   H1350     1.0  0.36978  0.44106  0.19605  1.0000
  H   H1351     1.0  0.40192  0.48687  0.23672  1.0000
  H   H1352     1.0  0.42229  0.43938  0.24393  1.0000
  H   H1353     1.0  0.43711  0.42905  0.20505  1.0000
  H   H1354     1.0  0.43231  0.42896  0.14622  1.0000
  H   H1355     1.0  0.41277  0.43973  0.12683  1.0000
  H   H1356     1.0  0.39773  0.44979  0.16545  1.0000
  H   H1357     1.0  0.39394  0.41710  0.24634  1.0000
  H   H1358     1.0  0.37466  0.39435  0.27653  1.0000
  H   H1359     1.0  0.35241  0.39812  0.30614  1.0000
  H   H1360     1.0  0.34956  0.42503  0.30491  1.0000
  H   H1361     1.0  0.36875  0.44809  0.27445  1.0000
  H   H1362     1.0  0.43004  0.47489  0.23162  1.0000
  H   H1363     1.0  0.44815  0.49420  0.27018  1.0000
  H   H1364     1.0  0.43972  0.49516  0.32722  1.0000
  H   H1365     1.0  0.41305  0.47669  0.34551  1.0000
  H   H1366     1.0  0.39444  0.45830  0.30703  1.0000
  C   C1694     1.0  0.38682  0.37127  0.24147  1.0000
  H   H1367     1.0  0.40987  0.55370  0.07304  1.0000
  H   H1368     1.0  0.43120  0.38752  0.40354  1.0000
  H   H1369     1.0  0.29955  0.41320  0.49074  1.0000
  C   C1695     1.0  0.21904  0.39550  0.26197  1.0000
  C   C1696     1.0  0.36723  0.37630  0.42346  1.0000
  C   C1697     1.0  0.42873  0.47072  0.04387  1.0000
  C   C1698     1.0  0.39429  0.54276  0.01417  1.0000
  C   C1699     1.0  0.42804  0.59944  0.13616  1.0000
  C   C1700     1.0  0.42621  0.48327  0.12599  1.0000
  C   C1701     1.0  0.43482  0.59876  0.22378  1.0000
  C   C1702     1.0  0.42103  0.58441  0.22343  1.0000
  C   C1703     1.0  0.41961  0.57116  0.24304  1.0000
  H   H1370     1.0  0.43052  0.33142  0.15844  1.0000
  C   C1704     1.0  0.42360  0.43736  0.04859  1.0000
  H   H1371     1.0  0.40541  0.38296  0.38032  1.0000
  S   S234      1.0  0.41965  0.53018  0.22953  1.0000
  H   H1372     1.0  0.42600  0.63253  0.14996  1.0000
  H   H1373     1.0  0.41620  0.59836  0.14250  1.0000
  C   C1705     1.0  0.38402  0.36125  0.30592  1.0000
  H   H1374     1.0  0.40913  0.55993  0.24225  1.0000
  H   H1375     1.0  0.43105  0.56158  0.27721  1.0000
  P   P56       1.0  0.38187  0.35487  0.34747  1.0000
  C   C1706     1.0  0.44675  0.51820  0.42176  1.0000
  C   C1707     1.0  0.35573  0.32696  0.36701  1.0000
  H   H1376     1.0  0.32573  0.43097  0.46795  1.0000
  H   H1377     1.0  0.42315  0.49881  0.20066  1.0000
  H   H1378     1.0  0.45127  0.50284  0.20111  1.0000
  Fe  Fe115     1.0  0.21076  0.39345  0.42876  1.0000
  C   C1708     1.0  0.38289  0.54053  0.45115  1.0000
  H   H1379     1.0  0.41098  0.38598  0.25240  1.0000
  C   C1709     1.0  0.37137  0.36523  0.40427  1.0000
  C   C1710     1.0  0.41992  0.62013  0.19577  1.0000
  C   C1711     1.0  0.37414  0.36778  0.37098  1.0000
  H   H1380     1.0  0.42108  0.58642  0.09085  1.0000
  H   H1381     1.0  0.36232  0.35543  0.23786  1.0000
  C   C1712     1.0  0.37240  0.36019  0.25345  1.0000
  P   P57       1.0  0.43715  0.61507  0.19603  1.0000
  H   H1382     1.0  0.41959  0.55453  0.12764  1.0000
  C   C1713     1.0  0.21768  0.39249  0.29506  1.0000
  C   C1714     1.0  0.40185  0.54625  0.09124  1.0000
  C   C1715     1.0  0.44404  0.37336  0.16251  1.0000
  H   H1383     1.0  0.37490  0.51860  0.15794  1.0000
  C   C1716     1.0  0.34304  0.49789  0.99989  1.0000
  H   H1384     1.0  0.44432  0.44078  0.40071  1.0000
  C   C1717     1.0  0.42069  0.31304  0.23760  1.0000
  C   C1718     1.0  0.21422  0.38232  0.23996  1.0000
  C   C1719     1.0  0.36480  0.51554  0.03269  1.0000
  H   H1385     1.0  0.41086  0.46291  0.00766  1.0000
  C   C1720     1.0  0.39247  0.54297  0.42343  1.0000
  H   H1386     1.0  0.36179  0.54702  0.09510  1.0000
  C   C1721     1.0  0.39784  0.53671  0.14638  1.0000
  H   H1387     1.0  0.45845  0.36931  0.00590  1.0000
  C   C1722     1.0  0.43477  0.44904  0.06808  1.0000
  H   H1388     1.0  0.22874  0.34009  0.41666  1.0000
  C   C1723     1.0  0.40749  0.54675  0.12242  1.0000
  C   C1724     1.0  0.34828  0.50132  0.48407  1.0000
  H   H1389     1.0  0.33441  0.45980  0.49302  1.0000
  C   C1725     1.0  0.35716  0.48581  0.03239  1.0000
  C   C1726     1.0  0.44657  0.40657  0.09378  1.0000
  H   H1390     1.0  0.20995  0.37437  0.33201  1.0000
  C   C1727     1.0  0.45111  0.34782  0.07574  1.0000
  H   H1391     1.0  0.40699  0.48616  0.15272  1.0000
  H   H1392     1.0  0.42736  0.31500  0.21519  1.0000
  H   H1393     1.0  0.45576  0.58662  0.27700  1.0000
  C   C1728     1.0  0.39836  0.37259  0.29388  1.0000
  C   C1729     1.0  0.37661  0.52600  0.10828  1.0000
  C   C1730     1.0  0.33904  0.48465  0.47903  1.0000
  C   C1731     1.0  0.41761  0.62897  0.16996  1.0000
  H   H1394     1.0  0.39868  0.42858  0.49102  1.0000
  H   H1395     1.0  0.39055  0.54947  0.40314  1.0000
  C   C1732     1.0  0.21548  0.32420  0.27072  1.0000
  C   C1733     1.0  0.44438  0.35770  0.15689  1.0000
  H   H1396     1.0  0.37291  0.35497  0.41557  1.0000
  C   C1734     1.0  0.45389  0.41432  0.02848  1.0000
  H   H1397     1.0  0.36905  0.40420  0.36653  1.0000
  H   H1398     1.0  0.26177  0.37340  0.00008  1.0000
  C   C1735     1.0  0.41763  0.45903  0.02437  1.0000
  C   C1736     1.0  0.43054  0.37493  0.17586  1.0000
  Fe  Fe116     1.0  0.44914  0.37183  0.27461  1.0000
  H   H1399     1.0  0.40245  0.53685  0.17027  1.0000
  H   H1400     1.0  0.29800  0.41568  0.99653  1.0000
  C   C1737     1.0  0.44586  0.58615  0.26279  1.0000
  H   H1401     1.0  0.43037  0.48357  0.04202  1.0000
  C   C1738     1.0  0.40454  0.63342  0.16997  1.0000
  H   H1402     1.0  0.21516  0.38468  0.21429  1.0000
  C   C1739     1.0  0.41507  0.44238  0.02664  1.0000
  C   C1740     1.0  0.45123  0.49305  0.15318  1.0000
  H   H1403     1.0  0.38792  0.37519  0.21665  1.0000
  C   C1741     1.0  0.40427  0.53660  0.42146  1.0000
  Fe  Fe117     1.0  0.45418  0.55645  0.13545  1.0000
  H   H1404     1.0  0.44400  0.40351  0.11900  1.0000
  H   H1405     1.0  0.35921  0.47510  0.04000  1.0000
  H   H1406     1.0  0.42625  0.43840  0.46056  1.0000
  C   C1742     1.0  0.40965  0.37307  0.37938  1.0000
  H   H1407     1.0  0.42163  0.42445  0.05031  1.0000
  H   H1408     1.0  0.38243  0.32717  0.30813  1.0000
  C   C1743     1.0  0.38521  0.53186  0.47726  1.0000
  H   H1409     1.0  0.43046  0.38703  0.18101  1.0000
  C   C1744     1.0  0.23168  0.35068  0.36936  1.0000
  C   C1745     1.0  0.22437  0.35109  0.34042  1.0000
  H   H1410     1.0  0.41914  0.47827  0.10494  1.0000
  S   S235      1.0  0.22325  0.38617  0.01030  1.0000
  C   C1746     1.0  0.43009  0.36318  0.39156  1.0000
  C   C1747     1.0  0.21816  0.31391  0.24708  1.0000
  C   C1748     1.0  0.38238  0.52636  0.13932  1.0000
  C   C1749     1.0  0.42421  0.37566  0.39290  1.0000
  H   H1411     1.0  0.44405  0.33569  0.08482  1.0000
  C   C1750     1.0  0.36620  0.39021  0.40972  1.0000
  C   C1751     1.0  0.37098  0.35522  0.28556  1.0000
  C   C1752     1.0  0.22322  0.34010  0.39384  1.0000
  H   H1412     1.0  0.41156  0.58330  0.20740  1.0000
  C   C1753     1.0  0.41923  0.48764  0.15314  1.0000
  H   H1413     1.0  0.22126  0.40268  0.31229  1.0000
  P   P58       1.0  0.45176  0.48101  0.09085  1.0000
  C   C1754     1.0  0.43847  0.44430  0.46748  1.0000
  C   C1755     1.0  0.42822  0.49453  0.18031  1.0000
  H   H1414     1.0  0.45430  0.38432  0.15702  1.0000
  H   H1415     1.0  0.35970  0.34669  0.29450  1.0000
  C   C1756     1.0  0.44727  0.59946  0.24338  1.0000
  H   H1416     1.0  0.24382  0.35883  0.37316  1.0000
  H   H1417     1.0  0.23114  0.35940  0.32176  1.0000
  H   H1418     1.0  0.37644  0.50267  0.05926  1.0000
  C   C1757     1.0  0.45698  0.42232  0.08514  1.0000
  C   C1758     1.0  0.39979  0.37739  0.26163  1.0000
  H   H1419     1.0  0.36456  0.51801  0.10332  1.0000
  H   H1420     1.0  0.40710  0.36204  0.19513  1.0000
  C   C1759     1.0  0.44228  0.48600  0.12584  1.0000
  H   H1421     1.0  0.34749  0.56562  0.09457  1.0000
  H   H1422     1.0  0.44122  0.52454  0.40735  1.0000
  C   C1760     1.0  0.43744  0.46581  0.06580  1.0000
  H   H1423     1.0  0.41518  0.52225  0.44508  1.0000
  C   C1761     1.0  0.35306  0.56343  0.07259  1.0000
  H   H1424     1.0  0.45539  0.47448  0.32236  1.0000
  C   C1762     1.0  0.44532  0.46144  0.47091  1.0000
  H   H1425     1.0  0.45504  0.33575  0.19631  1.0000
  C   C1763     1.0  0.36849  0.54997  0.04441  1.0000
  C   C1764     1.0  0.36123  0.55289  0.07279  1.0000
  P   P59       1.0  0.37854  0.53586  0.04410  1.0000
  H   H1426     1.0  0.42597  0.33842  0.37566  1.0000
  H   H1427     1.0  0.40019  0.33352  0.35289  1.0000
  C   C1765     1.0  0.45811  0.32903  0.17682  1.0000
  H   H1428     1.0  0.40730  0.33436  0.18383  1.0000
  H   H1429     1.0  0.45639  0.51607  0.10130  1.0000
  H   H1430     1.0  0.40267  0.56837  0.02922  1.0000
  C   C1766     1.0  0.35277  0.51361  0.01079  1.0000
  C   C1767     1.0  0.36691  0.50150  0.04335  1.0000
  H   H1431     1.0  0.43808  0.46851  0.46748  1.0000
  C   C1768     1.0  0.39687  0.52525  0.47482  1.0000
  H   H1432     1.0  0.40836  0.37789  0.30938  1.0000
  S   S236      1.0  0.26758  0.40772  0.47527  1.0000
  C   C1769     1.0  0.45306  0.63421  0.20619  1.0000
  C   C1770     1.0  0.44413  0.49691  0.18056  1.0000
  H   H1433     1.0  0.43213  0.38228  0.07662  1.0000
  H   H1434     1.0  0.45139  0.46129  0.14671  1.0000
  Fe  Fe118     1.0  0.44300  0.54570  0.20468  1.0000
  H   H1435     1.0  0.40283  0.64025  0.14998  1.0000
  H   H1436     1.0  0.36526  0.37439  0.44916  1.0000
  H   H1437     1.0  0.44280  0.34155  0.02720  1.0000
  H   H1438     1.0  0.22380  0.32886  0.29003  1.0000
  C   C1771     1.0  0.40078  0.35794  0.36449  1.0000
  C   C1772     1.0  0.43987  0.39463  0.06989  1.0000
  C   C1773     1.0  0.43072  0.59257  0.10696  1.0000
  S   S237      1.0  0.44946  0.53336  0.16204  1.0000
  H   H1439     1.0  0.34554  0.57912  0.04388  1.0000
  H   H1440     1.0  0.44207  0.42153  0.46959  1.0000
  Fe  Fe119     1.0  0.38806  0.47606  0.47386  1.0000
  H   H1441     1.0  0.44784  0.58763  0.07652  1.0000
  C   C1774     1.0  0.44816  0.45758  0.36155  1.0000
  C   C1775     1.0  0.40669  0.34537  0.36376  1.0000
  C   C1776     1.0  0.37240  0.32257  0.32464  1.0000
  C   C1777     1.0  0.41735  0.36089  0.18374  1.0000
  C   C1778     1.0  0.39621  0.62075  0.22203  1.0000
  H   H1442     1.0  0.37621  0.38484  0.33239  1.0000
  C   C1779     1.0  0.40644  0.52772  0.44713  1.0000
  C   C1780     1.0  0.30019  0.42101  0.47053  1.0000
  H   H1443     1.0  0.44127  0.44497  0.08486  1.0000
  C   C1781     1.0  0.43080  0.34366  0.16342  1.0000
  C   C1782     1.0  0.45252  0.52448  0.45208  1.0000
  C   C1783     1.0  0.40928  0.61629  0.22210  1.0000
  C   C1784     1.0  0.40410  0.55952  0.01218  1.0000
  C   C1785     1.0  0.45300  0.45004  0.38604  1.0000
  C   C1786     1.0  0.44366  0.39842  0.03736  1.0000
  C   C1787     1.0  0.43202  0.57203  0.26273  1.0000
  C   C1788     1.0  0.42132  0.34804  0.37705  1.0000
  C   C1789     1.0  0.39381  0.62926  0.19595  1.0000
  H   H1444     1.0  0.43902  0.38878  0.01930  1.0000
  H   H1445     1.0  0.41115  0.61006  0.24287  1.0000
  H   H1446     1.0  0.38374  0.63280  0.19604  1.0000
  H   H1447     1.0  0.37349  0.54507  0.45175  1.0000
  H   H1448     1.0  0.45149  0.53570  0.46112  1.0000
  C   C1790     1.0  0.45817  0.31349  0.18290  1.0000
  C   C1791     1.0  0.45550  0.60736  0.14934  1.0000
  H   H1449     1.0  0.44322  0.49874  0.38682  1.0000
  C   C1792     1.0  0.44580  0.59322  0.09885  1.0000
  H   H1450     1.0  0.35107  0.52418  0.00149  1.0000
  Fe  Fe120     1.0  0.21161  0.36579  0.47076  1.0000
  C   C1793     1.0  0.44801  0.50371  0.41010  1.0000
  H   H1451     1.0  0.22373  0.40806  0.25344  1.0000
  H   H1452     1.0  0.34678  0.51036  0.46863  1.0000
  C   C1794     1.0  0.35195  0.57102  0.04403  1.0000
  C   C1795     1.0  0.45527  0.63972  0.23843  1.0000
  C   C1796     1.0  0.21134  0.37634  0.30620  1.0000
  C   C1797     1.0  0.45519  0.49555  0.42866  1.0000
  H   H1453     1.0  0.40645  0.43342  0.01129  1.0000
  C   C1798     1.0  0.34526  0.48400  0.01060  1.0000
  H   H1454     1.0  0.38802  0.61774  0.24240  1.0000
  C   C1799     1.0  0.45028  0.35113  0.04315  1.0000
  C   C1800     1.0  0.36713  0.55749  0.01571  1.0000
  C   C1801     1.0  0.35896  0.56803  0.01560  1.0000
  H   H1455     1.0  0.45631  0.48448  0.41905  1.0000
  H   H1456     1.0  0.22840  0.31069  0.24838  1.0000
  C   C1802     1.0  0.45816  0.60052  0.12014  1.0000
  H   H1457     1.0  0.45834  0.60997  0.24287  1.0000
  C   C1803     1.0  0.24107  0.34674  0.94161  1.0000
  H   H1458     1.0  0.23621  0.41185  0.84050  1.0000
  S   S238      1.0  0.43622  0.34480  0.74496  1.0000
  H   H1459     1.0  0.44212  0.44151  0.78024  1.0000
  S   S239      1.0  0.41147  0.40685  0.79006  1.0000
  P   P60       1.0  0.37242  0.52761  0.51242  1.0000
  H   H1460     1.0  0.38584  0.55209  0.76742  1.0000
  Fe  Fe121     1.0  0.23952  0.40094  0.97026  1.0000
  S   S240      1.0  0.22392  0.41472  0.95983  1.0000
  C   C1804     1.0  0.40795  0.53708  0.96730  1.0000
  C   C1805     1.0  0.43917  0.44985  0.76544  1.0000
  C   C1806     1.0  0.39639  0.53159  0.99165  1.0000
  H   H1461     1.0  0.34725  0.49396  0.90101  1.0000
  H   H1462     1.0  0.44803  0.45431  0.55875  1.0000
  S   S241      1.0  0.22804  0.38137  0.93253  1.0000
  Fe  Fe122     1.0  0.36030  0.46553  0.93403  1.0000
  S   S242      1.0  0.37141  0.45410  0.96882  1.0000
  S   S243      1.0  0.33394  0.46000  0.92635  1.0000
  Fe  Fe123     1.0  0.39289  0.48974  0.90918  1.0000
  S   S244      1.0  0.40609  0.48000  0.94237  1.0000
  S   S245      1.0  0.40660  0.51294  0.88062  1.0000
  Fe  Fe124     1.0  0.38851  0.45508  0.92833  1.0000
  S   S246      1.0  0.39877  0.43547  0.92471  1.0000
  Fe  Fe125     1.0  0.38837  0.47987  0.98032  1.0000
  H   H1463     1.0  0.40587  0.54714  0.52650  1.0000
  S   S247      1.0  0.37638  0.46470  0.89203  1.0000
  S   S248      1.0  0.37610  0.49142  0.94850  1.0000
  H   H1464     1.0  0.28879  0.36481  0.77457  1.0000
  S   S249      1.0  0.44912  0.54501  0.58625  1.0000
  S   S250      1.0  0.43452  0.51506  0.73760  1.0000
  Fe  Fe126     1.0  0.45097  0.53706  0.70888  1.0000
  H   H1465     1.0  0.25220  0.42170  0.88951  1.0000
  H   H1466     1.0  0.40940  0.55574  0.73299  1.0000
  C   C1807     1.0  0.40960  0.49986  0.54264  1.0000
  C   C1808     1.0  0.42157  0.51055  0.52297  1.0000
  C   C1809     1.0  0.43366  0.52425  0.53673  1.0000
  C   C1810     1.0  0.43420  0.52711  0.57027  1.0000
  C   C1811     1.0  0.42243  0.51619  0.58996  1.0000
  C   C1812     1.0  0.41011  0.50277  0.57610  1.0000
  H   H1467     1.0  0.33698  0.42400  0.91162  1.0000
  H   H1468     1.0  0.44267  0.53273  0.52136  1.0000
  H   H1469     1.0  0.42257  0.51839  0.61571  1.0000
  H   H1470     1.0  0.40075  0.49473  0.59128  1.0000
  C   C1813     1.0  0.41520  0.51341  0.84166  1.0000
  C   C1814     1.0  0.41408  0.49899  0.82520  1.0000
  C   C1815     1.0  0.42016  0.49973  0.79348  1.0000
  C   C1816     1.0  0.42785  0.51493  0.77820  1.0000
  C   C1817     1.0  0.42937  0.52942  0.79500  1.0000
  C   C1818     1.0  0.42296  0.52863  0.82648  1.0000
  H   H1471     1.0  0.40836  0.48725  0.83684  1.0000
  H   H1472     1.0  0.41873  0.48844  0.78067  1.0000
  H   H1473     1.0  0.43514  0.54119  0.78348  1.0000
  H   H1474     1.0  0.42389  0.53987  0.83903  1.0000
  C   C1819     1.0  0.28495  0.42479  0.96510  1.0000
  C   C1820     1.0  0.28635  0.43620  0.94099  1.0000
  C   C1821     1.0  0.30139  0.44687  0.92975  1.0000
  C   C1822     1.0  0.31530  0.44642  0.94243  1.0000
  C   C1823     1.0  0.31392  0.43510  0.96669  1.0000
  H   H1475     1.0  0.28590  0.33657  0.78925  1.0000
  H   H1476     1.0  0.27585  0.43686  0.93111  1.0000
  H   H1477     1.0  0.30224  0.45555  0.91103  1.0000
  C   C1824     1.0  0.45468  0.45851  0.58059  1.0000
  H   H1478     1.0  0.41581  0.38478  0.89184  1.0000
  C   C1825     1.0  0.40864  0.41578  0.82691  1.0000
  C   C1826     1.0  0.39687  0.42226  0.82982  1.0000
  C   C1827     1.0  0.39402  0.42881  0.85949  1.0000
  C   C1828     1.0  0.40270  0.42854  0.88650  1.0000
  C   C1829     1.0  0.41448  0.42211  0.88347  1.0000
  C   C1830     1.0  0.41765  0.41603  0.85364  1.0000
  H   H1479     1.0  0.38978  0.42196  0.80924  1.0000
  H   H1480     1.0  0.38476  0.43353  0.86178  1.0000
  H   H1481     1.0  0.42133  0.42207  0.90422  1.0000
  H   H1482     1.0  0.42687  0.41128  0.85140  1.0000
  C   C1831     1.0  0.42219  0.32484  0.75546  1.0000
  C   C1832     1.0  0.41142  0.32231  0.78124  1.0000
  H   H1483     1.0  0.27844  0.32695  0.84534  1.0000
  H   H1484     1.0  0.41147  0.33272  0.79570  1.0000
  H   H1485     1.0  0.42580  0.40373  0.98846  1.0000
  H   H1486     1.0  0.40945  0.52836  0.94991  1.0000
  C   C1833     1.0  0.28529  0.36051  0.79893  1.0000
  C   C1834     1.0  0.43340  0.46748  0.87877  1.0000
  H   H1487     1.0  0.39992  0.49504  0.66642  1.0000
  C   C1835     1.0  0.37132  0.50322  0.83450  1.0000
  C   C1836     1.0  0.42797  0.44341  0.74144  1.0000
  C   C1837     1.0  0.40145  0.54351  0.73998  1.0000
  C   C1838     1.0  0.41145  0.40611  0.68399  1.0000
  C   C1839     1.0  0.38928  0.33586  0.73725  1.0000
  C   C1840     1.0  0.43913  0.45865  0.89900  1.0000
  C   C1841     1.0  0.45143  0.45404  0.88840  1.0000
  H   H1488     1.0  0.42841  0.50152  0.67040  1.0000
  C   C1842     1.0  0.36934  0.55783  0.51251  1.0000
  C   C1843     1.0  0.37441  0.32815  0.75167  1.0000
  H   H1489     1.0  0.42628  0.47912  0.71577  1.0000
  C   C1844     1.0  0.27783  0.36539  0.85365  1.0000
  C   C1845     1.0  0.42363  0.45396  0.72281  1.0000
  C   C1846     1.0  0.26401  0.36851  0.91858  1.0000
  C   C1847     1.0  0.35286  0.47743  0.52113  1.0000
  C   C1848     1.0  0.44025  0.47214  0.84825  1.0000
  H   H1490     1.0  0.44688  0.46735  0.97943  1.0000
  H   H1491     1.0  0.39602  0.43073  0.64836  1.0000
  C   C1849     1.0  0.44710  0.45850  0.61050  1.0000
  C   C1850     1.0  0.44604  0.33454  0.82740  1.0000
  C   C1851     1.0  0.31592  0.42001  0.88534  1.0000
  C   C1852     1.0  0.32520  0.41538  0.90602  1.0000
  C   C1853     1.0  0.31918  0.39981  0.91997  1.0000
  C   C1854     1.0  0.30383  0.38892  0.91341  1.0000
  C   C1855     1.0  0.29426  0.39367  0.89340  1.0000
  C   C1856     1.0  0.30053  0.40920  0.87889  1.0000
  P   P61       1.0  0.27482  0.37916  0.88352  1.0000
  C   C1857     1.0  0.26296  0.38968  0.86872  1.0000
  H   H1492     1.0  0.32443  0.43449  0.97669  1.0000
  C   C1858     1.0  0.42650  0.41222  0.66990  1.0000
  C   C1859     1.0  0.45137  0.32603  0.80417  1.0000
  C   C1860     1.0  0.26231  0.40329  0.88602  1.0000
  H   H1493     1.0  0.39756  0.34736  0.74709  1.0000
  C   C1861     1.0  0.34078  0.48304  0.85386  1.0000
  C   C1862     1.0  0.24399  0.39190  0.83126  1.0000
  C   C1863     1.0  0.25346  0.38379  0.84161  1.0000
  H   H1494     1.0  0.27814  0.38668  0.95317  1.0000
  H   H1495     1.0  0.43568  0.47902  0.83286  1.0000
  C   C1864     1.0  0.41585  0.56494  0.98816  1.0000
  S   S251      1.0  0.44622  0.55663  0.68171  1.0000
  C   C1865     1.0  0.45615  0.46265  0.97621  1.0000
  H   H1496     1.0  0.45547  0.44668  0.90370  1.0000
  H   H1497     1.0  0.32056  0.43220  0.87501  1.0000
  H   H1498     1.0  0.29937  0.37684  0.92414  1.0000
  H   H1499     1.0  0.29358  0.41307  0.86278  1.0000
  C   C1866     1.0  0.45326  0.44630  0.98363  1.0000
  H   H1500     1.0  0.42347  0.47049  0.88659  1.0000
  H   H1501     1.0  0.26888  0.40741  0.90796  1.0000
  H   H1502     1.0  0.44001  0.48272  0.64746  1.0000
  H   H1503     1.0  0.23027  0.33602  0.93859  1.0000
  H   H1504     1.0  0.23654  0.38730  0.81056  1.0000
  H   H1505     1.0  0.25306  0.37279  0.82882  1.0000
  C   C1867     1.0  0.28251  0.37092  0.82212  1.0000
  S   S252      1.0  0.26627  0.41076  0.98025  1.0000
  H   H1506     1.0  0.40594  0.45760  0.50849  1.0000
  C   C1868     1.0  0.26815  0.37523  0.94961  1.0000
  H   H1507     1.0  0.33081  0.49766  0.69291  1.0000
  C   C1869     1.0  0.38803  0.45907  0.79618  1.0000
  C   C1870     1.0  0.39119  0.45323  0.76633  1.0000
  C   C1871     1.0  0.38754  0.45917  0.73791  1.0000
  C   C1872     1.0  0.38070  0.47090  0.73939  1.0000
  C   C1873     1.0  0.37743  0.47679  0.76936  1.0000
  C   C1874     1.0  0.38114  0.47075  0.79775  1.0000
  P   P62       1.0  0.36800  0.49145  0.77108  1.0000
  C   C1875     1.0  0.36105  0.49261  0.81188  1.0000
  C   C1876     1.0  0.38131  0.51179  0.75908  1.0000
  C   C1877     1.0  0.43006  0.40167  0.96487  1.0000
  H   H1508     1.0  0.24640  0.34940  0.89089  1.0000
  C   C1878     1.0  0.43078  0.42524  0.64828  1.0000
  H   H1509     1.0  0.43911  0.49570  0.57934  1.0000
  C   C1879     1.0  0.39468  0.51401  0.73964  1.0000
  C   C1880     1.0  0.34574  0.48245  0.82184  1.0000
  H   H1510     1.0  0.44440  0.39654  0.87806  1.0000
  C   C1881     1.0  0.33416  0.48911  0.70634  1.0000
  C   C1882     1.0  0.37813  0.52565  0.76880  1.0000
  H   H1511     1.0  0.35345  0.50818  0.72905  1.0000
  C   C1883     1.0  0.35139  0.48401  0.74446  1.0000
  C   C1884     1.0  0.34702  0.49503  0.72692  1.0000
  C   C1885     1.0  0.45062  0.49688  0.57025  1.0000
  C   C1886     1.0  0.32557  0.47218  0.70313  1.0000
  C   C1887     1.0  0.32981  0.46114  0.72056  1.0000
  C   C1888     1.0  0.34265  0.46701  0.74116  1.0000
  H   H1512     1.0  0.39106  0.45465  0.81821  1.0000
  H   H1513     1.0  0.39652  0.44415  0.76539  1.0000
  H   H1514     1.0  0.39003  0.45469  0.71474  1.0000
  H   H1515     1.0  0.37788  0.47534  0.71720  1.0000
  H   H1516     1.0  0.37889  0.47512  0.82121  1.0000
  C   C1889     1.0  0.41912  0.39327  0.94134  1.0000
  H   H1517     1.0  0.42680  0.55787  0.94698  1.0000
  C   C1890     1.0  0.44172  0.47740  0.75205  1.0000
  H   H1518     1.0  0.39776  0.50373  0.73241  1.0000
  H   H1519     1.0  0.33765  0.47389  0.80526  1.0000
  H   H1520     1.0  0.35507  0.46813  0.53457  1.0000
  H   H1521     1.0  0.33833  0.56966  0.52334  1.0000
  H   H1522     1.0  0.38335  0.51080  0.82773  1.0000
  C   C1891     1.0  0.38821  0.54144  0.75941  1.0000
  H   H1523     1.0  0.45067  0.46310  0.66184  1.0000
  H   H1524     1.0  0.37432  0.51193  0.88377  1.0000
  H   H1525     1.0  0.31558  0.46762  0.68723  1.0000
  H   H1526     1.0  0.32309  0.44802  0.71818  1.0000
  H   H1527     1.0  0.34569  0.45828  0.75470  1.0000
  C   C1892     1.0  0.38362  0.53180  0.54902  1.0000
  C   C1893     1.0  0.37600  0.52584  0.57858  1.0000
  C   C1894     1.0  0.38448  0.52947  0.60720  1.0000
  C   C1895     1.0  0.40054  0.53936  0.60657  1.0000
  C   C1896     1.0  0.40810  0.54571  0.57739  1.0000
  C   C1897     1.0  0.39971  0.54198  0.54871  1.0000
  C   C1898     1.0  0.36204  0.49409  0.52639  1.0000
  C   C1899     1.0  0.34477  0.56161  0.52115  1.0000
  C   C1900     1.0  0.28369  0.34462  0.80721  1.0000
  S   S253      1.0  0.22553  0.38310  0.50936  1.0000
  C   C1901     1.0  0.42428  0.39105  0.91024  1.0000
  H   H1528     1.0  0.36352  0.51833  0.57943  1.0000
  H   H1529     1.0  0.37861  0.52464  0.62987  1.0000
  H   H1530     1.0  0.40722  0.54210  0.62860  1.0000
  H   H1531     1.0  0.42059  0.55333  0.57693  1.0000
  C   C1902     1.0  0.39366  0.32856  0.71047  1.0000
  C   C1903     1.0  0.40460  0.52980  0.72994  1.0000
  H   H1532     1.0  0.42256  0.43020  0.73767  1.0000
  H   H1533     1.0  0.45144  0.35735  0.85389  1.0000
  C   C1904     1.0  0.40404  0.43265  0.51430  1.0000
  C   C1905     1.0  0.27664  0.34956  0.86202  1.0000
  Fe  Fe127     1.0  0.44276  0.37120  0.76522  1.0000
  H   H1534     1.0  0.32910  0.47493  0.86182  1.0000
  C   C1906     1.0  0.40472  0.42583  0.65420  1.0000
  C   C1907     1.0  0.40053  0.41283  0.67594  1.0000
  Fe  Fe128     1.0  0.43252  0.39956  0.78577  1.0000
  H   H1535     1.0  0.43355  0.45480  0.92238  1.0000
  H   H1536     1.0  0.43017  0.31279  0.71714  1.0000
  C   C1908     1.0  0.27944  0.33918  0.83878  1.0000
  H   H1537     1.0  0.38882  0.40799  0.68678  1.0000
  H   H1538     1.0  0.40661  0.38882  0.94688  1.0000
  S   S254      1.0  0.43773  0.38056  0.81356  1.0000
  C   C1909     1.0  0.25027  0.35433  0.91472  1.0000
  H   H1539     1.0  0.41779  0.46707  0.56151  1.0000
  C   C1910     1.0  0.35964  0.50619  0.50827  1.0000
  C   C1911     1.0  0.43021  0.47091  0.72872  1.0000
  Fe  Fe129     1.0  0.21137  0.39418  0.92451  1.0000
  C   C1912     1.0  0.35102  0.49376  0.87608  1.0000
  H   H1540     1.0  0.36790  0.52428  0.78379  1.0000
  S   S255      1.0  0.39370  0.48275  0.52691  1.0000
  C   C1913     1.0  0.24378  0.40575  0.84815  1.0000
  H   H1541     1.0  0.38284  0.46957  0.63774  1.0000
  H   H1542     1.0  0.44274  0.48998  0.52191  1.0000
  Fe  Fe130     1.0  0.21092  0.36777  0.97176  1.0000
  C   C1914     1.0  0.44035  0.39770  0.90240  1.0000
  H   H1543     1.0  0.41482  0.44899  0.70455  1.0000
  H   H1544     1.0  0.27374  0.34528  0.88652  1.0000
  C   C1915     1.0  0.44626  0.40766  0.95750  1.0000
  C   C1916     1.0  0.25284  0.41137  0.87567  1.0000
  H   H1545     1.0  0.32425  0.53950  0.52941  1.0000
  H   H1546     1.0  0.43498  0.40695  0.67596  1.0000
  H   H1547     1.0  0.23781  0.34795  0.99307  1.0000
  H   H1548     1.0  0.39420  0.45064  0.61381  1.0000
  H   H1549     1.0  0.28404  0.38331  0.81554  1.0000
  H   H1550     1.0  0.41502  0.53146  0.71530  1.0000
  H   H1551     1.0  0.41578  0.41807  0.57978  1.0000
  S   S256      1.0  0.43563  0.38888  0.73780  1.0000
  H   H1552     1.0  0.40388  0.40892  0.52649  1.0000
  H   H1553     1.0  0.40831  0.39622  0.70126  1.0000
  H   H1554     1.0  0.33395  0.49642  0.98255  1.0000
  C   C1917     1.0  0.36626  0.50385  0.86638  1.0000
  H   H1555     1.0  0.44255  0.42959  0.63783  1.0000
  H   H1556     1.0  0.36722  0.58141  0.51305  1.0000
  H   H1557     1.0  0.44366  0.31378  0.79649  1.0000
  H   H1558     1.0  0.32641  0.39627  0.93604  1.0000
  C   C1918     1.0  0.45126  0.40619  0.92576  1.0000
  C   C1919     1.0  0.44661  0.46694  0.77001  1.0000
  H   H1559     1.0  0.40532  0.33446  0.69971  1.0000
  P   P63       1.0  0.42582  0.44999  0.61416  1.0000
  C   C1920     1.0  0.41791  0.46472  0.62997  1.0000
  C   C1921     1.0  0.41741  0.44317  0.57497  1.0000
  C   C1922     1.0  0.41362  0.42681  0.56459  1.0000
  C   C1923     1.0  0.40692  0.42158  0.53436  1.0000
  C   C1924     1.0  0.41773  0.55373  0.96565  1.0000
  C   C1925     1.0  0.40814  0.44903  0.52415  1.0000
  C   C1926     1.0  0.41484  0.45432  0.55431  1.0000
  C   C1927     1.0  0.42750  0.47941  0.64539  1.0000
  C   C1928     1.0  0.42097  0.49024  0.65843  1.0000
  C   C1929     1.0  0.40485  0.48654  0.65637  1.0000
  C   C1930     1.0  0.39526  0.47217  0.64044  1.0000
  C   C1931     1.0  0.40178  0.46144  0.62693  1.0000
  C   C1932     1.0  0.42003  0.43244  0.64071  1.0000
  H   H1560     1.0  0.37108  0.33382  0.77251  1.0000
  C   C1933     1.0  0.29887  0.42439  0.97786  1.0000
  C   C1934     1.0  0.33683  0.54461  0.52453  1.0000
  C   C1935     1.0  0.42187  0.31105  0.73704  1.0000
  H   H1561     1.0  0.38197  0.56312  0.50834  1.0000
  C   C1936     1.0  0.25883  0.36773  0.97640  1.0000
  C   C1937     1.0  0.45299  0.46808  0.83784  1.0000
  H   H1562     1.0  0.37133  0.49738  0.54381  1.0000
  C   C1938     1.0  0.24532  0.35347  0.97242  1.0000
  C   C1939     1.0  0.45625  0.46375  0.63827  1.0000
  H   H1563     1.0  0.42353  0.57783  0.98697  1.0000
  H   H1564     1.0  0.44645  0.49055  0.75627  1.0000
  S   S257      1.0  0.45715  0.41865  0.78651  1.0000
  C   C1940     1.0  0.45276  0.49366  0.53771  1.0000
  C   C1941     1.0  0.38323  0.31349  0.69820  1.0000
  C   C1942     1.0  0.36103  0.56822  0.51529  1.0000
  C   C1943     1.0  0.45567  0.35059  0.83639  1.0000
  H   H1565     1.0  0.33878  0.52111  0.52520  1.0000
  C   C1944     1.0  0.36395  0.31307  0.73947  1.0000
  H   H1566     1.0  0.43430  0.32880  0.83778  1.0000
  Fe  Fe131     1.0  0.45709  0.54861  0.63848  1.0000
  C   C1945     1.0  0.34131  0.47272  0.49759  1.0000
  H   H1567     1.0  0.42141  0.50839  0.49718  1.0000
  C   C1946     1.0  0.34511  0.53419  0.52182  1.0000
  C   C1947     1.0  0.36140  0.54072  0.51518  1.0000
  H   H1568     1.0  0.38928  0.51859  0.99302  1.0000
  H   H1569     1.0  0.35796  0.57378  0.99336  1.0000
  H   H1570     1.0  0.37226  0.55510  0.99330  1.0000
  H   H1571     1.0  0.44164  0.43841  0.99205  1.0000
  Fe  Fe132     1.0  0.20880  0.39583  0.50245  1.0000
  C   C1948     1.0  0.45826  0.45860  0.85780  1.0000
  P   P64       1.0  0.34450  0.86102  0.31338  1.0000
  S   S258      1.0  0.22354  0.82993  0.23898  1.0000
  H   H1572     1.0  0.42831  0.94109  0.17320  1.0000
  C   C1949     1.0  0.42826  0.95590  0.23790  1.0000
  C   C1950     1.0  0.41574  0.97405  0.07303  1.0000
  Fe  Fe133     1.0  0.23087  0.82323  0.18998  1.0000
  S   S259      1.0  0.25562  0.83021  0.16594  1.0000
  H   H1573     1.0  0.43720  0.92889  0.34088  1.0000
  Fe  Fe134     1.0  0.38077  0.91420  0.15717  1.0000
  S   S260      1.0  0.36146  0.89562  0.12825  1.0000
  S   S261      1.0  0.38770  0.94185  0.15663  1.0000
  Fe  Fe135     1.0  0.38850  0.88811  0.19294  1.0000
  S   S262      1.0  0.36969  0.86751  0.16639  1.0000
  S   S263      1.0  0.40660  0.88306  0.22342  1.0000
  Fe  Fe136     1.0  0.37877  0.88309  0.12229  1.0000
  S   S264      1.0  0.38330  0.87129  0.07576  1.0000
  Fe  Fe137     1.0  0.35372  0.88150  0.17470  1.0000
  S   S265      1.0  0.32879  0.87166  0.19877  1.0000
  S   S266      1.0  0.39841  0.90269  0.14810  1.0000
  S   S267      1.0  0.37227  0.90121  0.20424  1.0000
  H   H1574     1.0  0.37933  0.85392  0.22698  1.0000
  C   C1951     1.0  0.45147  0.85823  0.99772  1.0000
  C   C1952     1.0  0.44305  0.95474  0.33091  1.0000
  C   C1953     1.0  0.40130  0.87998  0.05382  1.0000
  C   C1954     1.0  0.40092  0.88553  0.44722  1.0000
  C   C1955     1.0  0.41416  0.93937  0.28313  1.0000
  C   C1956     1.0  0.35766  0.91047  0.32989  1.0000
  C   C1957     1.0  0.42666  0.90207  0.04375  1.0000
  C   C1958     1.0  0.41245  0.89557  0.06157  1.0000
  H   H1575     1.0  0.24439  0.82785  0.99857  1.0000
  H   H1576     1.0  0.33265  0.81662  0.23063  1.0000
  Fe  Fe138     1.0  0.44653  0.89625  0.39926  1.0000
  H   H1577     1.0  0.41009  0.90268  0.08109  1.0000
  C   C1959     1.0  0.41093  0.88634  0.26514  1.0000
  C   C1960     1.0  0.42153  0.88013  0.27804  1.0000
  C   C1961     1.0  0.42628  0.88335  0.31037  1.0000
  C   C1962     1.0  0.42021  0.89256  0.33042  1.0000
  C   C1963     1.0  0.40924  0.89837  0.31783  1.0000
  C   C1964     1.0  0.40469  0.89539  0.28530  1.0000
  H   H1578     1.0  0.42631  0.87299  0.26272  1.0000
  H   H1579     1.0  0.43453  0.87860  0.31984  1.0000
  H   H1580     1.0  0.40430  0.90530  0.33332  1.0000
  H   H1581     1.0  0.39645  0.90014  0.27577  1.0000
  C   C1965     1.0  0.30851  0.86034  0.18865  1.0000
  C   C1966     1.0  0.30392  0.85241  0.15877  1.0000
  C   C1967     1.0  0.28778  0.84333  0.15243  1.0000
  C   C1968     1.0  0.27587  0.84202  0.17567  1.0000
  C   C1969     1.0  0.28046  0.85003  0.20550  1.0000
  C   C1970     1.0  0.29661  0.85908  0.21186  1.0000
  H   H1582     1.0  0.31281  0.85316  0.14060  1.0000
  H   H1583     1.0  0.28449  0.83724  0.12927  1.0000
  H   H1584     1.0  0.27157  0.84928  0.22366  1.0000
  H   H1585     1.0  0.29991  0.86529  0.23490  1.0000
  C   C1971     1.0  0.44465  0.94655  0.09782  1.0000
  C   C1972     1.0  0.39822  0.95384  0.12382  1.0000
  H   H1586     1.0  0.40990  0.86970  0.12301  1.0000
  C   C1973     1.0  0.40991  0.95680  0.06987  1.0000
  C   C1974     1.0  0.40117  0.94671  0.09518  1.0000
  H   H1587     1.0  0.36066  0.91883  0.35046  1.0000
  H   H1588     1.0  0.41224  0.95117  0.04801  1.0000
  H   H1589     1.0  0.39688  0.93344  0.09270  1.0000
  C   C1975     1.0  0.29111  0.84446  0.33361  1.0000
  Fe  Fe139     1.0  0.45467  0.90032  0.47150  1.0000
  C   C1976     1.0  0.31328  0.85243  0.29605  1.0000
  S   S268      1.0  0.42533  0.89653  0.37166  1.0000
  C   C1977     1.0  0.42987  0.89315  0.01794  1.0000
  C   C1978     1.0  0.44446  0.86405  0.11524  1.0000
  H   H1590     1.0  0.43104  0.95745  0.42101  1.0000
  H   H1591     1.0  0.35337  0.82722  0.39871  1.0000
  C   C1979     1.0  0.34876  0.85097  0.27809  1.0000
  C   C1980     1.0  0.41393  0.95304  0.22312  1.0000
  H   H1592     1.0  0.44673  0.96938  0.01121  1.0000
  H   H1593     1.0  0.22089  0.77842  0.06863  1.0000
  H   H1594     1.0  0.37928  0.89742  0.03870  1.0000
  H   H1595     1.0  0.42003  0.84771  0.11186  1.0000
  C   C1981     1.0  0.39989  0.93619  0.26789  1.0000
  C   C1982     1.0  0.43297  0.88882  0.12790  1.0000
  H   H1596     1.0  0.39583  0.85904  0.02161  1.0000
  H   H1597     1.0  0.35929  0.82825  0.20517  1.0000
  C   C1983     1.0  0.36384  0.85738  0.26370  1.0000
  C   C1984     1.0  0.35073  0.88285  0.30742  1.0000
  H   H1598     1.0  0.29671  0.84473  0.38375  1.0000
  H   H1599     1.0  0.35045  0.90968  0.24965  1.0000
  H   H1600     1.0  0.38966  0.92800  0.43400  1.0000
  H   H1601     1.0  0.41399  0.93362  0.30599  1.0000
  H   H1602     1.0  0.38895  0.92804  0.27887  1.0000
  C   C1985     1.0  0.42823  0.86023  0.11626  1.0000
  C   C1986     1.0  0.45269  0.93593  0.09917  1.0000
  C   C1987     1.0  0.22733  0.84878  0.01939  1.0000
  H   H1603     1.0  0.35513  0.88934  0.35792  1.0000
  C   C1988     1.0  0.39976  0.94317  0.23807  1.0000
  C   C1989     1.0  0.45201  0.93529  0.28053  1.0000
  H   H1604     1.0  0.44273  0.92262  0.17628  1.0000
  C   C1990     1.0  0.43868  0.97053  0.37636  1.0000
  H   H1605     1.0  0.43008  0.95702  0.12393  1.0000
  H   H1606     1.0  0.37272  0.86873  0.27254  1.0000
  C   C1991     1.0  0.43399  0.94179  0.38293  1.0000
  H   H1607     1.0  0.36979  0.91906  0.05699  1.0000
  C   C1992     1.0  0.40557  0.97363  0.46264  1.0000
  C   C1993     1.0  0.23979  0.85961  0.00095  1.0000
  C   C1994     1.0  0.38441  0.89956  0.46752  1.0000
  H   H1608     1.0  0.22909  0.84734  0.04473  1.0000
  H   H1609     1.0  0.32614  0.83040  0.27777  1.0000
  H   H1610     1.0  0.37292  0.90029  0.46905  1.0000
  C   C1995     1.0  0.35836  0.83849  0.38508  1.0000
  C   C1996     1.0  0.37659  0.92056  0.03467  1.0000
  C   C1997     1.0  0.44364  0.92952  0.15448  1.0000
  C   C1998     1.0  0.39739  0.91148  0.48286  1.0000
  H   H1611     1.0  0.32533  0.85381  0.37354  1.0000
  C   C1999     1.0  0.21789  0.80093  0.08116  1.0000
  C   C2000     1.0  0.42251  0.87260  0.12264  1.0000
  C   C2001     1.0  0.35639  0.83445  0.22573  1.0000
  H   H1612     1.0  0.31774  0.85501  0.27144  1.0000
  C   C2002     1.0  0.32359  0.85411  0.32156  1.0000
  H   H1613     1.0  0.42813  0.89812  0.13205  1.0000
  H   H1614     1.0  0.38111  0.84612  0.40707  1.0000
  H   H1615     1.0  0.38869  0.94060  0.22611  1.0000
  C   C2003     1.0  0.43626  0.94877  0.12487  1.0000
  C   C2004     1.0  0.40444  0.87109  0.02781  1.0000
  H   H1616     1.0  0.44463  0.95286  0.07566  1.0000
  C   C2005     1.0  0.42846  0.94951  0.26858  1.0000
  C   C2006     1.0  0.41212  0.91022  0.48018  1.0000
  C   C2007     1.0  0.37150  0.86718  0.34897  1.0000
  H   H1617     1.0  0.22363  0.80239  0.10422  1.0000
  H   H1618     1.0  0.42512  0.89620  0.46112  1.0000
  C   C2008     1.0  0.30135  0.84672  0.35925  1.0000
  C   C2009     1.0  0.35624  0.91625  0.29948  1.0000
  C   C2010     1.0  0.34139  0.82793  0.24003  1.0000
  C   C2011     1.0  0.35568  0.85678  0.34461  1.0000
  C   C2012     1.0  0.38199  0.90838  0.02441  1.0000
  C   C2013     1.0  0.36765  0.84901  0.23787  1.0000
  C   C2014     1.0  0.38618  0.88664  0.44979  1.0000
  S   S269      1.0  0.21425  0.79637  0.19303  1.0000
  C   C2015     1.0  0.44932  0.89283  0.12683  1.0000
  S   S270      1.0  0.44483  0.87816  0.43854  1.0000
  C   C2016     1.0  0.34929  0.88875  0.27706  1.0000
  H   H1619     1.0  0.37698  0.87803  0.33439  1.0000
  H   H1620     1.0  0.37614  0.87747  0.43812  1.0000
  H   H1621     1.0  0.33740  0.83349  0.35798  1.0000
  P   P65       1.0  0.44681  0.95289  0.28823  1.0000
  H   H1622     1.0  0.35818  0.92909  0.29634  1.0000
  C   C2017     1.0  0.45496  0.88029  0.12043  1.0000
  H   H1623     1.0  0.40244  0.87558  0.43354  1.0000
  H   H1624     1.0  0.27855  0.84060  0.33816  1.0000
  H   H1625     1.0  0.21424  0.91207  0.31180  1.0000
  H   H1626     1.0  0.44416  0.90251  0.22897  1.0000
  H   H1627     1.0  0.28918  0.84586  0.28217  1.0000
  C   C2018     1.0  0.35468  0.89377  0.33397  1.0000
  H   H1628     1.0  0.34569  0.88042  0.25653  1.0000
  H   H1629     1.0  0.43039  0.93092  0.39784  1.0000
  C   C2019     1.0  0.43815  0.94076  0.35055  1.0000
  C   C2020     1.0  0.31756  0.85169  0.35331  1.0000
  C   C2021     1.0  0.29709  0.84740  0.30205  1.0000
  H   H1630     1.0  0.43781  0.92698  0.23778  1.0000
  C   C2022     1.0  0.37400  0.84910  0.38977  1.0000
  C   C2023     1.0  0.41869  0.87761  0.00998  1.0000
  C   C2024     1.0  0.33766  0.83599  0.26649  1.0000
  C   C2025     1.0  0.41381  0.89728  0.46246  1.0000
  C   C2026     1.0  0.38059  0.86339  0.37155  1.0000
  C   C2027     1.0  0.35199  0.90537  0.27314  1.0000
  C   C2028     1.0  0.40342  0.96122  0.48493  1.0000
  C   C2029     1.0  0.39411  0.94066  0.44238  1.0000
  C   C2030     1.0  0.43429  0.95668  0.39588  1.0000
  H   H1631     1.0  0.43513  0.91417  0.04977  1.0000
  H   H1632     1.0  0.21297  0.82265  0.08802  1.0000
  H   H1633     1.0  0.39285  0.87140  0.37444  1.0000
  S   S271      1.0  0.21289  0.83004  0.16402  1.0000
  C   C2031     1.0  0.34928  0.84218  0.36226  1.0000
  C   C2032     1.0  0.39626  0.95311  0.42013  1.0000
  H   H1634     1.0  0.44780  0.87227  0.03800  1.0000
  H   H1635     1.0  0.37647  0.94446  0.02516  1.0000
  C   C2033     1.0  0.43553  0.94004  0.15295  1.0000
  H   H1636     1.0  0.39350  0.94995  0.39502  1.0000
  C   C2034     1.0  0.21271  0.83995  0.00530  1.0000
  C   C2035     1.0  0.39782  0.94464  0.47496  1.0000
  S   S272      1.0  0.45493  0.91802  0.43334  1.0000
  C   C2036     1.0  0.44582  0.92480  0.25400  1.0000
  H   H1637     1.0  0.43908  0.96290  0.22508  1.0000
  C   C2037     1.0  0.21168  0.81238  0.07191  1.0000
  H   H1638     1.0  0.44886  0.85445  0.10999  1.0000
  C   C2038     1.0  0.45247  0.92757  0.12771  1.0000
  C   C2039     1.0  0.38030  0.93482  0.01662  1.0000
  C   C2040     1.0  0.24616  0.80422  0.00076  1.0000
  C   C2041     1.0  0.44946  0.91089  0.24881  1.0000
  C   C2042     1.0  0.44326  0.96965  0.34410  1.0000
  H   H1639     1.0  0.42233  0.91895  0.49198  1.0000
  C   C2043     1.0  0.45563  0.86700  0.02677  1.0000
  H   H1640     1.0  0.25100  0.86651  0.01210  1.0000
  C   C2044     1.0  0.21643  0.78750  0.06104  1.0000
  H   H1641     1.0  0.41374  0.95811  0.19960  1.0000
  H   H1642     1.0  0.25297  0.80722  0.02263  1.0000
  C   C2045     1.0  0.40409  0.97105  0.12697  1.0000
  C   C2046     1.0  0.40201  0.96959  0.43025  1.0000
  C   C2047     1.0  0.20895  0.78563  0.03147  1.0000
  S   S273      1.0  0.44830  0.90187  0.99754  1.0000
  H   H1643     1.0  0.24601  0.77970  0.99669  1.0000
  C   C2048     1.0  0.42978  0.89940  0.54214  1.0000
  S   S274      1.0  0.22206  0.83246  0.73298  1.0000
  H   H1644     1.0  0.26800  0.79999  0.85229  1.0000
  H   H1645     1.0  0.37069  0.94279  0.50906  1.0000
  H   H1646     1.0  0.44660  0.90637  0.61459  1.0000
  Fe  Fe140     1.0  0.22952  0.82239  0.68806  1.0000
  S   S275      1.0  0.25546  0.82628  0.67684  1.0000
  C   C2049     1.0  0.44328  0.95572  0.68229  1.0000
  Fe  Fe141     1.0  0.37812  0.92663  0.66589  1.0000
  S   S276      1.0  0.36121  0.90720  0.63413  1.0000
  S   S277      1.0  0.38847  0.95455  0.66410  1.0000
  Fe  Fe142     1.0  0.37992  0.90179  0.71500  1.0000
  S   S278      1.0  0.36308  0.88002  0.68690  1.0000
  S   S279      1.0  0.38924  0.90467  0.76660  1.0000
  Fe  Fe143     1.0  0.37696  0.89337  0.64281  1.0000
  S   S280      1.0  0.38286  0.87992  0.59989  1.0000
  Fe  Fe144     1.0  0.34821  0.89496  0.67949  1.0000
  S   S281      1.0  0.32152  0.88830  0.68845  1.0000
  S   S282      1.0  0.39475  0.91371  0.67158  1.0000
  S   S283      1.0  0.36411  0.91579  0.71048  1.0000
  C   C2050     1.0  0.41796  0.88694  0.92787  1.0000
  H   H1647     1.0  0.43711  0.94420  0.80672  1.0000
  S   S284      1.0  0.44283  0.88526  0.82738  1.0000
  C   C2051     1.0  0.40097  0.88771  0.57783  1.0000
  C   C2052     1.0  0.40346  0.87865  0.55136  1.0000
  P   P66       1.0  0.30555  0.83849  0.78308  1.0000
  H   H1648     1.0  0.33905  0.85031  0.79933  1.0000
  C   C2053     1.0  0.42713  0.90856  0.56817  1.0000
  C   C2054     1.0  0.41292  0.90266  0.58622  1.0000
  C   C2055     1.0  0.36979  0.90647  0.53831  1.0000
  H   H1649     1.0  0.25812  0.80209  0.79804  1.0000
  C   C2056     1.0  0.45058  0.96541  0.83571  1.0000
  H   H1650     1.0  0.41121  0.90964  0.60669  1.0000
  C   C2057     1.0  0.40499  0.90020  0.78208  1.0000
  C   C2058     1.0  0.41026  0.90568  0.81345  1.0000
  C   C2059     1.0  0.42212  0.90163  0.82743  1.0000
  C   C2060     1.0  0.42870  0.89185  0.81032  1.0000
  C   C2061     1.0  0.42365  0.88667  0.77875  1.0000
  C   C2062     1.0  0.41196  0.89092  0.76458  1.0000
  H   H1651     1.0  0.40494  0.91286  0.82721  1.0000
  H   H1652     1.0  0.42592  0.90574  0.85168  1.0000
  H   H1653     1.0  0.42863  0.87908  0.76529  1.0000
  H   H1654     1.0  0.40803  0.88661  0.74047  1.0000
  C   C2063     1.0  0.30327  0.87102  0.68348  1.0000
  C   C2064     1.0  0.30248  0.85568  0.67170  1.0000
  C   C2065     1.0  0.28774  0.84237  0.66891  1.0000
  C   C2066     1.0  0.27354  0.84407  0.67794  1.0000
  C   C2067     1.0  0.27431  0.85951  0.68914  1.0000
  C   C2068     1.0  0.28905  0.87280  0.69204  1.0000
  H   H1655     1.0  0.31321  0.85405  0.66478  1.0000
  H   H1656     1.0  0.28734  0.83061  0.65980  1.0000
  H   H1657     1.0  0.26358  0.86117  0.69601  1.0000
  H   H1658     1.0  0.28943  0.88458  0.70104  1.0000
  H   H1659     1.0  0.26035  0.84012  0.84911  1.0000
  C   C2069     1.0  0.39413  0.96577  0.62815  1.0000
  Fe  Fe145     1.0  0.45713  0.89637  0.94853  1.0000
  H   H1660     1.0  0.44061  0.95676  0.60139  1.0000
  C   C2070     1.0  0.38704  0.95938  0.59879  1.0000
  S   S285      1.0  0.45281  0.87455  0.91506  1.0000
  C   C2071     1.0  0.42975  0.95210  0.97994  1.0000
  H   H1661     1.0  0.37811  0.94703  0.59760  1.0000
  C   C2072     1.0  0.38015  0.94104  0.88077  1.0000
  C   C2073     1.0  0.39005  0.94644  0.85374  1.0000
  C   C2074     1.0  0.40535  0.94677  0.85410  1.0000
  C   C2075     1.0  0.41082  0.94185  0.88158  1.0000
  C   C2076     1.0  0.40103  0.93665  0.90907  1.0000
  C   C2077     1.0  0.38551  0.93593  0.90816  1.0000
  P   P67       1.0  0.40745  0.92784  0.94208  1.0000
  C   C2078     1.0  0.40732  0.90829  0.92727  1.0000
  C   C2079     1.0  0.42723  0.94130  0.95325  1.0000
  C   C2080     1.0  0.24219  0.78870  0.98620  1.0000
  C   C2081     1.0  0.40955  0.93698  0.53507  1.0000
  C   C2082     1.0  0.22340  0.85252  0.95385  1.0000
  S   S286      1.0  0.21080  0.79656  0.69522  1.0000
  C   C2083     1.0  0.44035  0.94051  0.93630  1.0000
  C   C2084     1.0  0.41739  0.90158  0.94045  1.0000
  H   H1662     1.0  0.42596  0.88203  0.93789  1.0000
  C   C2085     1.0  0.39801  0.88514  0.88951  1.0000
  C   C2086     1.0  0.39741  0.89980  0.90201  1.0000
  H   H1663     1.0  0.45664  0.91118  0.70714  1.0000
  C   C2087     1.0  0.23781  0.86152  0.96820  1.0000
  C   C2088     1.0  0.26542  0.84070  0.82510  1.0000
  H   H1664     1.0  0.42899  0.94800  0.50142  1.0000
  C   C2089     1.0  0.25039  0.79997  0.81907  1.0000
  H   H1665     1.0  0.30006  0.80328  0.78854  1.0000
  H   H1666     1.0  0.36813  0.94037  0.88013  1.0000
  H   H1667     1.0  0.38574  0.94997  0.83219  1.0000
  H   H1668     1.0  0.41281  0.95041  0.83271  1.0000
  H   H1669     1.0  0.42252  0.94164  0.88097  1.0000
  H   H1670     1.0  0.37732  0.93092  0.92803  1.0000
  P   P68       1.0  0.39507  0.92865  0.50396  1.0000
  C   C2090     1.0  0.39111  0.91042  0.99611  1.0000
  H   H1671     1.0  0.40922  0.86770  0.89192  1.0000
  H   H1672     1.0  0.43879  0.93257  0.91528  1.0000
  H   H1673     1.0  0.42492  0.90776  0.96025  1.0000
  H   H1674     1.0  0.38938  0.90454  0.89147  1.0000
  C   C2091     1.0  0.41872  0.94944  0.71213  1.0000
  H   H1675     1.0  0.39431  0.86702  0.54475  1.0000
  C   C2092     1.0  0.43646  0.95328  0.55034  1.0000
  H   H1676     1.0  0.45190  0.92749  0.82389  1.0000
  C   C2093     1.0  0.42834  0.95637  0.68537  1.0000
  H   H1677     1.0  0.24746  0.86997  0.95395  1.0000
  H   H1678     1.0  0.36062  0.87773  0.79648  1.0000
  C   C2094     1.0  0.39479  0.92466  0.97759  1.0000
  H   H1679     1.0  0.32885  0.89796  0.75928  1.0000
  C   C2095     1.0  0.38936  0.93689  0.98821  1.0000
  C   C2096     1.0  0.28676  0.84035  0.78951  1.0000
  C   C2097     1.0  0.41785  0.88438  0.53375  1.0000
  C   C2098     1.0  0.22484  0.79591  0.84262  1.0000
  C   C2099     1.0  0.37560  0.92152  0.52202  1.0000
  H   H1680     1.0  0.32069  0.83053  0.89310  1.0000
  C   C2100     1.0  0.40509  0.93531  0.56789  1.0000
  H   H1681     1.0  0.35555  0.90157  0.77717  1.0000
  H   H1682     1.0  0.40702  0.94965  0.71425  1.0000
  C   C2101     1.0  0.30857  0.82646  0.81513  1.0000
  C   C2102     1.0  0.41624  0.94261  0.59165  1.0000
  C   C2103     1.0  0.30583  0.82852  0.74453  1.0000
  H   H1683     1.0  0.25702  0.84374  0.74670  1.0000
  H   H1684     1.0  0.24538  0.84237  0.80163  1.0000
  H   H1685     1.0  0.33005  0.84394  0.73196  1.0000
  H   H1686     1.0  0.39073  0.87892  0.86934  1.0000
  C   C2104     1.0  0.31234  0.80775  0.86591  1.0000
  C   C2105     1.0  0.43895  0.94124  0.73296  1.0000
  C   C2106     1.0  0.35492  0.90098  0.55326  1.0000
  C   C2107     1.0  0.34583  0.91057  0.55250  1.0000
  H   H1687     1.0  0.44854  0.96027  0.54335  1.0000
  H   H1688     1.0  0.28649  0.83872  0.84163  1.0000
  C   C2108     1.0  0.28025  0.83985  0.82070  1.0000
  C   C2109     1.0  0.29240  0.80782  0.70394  1.0000
  C   C2110     1.0  0.45561  0.94947  0.94713  1.0000
  H   H1689     1.0  0.35068  0.88948  0.56628  1.0000
  H   H1690     1.0  0.33447  0.90645  0.56486  1.0000
  H   H1691     1.0  0.43619  0.92026  0.57463  1.0000
  H   H1692     1.0  0.40623  0.96467  0.50993  1.0000
  C   C2111     1.0  0.30602  0.81310  0.68453  1.0000
  H   H1693     1.0  0.30358  0.78705  0.83305  1.0000
  C   C2112     1.0  0.42397  0.94179  0.73575  1.0000
  H   H1694     1.0  0.28332  0.84291  0.73894  1.0000
  C   C2113     1.0  0.27838  0.84212  0.76307  1.0000
  C   C2114     1.0  0.26350  0.84274  0.76747  1.0000
  H   H1695     1.0  0.41262  0.94130  0.61686  1.0000
  C   C2115     1.0  0.34594  0.88966  0.77902  1.0000
  C   C2116     1.0  0.29229  0.81546  0.73384  1.0000
  H   H1696     1.0  0.28176  0.79812  0.69541  1.0000
  C   C2117     1.0  0.24126  0.81584  0.98723  1.0000
  C   C2118     1.0  0.33087  0.88766  0.76929  1.0000
  C   C2119     1.0  0.30457  0.80944  0.81114  1.0000
  C   C2120     1.0  0.31855  0.87220  0.77089  1.0000
  C   C2121     1.0  0.25698  0.84199  0.79844  1.0000
  C   C2122     1.0  0.31422  0.83395  0.84502  1.0000
  H   H1697     1.0  0.44425  0.97269  0.82743  1.0000
  C   C2123     1.0  0.31616  0.82464  0.87023  1.0000
  C   C2124     1.0  0.45674  0.91684  0.62273  1.0000
  H   H1698     1.0  0.28154  0.81134  0.74828  1.0000
  H   H1699     1.0  0.31395  0.80055  0.88540  1.0000
  H   H1700     1.0  0.38548  0.96434  0.54860  1.0000
  C   C2125     1.0  0.23485  0.79856  0.81560  1.0000
  C   C2126     1.0  0.30652  0.80015  0.83642  1.0000
  H   H1701     1.0  0.30713  0.87084  0.76201  1.0000
  H   H1702     1.0  0.31713  0.84702  0.84883  1.0000
  C   C2127     1.0  0.34877  0.87618  0.79006  1.0000
  C   C2128     1.0  0.44659  0.94935  0.82365  1.0000
  C   C2129     1.0  0.40842  0.87881  0.90220  1.0000
  C   C2130     1.0  0.31955  0.82605  0.69497  1.0000
  H   H1703     1.0  0.42007  0.95354  0.99303  1.0000
  C   C2131     1.0  0.42531  0.94620  0.52653  1.0000
  P   P69       1.0  0.21698  0.79133  0.90803  1.0000
  C   C2132     1.0  0.23323  0.78475  0.95823  1.0000
  C   C2133     1.0  0.22804  0.79628  0.94480  1.0000
  C   C2134     1.0  0.23231  0.81194  0.95924  1.0000
  H   H1704     1.0  0.41975  0.87708  0.51399  1.0000
  C   C2135     1.0  0.23023  0.79474  0.87343  1.0000
  C   C2136     1.0  0.43196  0.95140  0.58291  1.0000
  C   C2137     1.0  0.45790  0.95960  0.97451  1.0000
  C   C2138     1.0  0.32122  0.85865  0.78256  1.0000
  C   C2139     1.0  0.33649  0.86071  0.79172  1.0000
  H   H1705     1.0  0.30600  0.80741  0.66107  1.0000
  C   C2140     1.0  0.44500  0.96119  0.99047  1.0000
  C   C2141     1.0  0.24590  0.79623  0.87678  1.0000
  H   H1706     1.0  0.34458  0.93311  0.53622  1.0000
  H   H1707     1.0  0.39305  0.92846  0.57551  1.0000
  C   C2142     1.0  0.36638  0.93105  0.52109  1.0000
  H   H1708     1.0  0.23047  0.79950  0.79196  1.0000
  C   C2143     1.0  0.35155  0.92559  0.53640  1.0000
  S   S287      1.0  0.44845  0.90698  0.52208  1.0000
  H   H1709     1.0  0.45054  0.96099  0.66124  1.0000
  C   C2144     1.0  0.44879  0.94835  0.70631  1.0000
  C   C2145     1.0  0.31948  0.83375  0.72481  1.0000
  H   H1710     1.0  0.43262  0.97491  0.87816  1.0000
  H   H1711     1.0  0.41624  0.93594  0.75588  1.0000
  Fe  Fe146     1.0  0.45630  0.89241  0.87448  1.0000
  H   H1712     1.0  0.33003  0.83039  0.67962  1.0000
  H   H1713     1.0  0.23035  0.77270  0.94708  1.0000
  H   H1714     1.0  0.22875  0.82116  0.94899  1.0000
  H   H1715     1.0  0.42104  0.87049  0.99047  1.0000
  H   H1716     1.0  0.25043  0.79535  0.90016  1.0000
  C   C2146     1.0  0.25593  0.79884  0.84965  1.0000
  H   H1717     1.0  0.22241  0.82262  0.87543  1.0000
  S   S288      1.0  0.21431  0.82994  0.65494  1.0000
  C   C2147     1.0  0.45569  0.92528  0.65106  1.0000
  H   H1718     1.0  0.37691  0.89912  0.54015  1.0000
  H   H1719     1.0  0.44260  0.93499  0.75137  1.0000
  H   H1720     1.0  0.42403  0.96204  0.66687  1.0000
  H   H1721     1.0  0.39542  0.90093  0.98924  1.0000
  H   H1722     1.0  0.39249  0.94824  0.97506  1.0000
  H   H1723     1.0  0.44047  0.85671  0.98651  1.0000
  H   H1724     1.0  0.27944  0.97096  0.78193  1.0000
  H   H1725     1.0  0.22190  0.85396  0.92842  1.0000
  C   C2148     1.0  0.21104  0.81855  0.88765  1.0000
  H   H1726     1.0  0.44457  0.92124  0.66434  1.0000
  H   H1727     1.0  0.41267  0.97296  0.92037  1.0000
  C   C2149     1.0  0.45487  0.93989  0.83338  1.0000
  C   C2150     1.0  0.21092  0.84166  0.97225  1.0000
  H   H1728     1.0  0.21281  0.79471  0.83949  1.0000
  C   C2151     1.0  0.39122  0.96918  0.57108  1.0000
  Fe  Fe147     1.0  0.68389  0.12446  0.26934  1.0000
  C   C2152     1.0  0.59288  0.06214  0.20933  1.0000
  S   S289      1.0  0.65722  0.11914  0.27210  1.0000
  C   C2153     1.0  0.56988  0.05472  0.17596  1.0000
  H   H1729     1.0  0.68861  0.21654  0.33494  1.0000
  Fe  Fe148     1.0  0.56588  0.04946  0.29825  1.0000
  S   S290      1.0  0.55153  0.03038  0.26231  1.0000
  S   S291      1.0  0.59283  0.05611  0.29629  1.0000
  Fe  Fe149     1.0  0.53569  0.05067  0.32954  1.0000
  S   S292      1.0  0.51935  0.03213  0.29521  1.0000
  S   S293      1.0  0.52740  0.06538  0.36625  1.0000
  Fe  Fe150     1.0  0.53490  0.01813  0.30283  1.0000
  S   S294      1.0  0.52378  0.99025  0.29859  1.0000
  Fe  Fe151     1.0  0.53680  0.04537  0.25662  1.0000
  S   S295      1.0  0.53111  0.04872  0.20471  1.0000
  S   S296      1.0  0.55022  0.03574  0.33997  1.0000
  S   S297      1.0  0.55208  0.06531  0.28995  1.0000
  Fe  Fe152     1.0  0.46827  0.04421  0.02989  1.0000
  H   H1730     1.0  0.48722  0.98625  0.37928  1.0000
  C   C2154     1.0  0.65540  0.19663  0.39861  1.0000
  H   H1731     1.0  0.50130  0.98512  0.25010  1.0000
  C   C2155     1.0  0.51309  0.97970  0.02153  1.0000
  S   S298      1.0  0.46480  0.02429  0.06579  1.0000
  H   H1732     1.0  0.46882  0.00903  0.24252  1.0000
  H   H1733     1.0  0.46954  0.99502  0.41447  1.0000
  C   C2156     1.0  0.57974  0.11353  0.20456  1.0000
  H   H1734     1.0  0.52561  0.99801  0.36720  1.0000
  C   C2157     1.0  0.57984  0.09058  0.14333  1.0000
  C   C2158     1.0  0.51356  0.05621  0.39760  1.0000
  C   C2159     1.0  0.50762  0.06603  0.41674  1.0000
  C   C2160     1.0  0.49619  0.05900  0.44120  1.0000
  C   C2161     1.0  0.49064  0.04206  0.44661  1.0000
  C   C2162     1.0  0.49716  0.03245  0.42852  1.0000
  C   C2163     1.0  0.50836  0.03939  0.40379  1.0000
  H   H1735     1.0  0.51170  0.07909  0.41227  1.0000
  H   H1736     1.0  0.64924  0.21762  0.39147  1.0000
  H   H1737     1.0  0.49339  0.01949  0.43349  1.0000
  H   H1738     1.0  0.51299  0.03173  0.38956  1.0000
  C   C2164     1.0  0.51220  0.04641  0.19140  1.0000
  C   C2165     1.0  0.50997  0.04744  0.15825  1.0000
  C   C2166     1.0  0.49518  0.04578  0.14652  1.0000
  C   C2167     1.0  0.48251  0.04328  0.16794  1.0000
  C   C2168     1.0  0.48472  0.04220  0.20112  1.0000
  C   C2169     1.0  0.49946  0.04363  0.21282  1.0000
  H   H1739     1.0  0.51977  0.04969  0.14158  1.0000
  H   H1740     1.0  0.49363  0.04668  0.12097  1.0000
  H   H1741     1.0  0.47504  0.04044  0.21785  1.0000
  H   H1742     1.0  0.50104  0.04292  0.23842  1.0000
  C   C2170     1.0  0.63957  0.10138  0.27926  1.0000
  C   C2171     1.0  0.63934  0.08537  0.27993  1.0000
  C   C2172     1.0  0.62498  0.07176  0.28513  1.0000
  C   C2173     1.0  0.61062  0.07389  0.28999  1.0000
  C   C2174     1.0  0.61093  0.08993  0.28983  1.0000
  C   C2175     1.0  0.62523  0.10351  0.28418  1.0000
  H   H1743     1.0  0.65019  0.08344  0.27619  1.0000
  H   H1744     1.0  0.62500  0.05948  0.28539  1.0000
  H   H1745     1.0  0.60022  0.09192  0.29469  1.0000
  H   H1746     1.0  0.62519  0.11579  0.28393  1.0000
  H   H1747     1.0  0.49587  0.04604  0.33316  1.0000
  C   C2176     1.0  0.48166  0.06983  0.27192  1.0000
  C   C2177     1.0  0.57564  0.12244  0.22901  1.0000
  C   C2178     1.0  0.58215  0.09913  0.21180  1.0000
  H   H1748     1.0  0.57588  0.09916  0.29315  1.0000
  H   H1749     1.0  0.70545  0.15537  0.48581  1.0000
  C   C2179     1.0  0.63462  0.09544  0.16045  1.0000
  C   C2180     1.0  0.46233  0.30471  0.15832  1.0000
  H   H1750     1.0  0.49548  0.00900  0.23337  1.0000
  C   C2181     1.0  0.61856  0.11093  0.19831  1.0000
  C   C2182     1.0  0.48238  0.99479  0.37041  1.0000
  H   H1751     1.0  0.48329  0.08018  0.01297  1.0000
  C   C2183     1.0  0.51417  0.98987  0.04856  1.0000
  C   C2184     1.0  0.66556  0.18876  0.38963  1.0000
  H   H1752     1.0  0.70642  0.11999  0.41382  1.0000
  H   H1753     1.0  0.49148  0.06661  0.45531  1.0000
  C   C2185     1.0  0.47125  0.99850  0.24973  1.0000
  C   C2186     1.0  0.69931  0.00649  0.25586  1.0000
  C   C2187     1.0  0.49167  0.05224  0.31555  1.0000
  C   C2188     1.0  0.48629  0.99848  0.24437  1.0000
  C   C2189     1.0  0.47720  0.08670  0.00075  1.0000
  C   C2190     1.0  0.57684  0.10309  0.26833  1.0000
  C   C2191     1.0  0.69815  0.01483  0.19158  1.0000
  H   H1754     1.0  0.47405  0.98689  0.07284  1.0000
  H   H1755     1.0  0.67051  0.23024  0.35075  1.0000
  C   C2192     1.0  0.57633  0.03344  0.20066  1.0000
  C   C2193     1.0  0.58066  0.09396  0.24383  1.0000
  H   H1756     1.0  0.57351  0.02057  0.20559  1.0000
  C   C2194     1.0  0.56561  0.09392  0.08624  1.0000
  C   C2195     1.0  0.57421  0.11722  0.26091  1.0000
  C   C2196     1.0  0.56363  0.08730  0.14294  1.0000
  C   C2197     1.0  0.60999  0.09741  0.17855  1.0000
  H   H1757     1.0  0.61271  0.11688  0.21400  1.0000
  C   C2198     1.0  0.68716  0.19010  0.28996  1.0000
  H   H1758     1.0  0.55642  0.08342  0.16470  1.0000
  C   C2199     1.0  0.55656  0.08893  0.11451  1.0000
  C   C2200     1.0  0.68948  0.15391  0.36369  1.0000
  C   C2201     1.0  0.51530  0.97833  0.33280  1.0000
  H   H1759     1.0  0.68402  0.19230  0.23915  1.0000
  C   C2202     1.0  0.68658  0.00994  0.24540  1.0000
  C   C2203     1.0  0.45951  0.98510  0.26468  1.0000
  H   H1760     1.0  0.47780  0.07669  0.25506  1.0000
  H   H1761     1.0  0.47009  0.30486  0.10886  1.0000
  H   H1762     1.0  0.64622  0.19121  0.41666  1.0000
  C   C2204     1.0  0.49774  0.07386  0.27621  1.0000
  C   C2205     1.0  0.58323  0.06692  0.18955  1.0000
  C   C2206     1.0  0.67738  0.19563  0.36605  1.0000
  H   H1763     1.0  0.56191  0.05788  0.16143  1.0000
  C   C2207     1.0  0.56646  0.03806  0.18153  1.0000
  C   C2208     1.0  0.48007  0.01216  0.32801  1.0000
  S   S299      1.0  0.69750  0.12352  0.22355  1.0000
  H   H1764     1.0  0.59679  0.04199  0.23067  1.0000
  P   P70       1.0  0.58868  0.08847  0.18054  1.0000
  H   H1765     1.0  0.54403  0.08635  0.11450  1.0000
  C   C2209     1.0  0.68224  0.13673  0.36225  1.0000
  C   C2210     1.0  0.66654  0.12917  0.35310  1.0000
  C   C2211     1.0  0.65807  0.13878  0.34548  1.0000
  C   C2212     1.0  0.66526  0.15596  0.34700  1.0000
  C   C2213     1.0  0.68095  0.16365  0.35681  1.0000
  H   H1766     1.0  0.47201  0.12298  0.00397  1.0000
  C   C2214     1.0  0.50272  0.06523  0.29836  1.0000
  C   C2215     1.0  0.58175  0.09721  0.08641  1.0000
  C   C2216     1.0  0.64300  0.10880  0.18037  1.0000
  H   H1767     1.0  0.69611  0.17447  0.41842  1.0000
  H   H1768     1.0  0.67714  0.00935  0.26215  1.0000
  C   C2217     1.0  0.46620  0.01083  0.37892  1.0000
  H   H1769     1.0  0.65571  0.11297  0.18186  1.0000
  C   C2218     1.0  0.70654  0.19384  0.38357  1.0000
  H   H1770     1.0  0.49417  0.99741  0.32416  1.0000
  H   H1771     1.0  0.46233  0.29263  0.16308  1.0000
  H   H1772     1.0  0.61179  0.07898  0.14496  1.0000
  H   H1773     1.0  0.66423  0.17735  0.40116  1.0000
  H   H1774     1.0  0.66112  0.11588  0.35050  1.0000
  H   H1775     1.0  0.64614  0.13285  0.33688  1.0000
  H   H1776     1.0  0.65871  0.16318  0.33957  1.0000
  S   S300      1.0  0.46378  0.04150  0.15434  1.0000
  C   C2219     1.0  0.58945  0.04548  0.21474  1.0000
  C   C2220     1.0  0.58887  0.09557  0.11483  1.0000
  S   S301      1.0  0.49150  0.05174  0.00134  1.0000
  C   C2221     1.0  0.47238  0.99969  0.39017  1.0000
  H   H1777     1.0  0.51519  0.06866  0.30244  1.0000
  C   C2222     1.0  0.50332  0.98438  0.07444  1.0000
  C   C2223     1.0  0.63498  0.11656  0.19914  1.0000
  H   H1778     1.0  0.68899  0.12929  0.36691  1.0000
  C   C2224     1.0  0.47011  0.01727  0.34775  1.0000
  H   H1779     1.0  0.56014  0.09529  0.06424  1.0000
  C   C2225     1.0  0.65711  0.21151  0.38445  1.0000
  C   C2226     1.0  0.47550  0.04759  0.31025  1.0000
  H   H1780     1.0  0.70050  0.14424  0.43013  1.0000
  H   H1781     1.0  0.60139  0.09837  0.11445  1.0000
  P   P71       1.0  0.50391  0.99801  0.10834  1.0000
  C   C2227     1.0  0.51259  0.99325  0.14344  1.0000
  C   C2228     1.0  0.51507  0.01889  0.09581  1.0000
  C   C2229     1.0  0.53131  0.02646  0.10154  1.0000
  C   C2230     1.0  0.53997  0.04234  0.09034  1.0000
  C   C2231     1.0  0.53254  0.05065  0.07289  1.0000
  C   C2232     1.0  0.51646  0.04313  0.06680  1.0000
  C   C2233     1.0  0.50777  0.02731  0.07808  1.0000
  C   C2234     1.0  0.51849  0.00513  0.16806  1.0000
  C   C2235     1.0  0.52447  0.00134  0.19603  1.0000
  H   H1782     1.0  0.57109  0.12413  0.27996  1.0000
  H   H1783     1.0  0.51575  0.98006  0.41480  1.0000
  S   S302      1.0  0.47489  0.03193  0.47383  1.0000
  C   C2236     1.0  0.48422  0.99655  0.11929  1.0000
  C   C2237     1.0  0.48108  0.00213  0.14971  1.0000
  H   H1784     1.0  0.58121  0.11799  0.18010  1.0000
  C   C2238     1.0  0.48624  0.00105  0.33934  1.0000
  H   H1785     1.0  0.48562  0.10782  0.03255  1.0000
  C   C2239     1.0  0.47195  0.99039  0.09713  1.0000
  C   C2240     1.0  0.46591  0.00118  0.15799  1.0000
  H   H1786     1.0  0.55593  0.02878  0.17166  1.0000
  H   H1787     1.0  0.60302  0.07126  0.22087  1.0000
  H   H1788     1.0  0.50635  0.08379  0.26268  1.0000
  H   H1789     1.0  0.69735  0.01773  0.16661  1.0000
  H   H1790     1.0  0.53734  0.02010  0.11439  1.0000
  H   H1791     1.0  0.55244  0.04822  0.09510  1.0000
  H   H1792     1.0  0.53921  0.06287  0.06389  1.0000
  H   H1793     1.0  0.51070  0.04955  0.05322  1.0000
  H   H1794     1.0  0.49538  0.02165  0.07272  1.0000
  H   H1795     1.0  0.51835  0.01733  0.16587  1.0000
  H   H1796     1.0  0.52876  0.01057  0.21502  1.0000
  C   C2241     1.0  0.66907  0.21860  0.36146  1.0000
  C   C2242     1.0  0.47057  0.05695  0.28933  1.0000
  C   C2243     1.0  0.55889  0.98150  0.40447  1.0000
  S   S303      1.0  0.46279  0.06103  0.06634  1.0000
  H   H1797     1.0  0.52334  0.00209  0.04881  1.0000
  C   C2244     1.0  0.48956  0.98501  0.25375  1.0000
  H   H1798     1.0  0.49033  0.00775  0.16682  1.0000
  S   S304      1.0  0.70050  0.15042  0.28187  1.0000
  H   H1799     1.0  0.47449  0.04705  0.39144  1.0000
  S   S305      1.0  0.69711  0.11353  0.30012  1.0000
  H   H1800     1.0  0.58877  0.10114  0.06450  1.0000
  H   H1801     1.0  0.46372  0.00611  0.18090  1.0000
  H   H1802     1.0  0.56607  0.99377  0.41297  1.0000
  H   H1803     1.0  0.57370  0.13347  0.22327  1.0000
  H   H1804     1.0  0.64151  0.12663  0.21524  1.0000
  C   C2245     1.0  0.61817  0.08971  0.15963  1.0000
  C   C2246     1.0  0.51841  0.98507  0.36388  1.0000
  P   P72       1.0  0.69077  0.18574  0.35511  1.0000
  H   H1805     1.0  0.64086  0.08929  0.14628  1.0000
  H   H1806     1.0  0.58259  0.08298  0.25000  1.0000
  H   H1807     1.0  0.48325  0.01698  0.30398  1.0000
  H   H1808     1.0  0.55475  0.98981  0.35831  1.0000
  C   C2247     1.0  0.68596  0.01401  0.21322  1.0000
  H   H1809     1.0  0.67502  0.18794  0.29607  1.0000
  C   C2248     1.0  0.67925  0.21075  0.35241  1.0000
  H   H1810     1.0  0.67602  0.01653  0.20503  1.0000
  C   C2249     1.0  0.47862  0.10235  0.01160  1.0000
  C   C2250     1.0  0.70506  0.13834  0.44770  1.0000
  H   H1811     1.0  0.69969  0.00311  0.28070  1.0000
  C   C2251     1.0  0.69218  0.19252  0.25768  1.0000
  C   C2252     1.0  0.70593  0.18576  0.41273  1.0000
  H   H1812     1.0  0.70187  0.15958  0.36911  1.0000
  C   C2253     1.0  0.52477  0.98572  0.19967  1.0000
  H   H1813     1.0  0.52938  0.98289  0.22159  1.0000
  C   C2254     1.0  0.55260  0.97928  0.37362  1.0000
  C   C2255     1.0  0.51293  0.97755  0.14720  1.0000
  H   H1814     1.0  0.52138  0.98407  0.00147  1.0000
  C   C2256     1.0  0.69765  0.19002  0.31391  1.0000
  H   H1815     1.0  0.46386  0.05894  0.43624  1.0000
  C   C2257     1.0  0.46268  0.04687  0.39003  1.0000
  P   P73       1.0  0.46113  0.03042  0.33145  1.0000
  C   C2258     1.0  0.70763  0.19467  0.24908  1.0000
  C   C2259     1.0  0.70798  0.14464  0.47918  1.0000
  H   H1816     1.0  0.70799  0.99583  0.11928  1.0000
  C   C2260     1.0  0.70841  0.12464  0.43845  1.0000
  Fe  Fe153     1.0  0.68069  0.12136  0.75205  1.0000
  C   C2261     1.0  0.65485  0.16101  0.72638  1.0000
  S   S306      1.0  0.65400  0.11472  0.74508  1.0000
  S   S307      1.0  0.69593  0.12139  0.70832  1.0000
  C   C2262     1.0  0.69353  0.13883  0.62429  1.0000
  Fe  Fe154     1.0  0.56054  0.05428  0.79542  1.0000
  S   S308      1.0  0.55109  0.03476  0.75686  1.0000
  S   S309      1.0  0.58737  0.06597  0.80537  1.0000
  Fe  Fe155     1.0  0.52665  0.04815  0.82055  1.0000
  S   S310      1.0  0.51554  0.02846  0.78287  1.0000
  S   S311      1.0  0.50753  0.05324  0.85028  1.0000
  Fe  Fe156     1.0  0.53436  0.01926  0.79445  1.0000
  S   S312      1.0  0.52889  0.99176  0.79179  1.0000
  Fe  Fe157     1.0  0.53289  0.04539  0.74815  1.0000
  S   S313      1.0  0.52813  0.04787  0.69517  1.0000
  S   S314      1.0  0.54465  0.03780  0.83420  1.0000
  S   S315      1.0  0.54315  0.06601  0.78460  1.0000
  C   C2263     1.0  0.66791  0.18476  0.84676  1.0000
  H   H1817     1.0  0.46857  0.98142  0.70200  1.0000
  H   H1818     1.0  0.48439  0.02510  0.56607  1.0000
  H   H1819     1.0  0.47736  0.98364  0.93531  1.0000
  C   C2264     1.0  0.48039  0.98201  0.70517  1.0000
  C   C2265     1.0  0.46209  0.10384  0.96824  1.0000
  C   C2266     1.0  0.67749  0.14546  0.84165  1.0000
  C   C2267     1.0  0.52081  0.98583  0.85629  1.0000
  H   H1820     1.0  0.46958  0.03645  0.77471  1.0000
  H   H1821     1.0  0.52548  0.99905  0.85963  1.0000
  H   H1822     1.0  0.58812  0.05342  0.63288  1.0000
  C   C2268     1.0  0.50314  0.05162  0.89244  1.0000
  C   C2269     1.0  0.51489  0.05505  0.91539  1.0000
  C   C2270     1.0  0.51102  0.05473  0.94856  1.0000
  C   C2271     1.0  0.49538  0.05088  0.95926  1.0000
  C   C2272     1.0  0.48357  0.04715  0.93635  1.0000
  C   C2273     1.0  0.48750  0.04780  0.90317  1.0000
  H   H1823     1.0  0.52702  0.05833  0.90757  1.0000
  H   H1824     1.0  0.52027  0.05771  0.96605  1.0000
  H   H1825     1.0  0.47147  0.04409  0.94410  1.0000
  H   H1826     1.0  0.47843  0.04564  0.88567  1.0000
  C   C2274     1.0  0.50982  0.04639  0.67961  1.0000
  C   C2275     1.0  0.50871  0.04859  0.64641  1.0000
  C   C2276     1.0  0.49434  0.04724  0.63294  1.0000
  C   C2277     1.0  0.48092  0.04380  0.65265  1.0000
  C   C2278     1.0  0.48205  0.04170  0.68592  1.0000
  C   C2279     1.0  0.49640  0.04295  0.69936  1.0000
  H   H1827     1.0  0.51908  0.05155  0.63103  1.0000
  H   H1828     1.0  0.49369  0.04914  0.60745  1.0000
  H   H1829     1.0  0.47175  0.03913  0.70137  1.0000
  H   H1830     1.0  0.49713  0.04138  0.72498  1.0000
  C   C2280     1.0  0.63563  0.10059  0.76154  1.0000
  C   C2281     1.0  0.63475  0.08939  0.78574  1.0000
  C   C2282     1.0  0.61994  0.07895  0.79861  1.0000
  C   C2283     1.0  0.60571  0.07920  0.78716  1.0000
  C   C2284     1.0  0.60660  0.09015  0.76245  1.0000
  C   C2285     1.0  0.62141  0.10077  0.74991  1.0000
  H   H1831     1.0  0.64548  0.08892  0.79483  1.0000
  H   H1832     1.0  0.61951  0.07057  0.81765  1.0000
  H   H1833     1.0  0.59590  0.09076  0.75352  1.0000
  H   H1834     1.0  0.62184  0.10930  0.73119  1.0000
  H   H1835     1.0  0.50223  0.99516  0.96504  1.0000
  H   H1836     1.0  0.46238  0.98888  0.55804  1.0000
  C   C2286     1.0  0.46325  0.99205  0.58349  1.0000
  H   H1837     1.0  0.69517  0.18308  0.75953  1.0000
  C   C2287     1.0  0.48827  0.08189  0.86683  1.0000
  H   H1838     1.0  0.51726  0.01077  0.71727  1.0000
  C   C2288     1.0  0.65045  0.17411  0.71942  1.0000
  C   C2289     1.0  0.65899  0.20344  0.89323  1.0000
  H   H1839     1.0  0.64974  0.19716  0.73636  1.0000
  H   H1840     1.0  0.61620  0.07493  0.67657  1.0000
  C   C2290     1.0  0.46054  0.08805  0.95729  1.0000
  C   C2291     1.0  0.53053  0.01284  0.64162  1.0000
  C   C2292     1.0  0.53310  0.99849  0.64741  1.0000
  H   H1841     1.0  0.53423  0.03740  0.50358  1.0000
  H   H1842     1.0  0.47989  0.01450  0.76501  1.0000
  C   C2293     1.0  0.49253  0.99749  0.70892  1.0000
  H   H1843     1.0  0.65278  0.15093  0.70923  1.0000
  S   S316      1.0  0.46611  0.06194  0.54642  1.0000
  C   C2294     1.0  0.70615  0.14328  0.60223  1.0000
  C   C2295     1.0  0.56837  0.07363  0.67388  1.0000
  H   H1844     1.0  0.64385  0.09200  0.68815  1.0000
  C   C2296     1.0  0.47849  0.08225  0.89297  1.0000
  H   H1845     1.0  0.64045  0.18052  0.90647  1.0000
  C   C2297     1.0  0.51916  0.01257  0.61963  1.0000
  H   H1846     1.0  0.66524  0.15049  0.76052  1.0000
  H   H1847     1.0  0.65561  0.21063  0.91132  1.0000
  C   C2298     1.0  0.65046  0.18649  0.89052  1.0000
  H   H1848     1.0  0.59068  0.99796  0.58408  1.0000
  H   H1849     1.0  0.49008  0.00858  0.70816  1.0000
  C   C2299     1.0  0.52344  0.03469  0.51758  1.0000
  H   H1850     1.0  0.52302  0.98554  0.72041  1.0000
  C   C2300     1.0  0.48734  0.99334  0.92468  1.0000
  C   C2301     1.0  0.65666  0.11840  0.84546  1.0000
  C   C2302     1.0  0.47782  0.99720  0.59884  1.0000
  H   H1851     1.0  0.68972  0.15316  0.84496  1.0000
  C   C2303     1.0  0.66702  0.15170  0.82849  1.0000
  H   H1852     1.0  0.64295  0.14545  0.81356  1.0000
  C   C2304     1.0  0.50790  0.99875  0.71399  1.0000
  H   H1853     1.0  0.68553  0.13055  0.53285  1.0000
  C   C2305     1.0  0.64610  0.12452  0.83268  1.0000
  H   H1854     1.0  0.56760  0.00397  0.60328  1.0000
  H   H1855     1.0  0.46834  0.00983  0.93747  1.0000
  C   C2306     1.0  0.70425  0.18567  0.83928  1.0000
  H   H1856     1.0  0.66334  0.12236  0.57219  1.0000
  S   S317      1.0  0.69382  0.11108  0.78459  1.0000
  H   H1857     1.0  0.52526  0.01780  0.94123  1.0000
  C   C2307     1.0  0.46866  0.02778  0.79359  1.0000
  C   C2308     1.0  0.50314  0.01666  0.55353  1.0000
  S   S318      1.0  0.69613  0.14749  0.76536  1.0000
  H   H1858     1.0  0.54173  0.99868  0.66489  1.0000
  C   C2309     1.0  0.49915  0.01213  0.88102  1.0000
  C   C2310     1.0  0.58497  0.02603  0.78614  1.0000
  C   C2311     1.0  0.57260  0.01073  0.78301  1.0000
  C   C2312     1.0  0.56767  0.00417  0.75237  1.0000
  C   C2313     1.0  0.57498  0.01298  0.72483  1.0000
  C   C2314     1.0  0.58743  0.02843  0.72773  1.0000
  C   C2315     1.0  0.59233  0.03486  0.75868  1.0000
  P   P74       1.0  0.59605  0.04069  0.69250  1.0000
  C   C2316     1.0  0.59447  0.02715  0.65812  1.0000
  C   C2317     1.0  0.58564  0.05399  0.68500  1.0000
  C   C2318     1.0  0.58329  0.05786  0.65335  1.0000
  C   C2319     1.0  0.67531  0.12822  0.58051  1.0000
  C   C2320     1.0  0.69481  0.18208  0.81182  1.0000
  C   C2321     1.0  0.57132  0.07049  0.70538  1.0000
  C   C2322     1.0  0.58002  0.06083  0.71092  1.0000
  C   C2323     1.0  0.60746  0.02367  0.64712  1.0000
  C   C2324     1.0  0.60606  0.01316  0.62051  1.0000
  C   C2325     1.0  0.59171  0.00606  0.60472  1.0000
  C   C2326     1.0  0.57872  0.00944  0.61554  1.0000
  C   C2327     1.0  0.58008  0.01991  0.64214  1.0000
  C   C2328     1.0  0.61649  0.05321  0.69990  1.0000
  C   C2329     1.0  0.62585  0.04676  0.71680  1.0000
  C   C2330     1.0  0.64156  0.05660  0.72331  1.0000
  C   C2331     1.0  0.64804  0.07286  0.71281  1.0000
  C   C2332     1.0  0.66191  0.16076  0.75567  1.0000
  C   C2333     1.0  0.62314  0.06953  0.68923  1.0000
  H   H1859     1.0  0.58849  0.03141  0.80987  1.0000
  H   H1860     1.0  0.56651  0.00414  0.80428  1.0000
  H   H1861     1.0  0.55779  0.99248  0.75018  1.0000
  H   H1862     1.0  0.57064  0.00779  0.70154  1.0000
  H   H1863     1.0  0.60152  0.04695  0.76176  1.0000
  H   H1864     1.0  0.68065  0.12413  0.85937  1.0000
  H   H1865     1.0  0.64497  0.17427  0.69668  1.0000
  C   C2334     1.0  0.46525  0.00202  0.64813  1.0000
  H   H1866     1.0  0.56664  0.07533  0.72558  1.0000
  H   H1867     1.0  0.58221  0.05861  0.73552  1.0000
  H   H1868     1.0  0.61869  0.02903  0.65890  1.0000
  H   H1869     1.0  0.61614  0.01055  0.61213  1.0000
  H   H1870     1.0  0.69576  0.14141  0.64980  1.0000
  C   C2335     1.0  0.51325  0.01855  0.89786  1.0000
  H   H1871     1.0  0.56990  0.02241  0.65027  1.0000
  H   H1872     1.0  0.62097  0.03422  0.72533  1.0000
  H   H1873     1.0  0.64867  0.05173  0.73692  1.0000
  H   H1874     1.0  0.49508  0.04993  0.53311  1.0000
  C   C2336     1.0  0.66450  0.17355  0.77846  1.0000
  H   H1875     1.0  0.46610  0.00660  0.67274  1.0000
  H   H1876     1.0  0.63400  0.11631  0.82863  1.0000
  C   C2337     1.0  0.51744  0.02050  0.53632  1.0000
  C   C2338     1.0  0.46125  0.01828  0.84827  1.0000
  H   H1877     1.0  0.57237  0.07013  0.62345  1.0000
  C   C2339     1.0  0.63887  0.07926  0.69557  1.0000
  H   H1878     1.0  0.48987  0.00705  0.64349  1.0000
  H   H1879     1.0  0.56122  0.08073  0.66976  1.0000
  C   C2340     1.0  0.66014  0.18673  0.77125  1.0000
  P   P75       1.0  0.67358  0.17298  0.81628  1.0000
  C   C2341     1.0  0.68793  0.13285  0.55828  1.0000
  C   C2342     1.0  0.57452  0.06750  0.64785  1.0000
  H   H1880     1.0  0.66837  0.12770  0.63077  1.0000
  C   C2343     1.0  0.46727  0.00597  0.84305  1.0000
  H   H1881     1.0  0.66009  0.08066  0.71853  1.0000
  C   C2344     1.0  0.46202  0.02921  0.82364  1.0000
  S   S319      1.0  0.46250  0.04195  0.63708  1.0000
  C   C2345     1.0  0.47448  0.01540  0.78811  1.0000
  H   H1882     1.0  0.53711  0.02417  0.65461  1.0000
  P   P76       1.0  0.49508  0.99781  0.57610  1.0000
  C   C2346     1.0  0.65313  0.18698  0.74181  1.0000
  C   C2347     1.0  0.47875  0.00232  0.63130  1.0000
  C   C2348     1.0  0.48599  0.99963  0.89458  1.0000
  H   H1883     1.0  0.68628  0.20803  0.83352  1.0000
  H   H1884     1.0  0.52375  0.01234  0.53686  1.0000
  C   C2349     1.0  0.52432  0.98387  0.63112  1.0000
  H   H1885     1.0  0.51976  0.05606  0.50127  1.0000
  H   H1886     1.0  0.69893  0.18295  0.86316  1.0000
  H   H1887     1.0  0.51721  0.02377  0.61571  1.0000
  C   C2350     1.0  0.48240  0.07903  0.83563  1.0000
  C   C2351     1.0  0.51117  0.98453  0.71533  1.0000
  H   H1888     1.0  0.52322  0.02850  0.88767  1.0000
  H   H1889     1.0  0.65273  0.10549  0.85139  1.0000
  C   C2352     1.0  0.51011  0.99789  0.60348  1.0000
  H   H1890     1.0  0.50037  0.08337  0.87086  1.0000
  C   C2353     1.0  0.65485  0.17717  0.86732  1.0000
  C   C2354     1.0  0.50140  0.99988  0.94159  1.0000
  H   H1891     1.0  0.46224  0.07464  0.80612  1.0000
  C   C2355     1.0  0.51436  0.01256  0.92820  1.0000
  H   H1892     1.0  0.48334  0.08410  0.91687  1.0000
  H   H1893     1.0  0.66213  0.19681  0.78821  1.0000
  H   H1894     1.0  0.49857  0.01729  0.85789  1.0000
  C   C2356     1.0  0.50142  0.04180  0.53429  1.0000
  C   C2357     1.0  0.67189  0.21113  0.87263  1.0000
  C   C2358     1.0  0.67811  0.13121  0.61350  1.0000
  H   H1895     1.0  0.49000  0.07839  0.81563  1.0000
  C   C2359     1.0  0.49528  0.02754  0.55272  1.0000
  C   C2360     1.0  0.70208  0.18575  0.78118  1.0000
  C   C2361     1.0  0.65125  0.14106  0.82409  1.0000
  C   C2362     1.0  0.46795  0.07943  0.97411  1.0000
  C   C2363     1.0  0.51536  0.04527  0.51638  1.0000
  C   C2364     1.0  0.67234  0.12888  0.84995  1.0000
  H   H1896     1.0  0.67851  0.22428  0.87472  1.0000
  H   H1897     1.0  0.64806  0.16407  0.86573  1.0000
  C   C2365     1.0  0.49178  0.98149  0.51592  1.0000
  C   C2366     1.0  0.67630  0.20186  0.84939  1.0000
  H   H1898     1.0  0.51476  0.98070  0.90655  1.0000
  P   P77       1.0  0.46709  0.99239  0.87514  1.0000
  Fe  Fe158     1.0  0.46079  0.04069  0.51062  1.0000
  C   C2367     1.0  0.46676  0.07680  0.83038  1.0000
  H   H1899     1.0  0.46686  0.06722  0.96632  1.0000
  C   C2368     1.0  0.70346  0.14035  0.56906  1.0000
  C   C2369     1.0  0.46269  0.07983  0.88802  1.0000
  C   C2370     1.0  0.51288  0.98355  0.60919  1.0000
  H   H1900     1.0  0.49813  0.99334  0.50515  1.0000
  C   C2371     1.0  0.48876  0.97995  0.54938  1.0000
  C   C2372     1.0  0.47391  0.00459  0.81279  1.0000
  C   C2373     1.0  0.52109  0.97911  0.82557  1.0000
  H   H1901     1.0  0.47899  0.99543  0.80850  1.0000
  C   C2374     1.0  0.47101  0.11088  0.99544  1.0000
  C   C2375     1.0  0.51650  0.52167  0.47099  1.0000
  C   C2376     1.0  0.50545  0.48035  0.23168  1.0000
  S   S320      1.0  0.47180  0.39828  0.38406  1.0000
  Fe  Fe159     1.0  0.47520  0.40605  0.26062  1.0000
  S   S321      1.0  0.49686  0.42274  0.23207  1.0000
  S   S322      1.0  0.47456  0.38443  0.29002  1.0000
  Fe  Fe160     1.0  0.55729  0.48451  0.03186  1.0000
  H   H1902     1.0  0.63416  0.58033  0.29542  1.0000
  S   S323      1.0  0.58416  0.49203  0.03910  1.0000
  Fe  Fe161     1.0  0.52491  0.45876  0.05440  1.0000
  S   S324      1.0  0.51172  0.46951  0.02308  1.0000
  S   S325      1.0  0.50802  0.43581  0.08071  1.0000
  H   H1903     1.0  0.51454  0.48725  0.21447  1.0000
  H   H1904     1.0  0.49705  0.45843  0.20197  1.0000
  Fe  Fe162     1.0  0.52853  0.49395  0.04107  1.0000
  S   S326      1.0  0.51845  0.51355  0.05066  1.0000
  H   H1905     1.0  0.48220  0.46525  0.49205  1.0000
  S   S327      1.0  0.54087  0.48331  0.07471  1.0000
  H   H1906     1.0  0.65462  0.51664  0.44896  1.0000
  C   C2377     1.0  0.46092  0.36010  0.09644  1.0000
  C   C2378     1.0  0.65283  0.48998  0.02006  1.0000
  C   C2379     1.0  0.57846  0.41180  0.30618  1.0000
  S   S328      1.0  0.69262  0.57015  0.03640  1.0000
  Fe  Fe163     1.0  0.47433  0.54505  0.17823  1.0000
  S   S329      1.0  0.47989  0.56780  0.14854  1.0000
  S   S330      1.0  0.48782  0.52820  0.18138  1.0000
  Fe  Fe164     1.0  0.47159  0.57833  0.19219  1.0000
  S   S331      1.0  0.48436  0.60343  0.21769  1.0000
  C   C2380     1.0  0.50068  0.63634  0.23266  1.0000
  C   C2381     1.0  0.49487  0.62461  0.20758  1.0000
  C   C2382     1.0  0.49738  0.63012  0.17572  1.0000
  H   H1907     1.0  0.46911  0.43837  0.04660  1.0000
  H   H1908     1.0  0.49329  0.62134  0.15607  1.0000
  H   H1909     1.0  0.49890  0.63228  0.25739  1.0000
  C   C2383     1.0  0.60248  0.50758  0.02527  1.0000
  H   H1910     1.0  0.48683  0.50622  0.26228  1.0000
  C   C2384     1.0  0.46311  0.44243  0.48147  1.0000
  C   C2385     1.0  0.47927  0.36984  0.15756  1.0000
  H   H1911     1.0  0.58939  0.44756  0.00663  1.0000
  C   C2386     1.0  0.47176  0.53020  0.30507  1.0000
  H   H1912     1.0  0.49434  0.37235  0.11525  1.0000
  H   H1913     1.0  0.66921  0.51140  0.10193  1.0000
  H   H1914     1.0  0.52397  0.46683  0.26493  1.0000
  H   H1915     1.0  0.64229  0.52026  0.03827  1.0000
  C   C2387     1.0  0.51041  0.51750  0.08774  1.0000
  C   C2388     1.0  0.51108  0.50970  0.11642  1.0000
  C   C2389     1.0  0.50406  0.51296  0.14503  1.0000
  C   C2390     1.0  0.49653  0.52420  0.14524  1.0000
  C   C2391     1.0  0.49609  0.53214  0.11670  1.0000
  C   C2392     1.0  0.50305  0.52884  0.08820  1.0000
  H   H1916     1.0  0.51705  0.50124  0.11658  1.0000
  H   H1917     1.0  0.50455  0.50684  0.16705  1.0000
  H   H1918     1.0  0.49045  0.54089  0.11657  1.0000
  H   H1919     1.0  0.50273  0.53514  0.06631  1.0000
  C   C2393     1.0  0.49948  0.42633  0.18990  1.0000
  C   C2394     1.0  0.51381  0.43811  0.17841  1.0000
  C   C2395     1.0  0.51656  0.44131  0.14516  1.0000
  C   C2396     1.0  0.50505  0.43258  0.12293  1.0000
  C   C2397     1.0  0.49070  0.42080  0.13442  1.0000
  C   C2398     1.0  0.48785  0.41779  0.16774  1.0000
  H   H1920     1.0  0.52288  0.44480  0.19534  1.0000
  H   H1921     1.0  0.52765  0.45040  0.13670  1.0000
  H   H1922     1.0  0.48172  0.41406  0.11744  1.0000
  H   H1923     1.0  0.47682  0.40870  0.17628  1.0000
  C   C2399     1.0  0.48504  0.41694  0.40156  1.0000
  C   C2400     1.0  0.48697  0.41817  0.43521  1.0000
  C   C2401     1.0  0.49824  0.43238  0.44959  1.0000
  C   C2402     1.0  0.50773  0.44545  0.43035  1.0000
  C   C2403     1.0  0.50544  0.44442  0.39685  1.0000
  C   C2404     1.0  0.49410  0.43031  0.38255  1.0000
  H   H1924     1.0  0.48000  0.40792  0.45014  1.0000
  H   H1925     1.0  0.49986  0.43302  0.47539  1.0000
  H   H1926     1.0  0.51266  0.45447  0.38175  1.0000
  H   H1927     1.0  0.49260  0.42962  0.35675  1.0000
  C   C2405     1.0  0.61675  0.50823  0.03829  1.0000
  C   C2406     1.0  0.49051  0.49973  0.46989  1.0000
  C   C2407     1.0  0.46663  0.31158  0.12774  1.0000
  C   C2408     1.0  0.49622  0.49109  0.44735  1.0000
  C   C2409     1.0  0.46846  0.37924  0.05185  1.0000
  H   H1928     1.0  0.50647  0.44118  0.29132  1.0000
  C   C2410     1.0  0.47001  0.45957  0.48481  1.0000
  C   C2411     1.0  0.68422  0.59470  0.41345  1.0000
  C   C2412     1.0  0.54052  0.44692  0.33000  1.0000
  C   C2413     1.0  0.48789  0.46182  0.13076  1.0000
  C   C2414     1.0  0.47463  0.52733  0.02861  1.0000
  C   C2415     1.0  0.49181  0.47880  0.28329  1.0000
  C   C2416     1.0  0.69306  0.62024  0.45986  1.0000
  P   P78       1.0  0.48964  0.48852  0.32094  1.0000
  C   C2417     1.0  0.52855  0.46149  0.28342  1.0000
  C   C2418     1.0  0.50876  0.49653  0.33936  1.0000
  C   C2419     1.0  0.51754  0.48655  0.34085  1.0000
  C   C2420     1.0  0.53230  0.49248  0.35520  1.0000
  C   C2421     1.0  0.53854  0.50852  0.36773  1.0000
  C   C2422     1.0  0.52998  0.51862  0.36598  1.0000
  C   C2423     1.0  0.51513  0.51267  0.35191  1.0000
  H   H1929     1.0  0.69895  0.61345  0.38061  1.0000
  H   H1930     1.0  0.51676  0.42829  0.33191  1.0000
  P   P79       1.0  0.67965  0.57800  0.38409  1.0000
  C   C2424     1.0  0.51205  0.49748  0.43758  1.0000
  C   C2425     1.0  0.57568  0.45400  0.39510  1.0000
  C   C2426     1.0  0.48252  0.50473  0.31423  1.0000
  H   H1931     1.0  0.61633  0.49968  0.05694  1.0000
  H   H1932     1.0  0.58537  0.40574  0.29398  1.0000
  C   C2427     1.0  0.65552  0.56447  0.33985  1.0000
  C   C2428     1.0  0.47136  0.52392  0.33589  1.0000
  C   C2429     1.0  0.47671  0.51124  0.34048  1.0000
  C   C2430     1.0  0.67480  0.53404  0.42418  1.0000
  H   H1933     1.0  0.67075  0.60502  0.36232  1.0000
  C   C2431     1.0  0.50393  0.41742  0.00306  1.0000
  H   H1934     1.0  0.46699  0.52899  0.35625  1.0000
  C   C2432     1.0  0.46808  0.52857  0.05880  1.0000
  H   H1935     1.0  0.51280  0.47405  0.33144  1.0000
  H   H1936     1.0  0.53884  0.48458  0.35684  1.0000
  H   H1937     1.0  0.54996  0.51308  0.37898  1.0000
  H   H1938     1.0  0.53481  0.53106  0.37573  1.0000
  H   H1939     1.0  0.50875  0.52074  0.35085  1.0000
  C   C2433     1.0  0.64867  0.49526  0.07665  1.0000
  H   H1940     1.0  0.63034  0.48016  0.04563  1.0000
  C   C2434     1.0  0.47548  0.47358  0.34703  1.0000
  H   H1941     1.0  0.51168  0.50009  0.26658  1.0000
  H   H1942     1.0  0.58056  0.44539  0.38561  1.0000
  C   C2435     1.0  0.48025  0.46605  0.37197  1.0000
  S   S332      1.0  0.70188  0.57373  0.46839  1.0000
  C   C2436     1.0  0.66464  0.50518  0.07933  1.0000
  H   H1943     1.0  0.50044  0.38682  0.42756  1.0000
  H   H1944     1.0  0.47648  0.50662  0.36458  1.0000
  H   H1945     1.0  0.56248  0.46772  0.32229  1.0000
  S   S333      1.0  0.52284  0.46323  0.44639  1.0000
  S   S334      1.0  0.54576  0.49675  0.99971  1.0000
  C   C2437     1.0  0.49364  0.37589  0.14022  1.0000
  C   C2438     1.0  0.49120  0.47044  0.10191  1.0000
  C   C2439     1.0  0.46652  0.32713  0.12156  1.0000
  H   H1946     1.0  0.48366  0.48355  0.06783  1.0000
  C   C2440     1.0  0.51870  0.44696  0.29819  1.0000
  C   C2441     1.0  0.66523  0.57885  0.35608  1.0000
  H   H1947     1.0  0.66690  0.46748  0.01306  1.0000
  C   C2442     1.0  0.58441  0.46605  0.41736  1.0000
  C   C2443     1.0  0.56362  0.47652  0.42099  1.0000
  C   C2444     1.0  0.46902  0.45424  0.39122  1.0000
  H   H1948     1.0  0.61788  0.45338  0.00724  1.0000
  H   H1949     1.0  0.50446  0.38348  0.36900  1.0000
  C   C2445     1.0  0.46918  0.37599  0.08447  1.0000
  C   C2446     1.0  0.65238  0.59426  0.32835  1.0000
  C   C2447     1.0  0.69712  0.57923  0.36124  1.0000
  H   H1950     1.0  0.68430  0.56230  0.32357  1.0000
  C   C2448     1.0  0.66355  0.59376  0.35015  1.0000
  H   H1951     1.0  0.46846  0.54040  0.06760  1.0000
  S   S335      1.0  0.54199  0.45880  0.01386  1.0000
  C   C2449     1.0  0.50682  0.39100  0.18750  1.0000
  H   H1952     1.0  0.51649  0.49046  0.42114  1.0000
  C   C2450     1.0  0.63153  0.51990  0.02770  1.0000
  H   H1953     1.0  0.50253  0.47324  0.08995  1.0000
  C   C2451     1.0  0.68099  0.54906  0.40814  1.0000
  C   C2452     1.0  0.69573  0.57004  0.33252  1.0000
  H   H1954     1.0  0.65653  0.55279  0.34403  1.0000
  S   S336      1.0  0.46769  0.55604  0.22308  1.0000
  C   C2453     1.0  0.46589  0.47314  0.10547  1.0000
  C   C2454     1.0  0.48173  0.46259  0.27566  1.0000
  C   C2455     1.0  0.52464  0.43964  0.32127  1.0000
  C   C2456     1.0  0.49276  0.38435  0.20528  1.0000
  C   C2457     1.0  0.50729  0.38671  0.15499  1.0000
  H   H1955     1.0  0.46818  0.36889  0.20472  1.0000
  H   H1956     1.0  0.47248  0.45541  0.29220  1.0000
  C   C2458     1.0  0.48033  0.47620  0.08933  1.0000
  H   H1957     1.0  0.55186  0.48037  0.28108  1.0000
  C   C2459     1.0  0.49549  0.46417  0.22444  1.0000
  C   C2460     1.0  0.69861  0.62347  0.42807  1.0000
  H   H1958     1.0  0.49180  0.43324  0.01588  1.0000
  C   C2461     1.0  0.50378  0.48757  0.26119  1.0000
  H   H1959     1.0  0.56237  0.43986  0.29219  1.0000
  H   H1960     1.0  0.63799  0.53275  0.44145  1.0000
  C   C2462     1.0  0.64438  0.56502  0.31805  1.0000
  H   H1961     1.0  0.51771  0.41201  0.45649  1.0000
  C   C2463     1.0  0.48266  0.51097  0.28324  1.0000
  H   H1962     1.0  0.51822  0.39187  0.14123  1.0000
  H   H1963     1.0  0.63694  0.55389  0.30564  1.0000
  S   S337      1.0  0.55035  0.49755  0.49632  1.0000
  H   H1964     1.0  0.51730  0.39961  0.19893  1.0000
  C   C2464     1.0  0.67827  0.59172  0.44523  1.0000
  H   H1965     1.0  0.48858  0.47932  0.43762  1.0000
  C   C2465     1.0  0.56454  0.41583  0.35391  1.0000
  H   H1966     1.0  0.64876  0.55929  0.41327  1.0000
  C   C2466     1.0  0.67165  0.55827  0.40371  1.0000
  H   H1967     1.0  0.70803  0.56276  0.29413  1.0000
  H   H1968     1.0  0.52573  0.40511  0.33921  1.0000
  H   H1969     1.0  0.68220  0.52719  0.42811  1.0000
  C   C2467     1.0  0.64281  0.57991  0.31229  1.0000
  H   H1970     1.0  0.56076  0.41276  0.37873  1.0000
  C   C2468     1.0  0.67478  0.50727  0.05268  1.0000
  C   C2469     1.0  0.68279  0.60441  0.46835  1.0000
  H   H1971     1.0  0.53464  0.51730  0.44314  1.0000
  H   H1972     1.0  0.47771  0.52860  0.25482  1.0000
  C   C2470     1.0  0.64278  0.48757  0.04720  1.0000
  H   H1973     1.0  0.59580  0.46660  0.42492  1.0000
  C   C2471     1.0  0.55022  0.46184  0.31578  1.0000
  H   H1974     1.0  0.67061  0.57953  0.45280  1.0000
  C   C2472     1.0  0.46184  0.33577  0.14587  1.0000
  C   C2473     1.0  0.69420  0.61078  0.40493  1.0000
  H   H1975     1.0  0.57818  0.42615  0.26495  1.0000
  H   H1976     1.0  0.57657  0.39906  0.35083  1.0000
  H   H1977     1.0  0.49252  0.38764  0.23050  1.0000
  H   H1978     1.0  0.49665  0.45807  0.14098  1.0000
  C   C2474     1.0  0.65605  0.55221  0.41562  1.0000
  H   H1979     1.0  0.65112  0.60580  0.32397  1.0000
  H   H1980     1.0  0.49253  0.46905  0.37668  1.0000
  H   H1981     1.0  0.52444  0.53335  0.48081  1.0000
  H   H1982     1.0  0.64077  0.49378  0.09723  1.0000
  H   H1983     1.0  0.53825  0.43415  0.42715  1.0000
  H   H1984     1.0  0.51431  0.42471  0.01650  1.0000
  C   C2475     1.0  0.49116  0.42233  0.00239  1.0000
  P   P80       1.0  0.46166  0.35586  0.13862  1.0000
  H   H1985     1.0  0.58498  0.48638  0.44812  1.0000
  C   C2476     1.0  0.54426  0.46903  0.29245  1.0000
  C   C2477     1.0  0.47736  0.52370  0.27878  1.0000
  S   S338      1.0  0.46786  0.41825  0.30278  1.0000
  C   C2478     1.0  0.55490  0.46455  0.39871  1.0000
  C   C2479     1.0  0.52225  0.51264  0.44979  1.0000
  C   C2480     1.0  0.64989  0.53715  0.43153  1.0000
  C   C2481     1.0  0.47441  0.51213  0.01752  1.0000
  H   H1986     1.0  0.54333  0.46388  0.39233  1.0000
  C   C2482     1.0  0.65928  0.52810  0.43590  1.0000
  H   H1987     1.0  0.55875  0.48496  0.43158  1.0000
  C   C2483     1.0  0.57835  0.47725  0.43040  1.0000
  C   C2484     1.0  0.57350  0.40804  0.33819  1.0000
  H   H1988     1.0  0.69318  0.55354  0.39996  1.0000
  C   C2485     1.0  0.51220  0.39438  0.38166  1.0000
  C   C2486     1.0  0.50995  0.39623  0.41471  1.0000
  C   C2487     1.0  0.51963  0.41046  0.43095  1.0000
  C   C2488     1.0  0.53129  0.42306  0.41406  1.0000
  C   C2489     1.0  0.53359  0.42132  0.38078  1.0000
  C   C2490     1.0  0.52412  0.40675  0.36483  1.0000
  P   P81       1.0  0.54878  0.43726  0.35842  1.0000
  C   C2491     1.0  0.56079  0.45313  0.38576  1.0000
  C   C2492     1.0  0.56052  0.42750  0.33774  1.0000
  C   C2493     1.0  0.56547  0.43113  0.30550  1.0000
  C   C2494     1.0  0.57442  0.42332  0.28985  1.0000
  Fe  Fe165     1.0  0.70749  0.55498  0.03010  1.0000
  Fe  Fe166     1.0  0.46537  0.39594  0.33083  1.0000
  H   H1989     1.0  0.46971  0.60042  0.11446  1.0000
  C   C2495     1.0  0.48366  0.45531  0.24639  1.0000
  H   H1990     1.0  0.68717  0.51502  0.05476  1.0000
  H   H1991     1.0  0.46734  0.48645  0.02755  1.0000
  H   H1992     1.0  0.47610  0.44267  0.24087  1.0000
  C   C2496     1.0  0.46751  0.49815  0.03652  1.0000
  H   H1993     1.0  0.47090  0.45166  0.16902  1.0000
  H   H1994     1.0  0.46781  0.54018  0.30152  1.0000
  H   H1995     1.0  0.47616  0.38596  0.10020  1.0000
  H   H1996     1.0  0.67859  0.60179  0.49308  1.0000
  C   C2497     1.0  0.50065  0.51536  0.48071  1.0000
  C   C2498     1.0  0.47343  0.45835  0.14661  1.0000
  C   C2499     1.0  0.47898  0.37387  0.19044  1.0000
  H   H1997     1.0  0.47275  0.44818  0.40994  1.0000
  C   C2500     1.0  0.46131  0.46925  0.47848  1.0000
  H   H1998     1.0  0.48008  0.53821  0.01410  1.0000
  H   H1999     1.0  0.46500  0.61232  0.16627  1.0000
  H   H2000     1.0  0.47510  0.39149  0.04281  1.0000
  C   C2501     1.0  0.46070  0.50160  0.45950  1.0000
  H   H2001     1.0  0.69691  0.62995  0.47800  1.0000
  C   C2502     1.0  0.66893  0.49967  0.02320  1.0000
  H   H2002     1.0  0.47022  0.33238  0.09796  1.0000
  P   P82       1.0  0.47019  0.49135  0.48350  1.0000
  H   H2003     1.0  0.46400  0.52141  0.49429  1.0000
  H   H2004     1.0  0.67698  0.50152  0.00278  1.0000
  C   C2503     1.0  0.63239  0.53119  0.00372  1.0000
  C   C2504     1.0  0.60333  0.51891  0.00134  1.0000
  C   C2505     1.0  0.46132  0.51466  0.07802  1.0000
  H   H2005     1.0  0.47000  0.43506  0.48561  1.0000
  H   H2006     1.0  0.46269  0.43140  0.10359  1.0000
  H   H2007     1.0  0.46381  0.49598  0.15313  1.0000
  C   C2506     1.0  0.46109  0.49932  0.06711  1.0000
  C   C2507     1.0  0.45951  0.51626  0.47089  1.0000
  H   H2008     1.0  0.67107  0.44158  0.00606  1.0000
  H   H2009     1.0  0.70675  0.63572  0.42161  1.0000
  C   C2508     1.0  0.46059  0.42623  0.05266  1.0000
  C   C2509     1.0  0.46241  0.46381  0.13381  1.0000
  H   H2010     1.0  0.46107  0.64059  0.15679  1.0000
  C   C2510     1.0  0.45906  0.36679  0.03115  1.0000
  C   C2511     1.0  0.45934  0.46917  0.34191  1.0000
  H   H2011     1.0  0.56370  0.58534  0.81182  1.0000
  H   H2012     1.0  0.52531  0.33353  0.71368  1.0000
  S   S339      1.0  0.47839  0.40250  0.85502  1.0000
  H   H2013     1.0  0.52067  0.36083  0.82300  1.0000
  P   P83       1.0  0.46065  0.41865  0.98722  1.0000
  C   C2512     1.0  0.46516  0.44009  0.97943  1.0000
  Fe  Fe167     1.0  0.56614  0.48988  0.52676  1.0000
  H   H2014     1.0  0.66824  0.53512  0.93223  1.0000
  C   C2513     1.0  0.59034  0.47036  0.57931  1.0000
  Fe  Fe168     1.0  0.53765  0.46834  0.56912  1.0000
  S   S340      1.0  0.51993  0.47457  0.54129  1.0000
  S   S341      1.0  0.53337  0.45304  0.61488  1.0000
  H   H2015     1.0  0.61921  0.54733  0.64900  1.0000
  H   H2016     1.0  0.56225  0.50464  0.78479  1.0000
  Fe  Fe169     1.0  0.53836  0.50024  0.54266  1.0000
  S   S342      1.0  0.53131  0.52210  0.54722  1.0000
  S   S343      1.0  0.54960  0.46308  0.52427  1.0000
  S   S344      1.0  0.55528  0.49449  0.57350  1.0000
  H   H2017     1.0  0.63556  0.42540  0.93361  1.0000
  S   S345      1.0  0.69315  0.57244  0.95792  1.0000
  H   H2018     1.0  0.48698  0.58418  0.77361  1.0000
  C   C2514     1.0  0.50291  0.39008  0.70192  1.0000
  H   H2019     1.0  0.47318  0.48551  0.95821  1.0000
  Fe  Fe170     1.0  0.48367  0.54630  0.67757  1.0000
  S   S346      1.0  0.48184  0.56669  0.64846  1.0000
  S   S347      1.0  0.50341  0.53709  0.67975  1.0000
  Fe  Fe171     1.0  0.47136  0.57341  0.69358  1.0000
  S   S348      1.0  0.47789  0.59886  0.71802  1.0000
  S   S349      1.0  0.47510  0.55412  0.72367  1.0000
  C   C2515     1.0  0.49213  0.61897  0.70910  1.0000
  C   C2516     1.0  0.49958  0.62294  0.67885  1.0000
  C   C2517     1.0  0.49566  0.63150  0.73294  1.0000
  H   H2020     1.0  0.49692  0.61355  0.66015  1.0000
  C   C2518     1.0  0.47572  0.52423  0.82206  1.0000
  H   H2021     1.0  0.46654  0.39068  0.95667  1.0000
  H   H2022     1.0  0.51418  0.35456  0.72494  1.0000
  C   C2519     1.0  0.48974  0.39359  0.97005  1.0000
  C   C2520     1.0  0.56194  0.59564  0.72192  1.0000
  C   C2521     1.0  0.57106  0.58249  0.76312  1.0000
  H   H2023     1.0  0.57664  0.58190  0.71246  1.0000
  H   H2024     1.0  0.60142  0.55780  0.70990  1.0000
  H   H2025     1.0  0.53722  0.38223  0.86034  1.0000
  C   C2522     1.0  0.65414  0.50883  0.59888  1.0000
  C   C2523     1.0  0.60274  0.48285  0.96365  1.0000
  C   C2524     1.0  0.52314  0.52558  0.58409  1.0000
  C   C2525     1.0  0.52504  0.51839  0.61261  1.0000
  C   C2526     1.0  0.51895  0.52201  0.64193  1.0000
  C   C2527     1.0  0.51053  0.53239  0.64264  1.0000
  C   C2528     1.0  0.50827  0.53919  0.61399  1.0000
  C   C2529     1.0  0.51480  0.53602  0.58488  1.0000
  H   H2026     1.0  0.53147  0.51034  0.61215  1.0000
  H   H2027     1.0  0.52073  0.51673  0.66403  1.0000
  H   H2028     1.0  0.50165  0.54706  0.61424  1.0000
  H   H2029     1.0  0.51324  0.54153  0.56284  1.0000
  C   C2530     1.0  0.48648  0.42974  0.67164  1.0000
  C   C2531     1.0  0.48691  0.43703  0.64162  1.0000
  C   C2532     1.0  0.50115  0.44421  0.62399  1.0000
  C   C2533     1.0  0.51515  0.44418  0.63623  1.0000
  C   C2534     1.0  0.51474  0.43684  0.66625  1.0000
  C   C2535     1.0  0.50048  0.42966  0.68392  1.0000
  H   H2030     1.0  0.47611  0.43699  0.63182  1.0000
  H   H2031     1.0  0.50127  0.44959  0.60075  1.0000
  H   H2032     1.0  0.52552  0.43672  0.67587  1.0000
  H   H2033     1.0  0.50032  0.42416  0.70706  1.0000
  C   C2536     1.0  0.49025  0.42087  0.87568  1.0000
  C   C2537     1.0  0.49117  0.43647  0.86679  1.0000
  C   C2538     1.0  0.50078  0.45061  0.88418  1.0000
  C   C2539     1.0  0.50943  0.44931  0.91081  1.0000
  C   C2540     1.0  0.50841  0.43370  0.91975  1.0000
  C   C2541     1.0  0.49900  0.41962  0.90210  1.0000
  H   H2034     1.0  0.48455  0.43763  0.84647  1.0000
  H   H2035     1.0  0.50144  0.46262  0.87716  1.0000
  H   H2036     1.0  0.49221  0.48708  0.70816  1.0000
  H   H2037     1.0  0.49858  0.40765  0.90878  1.0000
  C   C2542     1.0  0.65354  0.43180  0.96948  1.0000
  H   H2038     1.0  0.59847  0.49142  0.95280  1.0000
  H   H2039     1.0  0.47769  0.37065  0.82935  1.0000
  Fe  Fe172     1.0  0.68501  0.55968  0.50815  1.0000
  H   H2040     1.0  0.61673  0.51688  0.76688  1.0000
  H   H2041     1.0  0.51594  0.38839  0.74291  1.0000
  C   C2543     1.0  0.47696  0.39848  0.96927  1.0000
  C   C2544     1.0  0.50779  0.31986  0.78643  1.0000
  C   C2545     1.0  0.47093  0.47287  0.96419  1.0000
  C   C2546     1.0  0.50657  0.39070  0.80895  1.0000
  C   C2547     1.0  0.51596  0.40275  0.83036  1.0000
  C   C2548     1.0  0.52699  0.39970  0.84888  1.0000
  H   H2042     1.0  0.59831  0.55389  0.76917  1.0000
  H   H2043     1.0  0.49785  0.39320  0.79540  1.0000
  H   H2044     1.0  0.51436  0.41431  0.83312  1.0000
  H   H2045     1.0  0.53408  0.40901  0.86578  1.0000
  C   C2549     1.0  0.47266  0.46947  0.63600  1.0000
  C   C2550     1.0  0.50459  0.48956  0.71097  1.0000
  C   C2551     1.0  0.49055  0.45458  0.75351  1.0000
  C   C2552     1.0  0.50301  0.45828  0.77470  1.0000
  C   C2553     1.0  0.50319  0.46728  0.80292  1.0000
  C   C2554     1.0  0.49089  0.47255  0.81003  1.0000
  C   C2555     1.0  0.47804  0.46840  0.78932  1.0000
  C   C2556     1.0  0.47816  0.45967  0.76057  1.0000
  H   H2046     1.0  0.68758  0.57613  0.88201  1.0000
  C   C2557     1.0  0.51638  0.32049  0.75786  1.0000
  Fe  Fe173     1.0  0.46075  0.40688  0.73973  1.0000
  C   C2558     1.0  0.51087  0.59634  0.75625  1.0000
  C   C2559     1.0  0.48883  0.38317  0.68518  1.0000
  C   C2560     1.0  0.48211  0.53175  0.79285  1.0000
  C   C2561     1.0  0.48297  0.52215  0.76615  1.0000
  C   C2562     1.0  0.51020  0.63920  0.67248  1.0000
  C   C2563     1.0  0.69638  0.58288  0.86414  1.0000
  H   H2047     1.0  0.67749  0.49673  0.88081  1.0000
  C   C2564     1.0  0.62459  0.47577  0.97971  1.0000
  C   C2565     1.0  0.60332  0.51769  0.72552  1.0000
  C   C2566     1.0  0.51231  0.34496  0.74234  1.0000
  C   C2567     1.0  0.50093  0.60256  0.80745  1.0000
  H   H2048     1.0  0.46364  0.41159  0.91898  1.0000
  H   H2049     1.0  0.50849  0.58939  0.73382  1.0000
  C   C2568     1.0  0.46774  0.49545  0.52566  1.0000
  C   C2569     1.0  0.55362  0.60104  0.74538  1.0000
  H   H2050     1.0  0.51744  0.62216  0.83556  1.0000
  H   H2051     1.0  0.49044  0.44767  0.73156  1.0000
  H   H2052     1.0  0.51247  0.45410  0.76925  1.0000
  H   H2053     1.0  0.51276  0.46988  0.81951  1.0000
  H   H2054     1.0  0.49121  0.47957  0.83200  1.0000
  C   C2570     1.0  0.59212  0.46882  0.97875  1.0000
  C   C2571     1.0  0.52574  0.60859  0.76228  1.0000
  C   C2572     1.0  0.61085  0.51291  0.51557  1.0000
  H   H2055     1.0  0.48618  0.54500  0.79075  1.0000
  H   H2056     1.0  0.48775  0.52793  0.74335  1.0000
  C   C2573     1.0  0.51568  0.61479  0.81364  1.0000
  H   H2057     1.0  0.48704  0.38912  0.66387  1.0000
  H   H2058     1.0  0.46956  0.35030  0.73260  1.0000
  S   S350      1.0  0.59251  0.49546  0.51610  1.0000
  C   C2574     1.0  0.60154  0.48555  0.58921  1.0000
  C   C2575     1.0  0.47110  0.46384  0.57860  1.0000
  H   H2059     1.0  0.49646  0.52253  0.49732  1.0000
  C   C2576     1.0  0.64862  0.46128  0.97734  1.0000
  P   P84       1.0  0.61315  0.51321  0.62968  1.0000
  C   C2577     1.0  0.60264  0.51714  0.69185  1.0000
  C   C2578     1.0  0.61472  0.51504  0.67312  1.0000
  C   C2579     1.0  0.66300  0.52439  0.58656  1.0000
  C   C2580     1.0  0.56316  0.58816  0.78669  1.0000
  H   H2060     1.0  0.51514  0.43252  0.93984  1.0000
  H   H2061     1.0  0.59380  0.51893  0.73980  1.0000
  C   C2581     1.0  0.47720  0.50503  0.76846  1.0000
  C   C2582     1.0  0.63984  0.52355  0.51257  1.0000
  C   C2583     1.0  0.61038  0.54375  0.63049  1.0000
  H   H2062     1.0  0.49482  0.33111  0.81530  1.0000
  C   C2584     1.0  0.62757  0.51372  0.68869  1.0000
  C   C2585     1.0  0.64132  0.53299  0.59850  1.0000
  C   C2586     1.0  0.60540  0.52798  0.61623  1.0000
  C   C2587     1.0  0.65657  0.53642  0.58633  1.0000
  C   C2588     1.0  0.46339  0.50189  0.59095  1.0000
  C   C2589     1.0  0.47063  0.35815  0.82223  1.0000
  C   C2590     1.0  0.57035  0.64012  0.73433  1.0000
  C   C2591     1.0  0.54276  0.49216  0.85618  1.0000
  P   P85       1.0  0.54111  0.52057  0.76496  1.0000
  C   C2592     1.0  0.53512  0.54384  0.80447  1.0000
  C   C2593     1.0  0.55446  0.59739  0.77790  1.0000
  H   H2063     1.0  0.59159  0.46529  0.55582  1.0000
  C   C2594     1.0  0.51343  0.50162  0.73302  1.0000
  C   C2595     1.0  0.48043  0.49998  0.54687  1.0000
  C   C2596     1.0  0.65991  0.45841  0.99573  1.0000
  H   H2064     1.0  0.63229  0.49330  0.62107  1.0000
  H   H2065     1.0  0.65914  0.49949  0.59882  1.0000
  C   C2597     1.0  0.53082  0.49813  0.85295  1.0000
  H   H2066     1.0  0.59051  0.51189  0.57971  1.0000
  Fe  Fe174     1.0  0.46289  0.39914  0.81099  1.0000
  H   H2067     1.0  0.56174  0.59858  0.69675  1.0000
  H   H2068     1.0  0.49284  0.47395  0.60448  1.0000
  C   C2598     1.0  0.47613  0.34968  0.79893  1.0000
  C   C2599     1.0  0.62654  0.54247  0.51490  1.0000
  H   H2069     1.0  0.70349  0.60519  0.76896  1.0000
  C   C2600     1.0  0.47044  0.49733  0.79747  1.0000
  S   S351      1.0  0.46836  0.38864  0.76416  1.0000
  C   C2601     1.0  0.64233  0.43460  0.95100  1.0000
  H   H2070     1.0  0.60821  0.56734  0.63115  1.0000
  C   C2602     1.0  0.59291  0.55074  0.59635  1.0000
  H   H2071     1.0  0.70156  0.56183  0.84943  1.0000
  C   C2603     1.0  0.70010  0.59968  0.85998  1.0000
  C   C2604     1.0  0.57691  0.54378  0.70062  1.0000
  C   C2605     1.0  0.52869  0.38460  0.84588  1.0000
  C   C2606     1.0  0.57344  0.53911  0.76734  1.0000
  H   H2072     1.0  0.69407  0.60595  0.87452  1.0000
  C   C2607     1.0  0.50804  0.37540  0.80598  1.0000
  H   H2073     1.0  0.48919  0.44585  0.96282  1.0000
  C   C2608     1.0  0.64072  0.53981  0.51291  1.0000
  C   C2609     1.0  0.61174  0.52917  0.51626  1.0000
  H   H2074     1.0  0.51470  0.55797  0.73733  1.0000
  C   C2610     1.0  0.58797  0.53511  0.58199  1.0000
  C   C2611     1.0  0.47990  0.45037  0.96702  1.0000
  C   C2612     1.0  0.66232  0.44371  0.99181  1.0000
  H   H2075     1.0  0.58811  0.55951  0.58841  1.0000
  C   C2613     1.0  0.60417  0.55510  0.62050  1.0000
  H   H2076     1.0  0.66336  0.54838  0.57617  1.0000
  C   C2614     1.0  0.61891  0.48640  0.96424  1.0000
  C   C2615     1.0  0.49857  0.59328  0.77890  1.0000
  H   H2077     1.0  0.46991  0.32701  0.77094  1.0000
  H   H2078     1.0  0.63829  0.51350  0.73417  1.0000
  H   H2079     1.0  0.54838  0.60158  0.79654  1.0000
  C   C2616     1.0  0.52178  0.56114  0.78692  1.0000
  H   H2080     1.0  0.61127  0.49199  0.57301  1.0000
  C   C2617     1.0  0.57048  0.58625  0.73076  1.0000
  C   C2618     1.0  0.52049  0.55411  0.75608  1.0000
  C   C2619     1.0  0.52759  0.48372  0.69648  1.0000
  H   H2081     1.0  0.56480  0.46288  0.64314  1.0000
  H   H2082     1.0  0.52556  0.53676  0.72522  1.0000
  C   C2620     1.0  0.58639  0.48431  0.63838  1.0000
  C   C2621     1.0  0.53649  0.49585  0.71838  1.0000
  C   C2622     1.0  0.58822  0.54839  0.75378  1.0000
  H   H2083     1.0  0.57818  0.54565  0.67476  1.0000
  C   C2623     1.0  0.46627  0.33360  0.78975  1.0000
  C   C2624     1.0  0.54180  0.50951  0.80073  1.0000
  H   H2084     1.0  0.53299  0.47667  0.68230  1.0000
  C   C2625     1.0  0.48279  0.46673  0.95967  1.0000
  C   C2626     1.0  0.55403  0.49453  0.83152  1.0000
  H   H2085     1.0  0.51711  0.57056  0.79204  1.0000
  C   C2627     1.0  0.49292  0.36853  0.74196  1.0000
  C   C2628     1.0  0.47697  0.36871  0.69620  1.0000
  H   H2086     1.0  0.56314  0.48966  0.83399  1.0000
  C   C2629     1.0  0.53332  0.53625  0.77382  1.0000
  C   C2630     1.0  0.56212  0.53458  0.71412  1.0000
  H   H2087     1.0  0.57936  0.53176  0.56298  1.0000
  C   C2631     1.0  0.56034  0.53189  0.74753  1.0000
  C   C2632     1.0  0.62832  0.51452  0.72236  1.0000
  H   H2088     1.0  0.51210  0.40125  0.69320  1.0000
  H   H2089     1.0  0.53033  0.56166  0.83492  1.0000
  H   H2090     1.0  0.58432  0.48954  0.66093  1.0000
  H   H2091     1.0  0.62681  0.49766  0.95332  1.0000
  C   C2633     1.0  0.51924  0.37247  0.82458  1.0000
  H   H2092     1.0  0.52051  0.51058  0.82258  1.0000
  H   H2093     1.0  0.52198  0.49600  0.87203  1.0000
  H   H2094     1.0  0.53813  0.63036  0.67688  1.0000
  C   C2634     1.0  0.47823  0.50334  0.57933  1.0000
  H   H2095     1.0  0.56815  0.45072  0.59061  1.0000
  H   H2096     1.0  0.65058  0.52123  0.51127  1.0000
  H   H2097     1.0  0.55206  0.52971  0.69844  1.0000
  H   H2098     1.0  0.50481  0.47117  0.67575  1.0000
  C   C2635     1.0  0.52333  0.58396  0.65402  1.0000
  C   C2636     1.0  0.52293  0.59541  0.63161  1.0000
  C   C2637     1.0  0.51867  0.33305  0.73587  1.0000
  C   C2638     1.0  0.53422  0.61739  0.67088  1.0000
  C   C2639     1.0  0.53465  0.60595  0.69356  1.0000
  C   C2640     1.0  0.52906  0.58917  0.68489  1.0000
  H   H2099     1.0  0.48997  0.62864  0.75641  1.0000
  H   H2100     1.0  0.65318  0.51535  0.97364  1.0000
  H   H2101     1.0  0.66195  0.47662  0.92138  1.0000
  H   H2102     1.0  0.63706  0.51208  0.67507  1.0000
  C   C2641     1.0  0.58997  0.55066  0.72041  1.0000
  C   C2642     1.0  0.47905  0.36131  0.72428  1.0000
  H   H2103     1.0  0.48800  0.50680  0.59567  1.0000
  H   H2104     1.0  0.47962  0.47355  0.65744  1.0000
  H   H2105     1.0  0.48921  0.38247  0.95742  1.0000
  H   H2106     1.0  0.51896  0.57099  0.64765  1.0000
  H   H2107     1.0  0.51817  0.59129  0.60790  1.0000
  C   C2643     1.0  0.70548  0.62372  0.73451  1.0000
  C   C2644     1.0  0.59426  0.52380  0.59169  1.0000
  C   C2645     1.0  0.63989  0.44930  0.95484  1.0000
  C   C2646     1.0  0.51166  0.48062  0.69268  1.0000
  H   H2108     1.0  0.54315  0.48555  0.87775  1.0000
  H   H2109     1.0  0.50771  0.50822  0.74731  1.0000
  H   H2110     1.0  0.52783  0.62098  0.62289  1.0000
  C   C2647     1.0  0.50499  0.38278  0.73016  1.0000
  C   C2648     1.0  0.52839  0.61211  0.64004  1.0000
  S   S352      1.0  0.52189  0.46755  0.93108  1.0000
  C   C2649     1.0  0.52956  0.50518  0.73626  1.0000
  H   H2111     1.0  0.47691  0.46379  0.55558  1.0000
  H   H2112     1.0  0.57770  0.57527  0.76998  1.0000
  H   H2113     1.0  0.59255  0.51808  0.68039  1.0000
  H   H2114     1.0  0.49121  0.60048  0.82439  1.0000
  C   C2650     1.0  0.52642  0.54187  0.74942  1.0000
  C   C2651     1.0  0.50357  0.34435  0.77091  1.0000
  H   H2115     1.0  0.57967  0.46659  0.97960  1.0000
  C   C2652     1.0  0.59964  0.49270  0.61879  1.0000
  S   S353      1.0  0.70137  0.57442  0.54718  1.0000
  H   H2116     1.0  0.49429  0.47465  0.95041  1.0000
  P   P86       1.0  0.54192  0.61245  0.73373  1.0000
  H   H2117     1.0  0.67483  0.52712  0.57702  1.0000
  C   C2653     1.0  0.65809  0.51103  0.95307  1.0000
  C   C2654     1.0  0.66667  0.52228  0.92962  1.0000
  C   C2655     1.0  0.67367  0.51712  0.90363  1.0000
  C   C2656     1.0  0.67183  0.50062  0.90074  1.0000
  C   C2657     1.0  0.57713  0.46220  0.59878  1.0000
  C   C2658     1.0  0.53015  0.50651  0.82508  1.0000
  C   C2659     1.0  0.57523  0.46912  0.62840  1.0000
  C   C2660     1.0  0.55353  0.50310  0.80380  1.0000
  P   P87       1.0  0.49521  0.35959  0.77938  1.0000
  H   H2118     1.0  0.46594  0.36341  0.68354  1.0000
  C   C2661     1.0  0.61618  0.51645  0.74078  1.0000
  P   P88       1.0  0.64548  0.48029  0.98172  1.0000
  H   H2119     1.0  0.47489  0.53167  0.84267  1.0000
  C   C2662     1.0  0.52918  0.55607  0.81107  1.0000
  C   C2663     1.0  0.63242  0.51748  0.61149  1.0000
  Fe  Fe175     1.0  0.67785  0.55482  0.99568  1.0000
  C   C2664     1.0  0.48010  0.46954  0.60619  1.0000
  H   H2120     1.0  0.68080  0.52601  0.88613  1.0000
  C   C2665     1.0  0.50143  0.33175  0.79301  1.0000
  C   C2666     1.0  0.47766  0.41308  0.98499  1.0000
  H   H2121     1.0  0.57221  0.53772  0.79329  1.0000
  H   H2122     1.0  0.63659  0.54248  0.59738  1.0000
  H   H2123     1.0  0.69301  0.61863  0.72934  1.0000
  H   H2124     1.0  0.49199  0.50080  0.53876  1.0000
  H   H2125     1.0  0.52906  0.58006  0.70196  1.0000
  C   C2667     1.0  0.66302  0.48927  0.92392  1.0000
  H   H2126     1.0  0.53938  0.62737  0.79639  1.0000
  H   H2127     1.0  0.61850  0.53918  0.97220  1.0000
  H   H2128     1.0  0.54114  0.54039  0.82333  1.0000
  H   H2129     1.0  0.54880  0.49799  0.72119  1.0000
  C   C2668     1.0  0.63893  0.50537  0.61132  1.0000
  C   C2669     1.0  0.65609  0.49442  0.95033  1.0000
  C   C2670     1.0  0.70426  0.57481  0.84572  1.0000
  Fe  Fe176     1.0  0.70779  0.55694  0.95608  1.0000
  H   H2130     1.0  0.62700  0.55495  0.51512  1.0000
  C   C2671     1.0  0.52805  0.61778  0.79123  1.0000
  H   H2131     1.0  0.46877  0.45664  0.74343  1.0000
  H   H2132     1.0  0.47748  0.49773  0.74726  1.0000
  H   H2133     1.0  0.63125  0.45137  0.94018  1.0000
  S   S354      1.0  0.46825  0.42155  0.69310  1.0000
  C   C2672     1.0  0.55383  0.63427  0.73451  1.0000
  H   H2134     1.0  0.60102  0.53151  0.51729  1.0000
  H   H2135     1.0  0.46746  0.45451  0.84989  1.0000
  S   S355      1.0  0.65904  0.55719  0.51013  1.0000
  C   C2673     1.0  0.46998  0.50708  0.82449  1.0000
  H   H2136     1.0  0.65546  0.42043  0.96646  1.0000
  H   H2137     1.0  0.52124  0.31122  0.75272  1.0000
  H   H2138     1.0  0.46502  0.50159  0.84733  1.0000
  S   S356      1.0  0.69183  0.53863  0.99154  1.0000
  H   H2139     1.0  0.51569  0.64212  0.64884  1.0000
  H   H2140     1.0  0.53374  0.64140  0.73543  1.0000
  Fe  Fe177     1.0  0.52956  0.47118  0.98409  1.0000
  C   C2674     1.0  0.61812  0.53053  0.99066  1.0000
  C   C2675     1.0  0.62504  0.51025  0.51367  1.0000
  H   H2141     1.0  0.51322  0.39941  0.98730  1.0000
  C   C2676     1.0  0.50326  0.40311  0.98680  1.0000
  S   S357      1.0  0.69437  0.53953  0.50844  1.0000
  H   H2142     1.0  0.62460  0.49777  0.51306  1.0000
  H   H2143     1.0  0.57637  0.63168  0.73329  1.0000
  H   H2144     1.0  0.46180  0.50456  0.61605  1.0000
  S   S358      1.0  0.65078  0.54622  0.98891  1.0000
  C   C2677     1.0  0.59764  0.45818  0.99418  1.0000
  C   C2678     1.0  0.61379  0.46158  0.99457  1.0000
  H   H2145     1.0  0.59258  0.51871  0.99098  1.0000
  S   S359      1.0  0.45997  0.52802  0.66456  1.0000
  P   P89       1.0  0.46212  0.47512  0.79901  1.0000
  H   H2146     1.0  0.47980  0.51127  0.99443  1.0000
  Fe  Fe178     1.0  0.53302  0.47120  0.49672  1.0000
  H   H2147     1.0  0.50598  0.31009  0.80345  1.0000
  Fe  Fe179     1.0  0.69084  0.89504  0.06750  1.0000
  C   C2679     1.0  0.61449  0.68980  0.07814  1.0000
  S   S360      1.0  0.66746  0.89612  0.05327  1.0000
  H   H2148     1.0  0.59454  0.72129  0.04560  1.0000
  H   H2149     1.0  0.54294  0.66893  0.14065  1.0000
  S   S361      1.0  0.69511  0.87165  0.06724  1.0000
  S   S362      1.0  0.67817  0.77794  0.35296  1.0000
  S   S363      1.0  0.68589  0.81394  0.32112  1.0000
  Fe  Fe180     1.0  0.69141  0.80452  0.36696  1.0000
  Fe  Fe181     1.0  0.67400  0.78747  0.30583  1.0000
  S   S364      1.0  0.65079  0.78458  0.28342  1.0000
  S   S365      1.0  0.69595  0.78654  0.28200  1.0000
  H   H2150     1.0  0.55002  0.66678  0.19691  1.0000
  H   H2151     1.0  0.52141  0.70613  0.31905  1.0000
  H   H2152     1.0  0.53145  0.88800  0.06081  1.0000
  Fe  Fe182     1.0  0.55935  0.80775  0.44474  1.0000
  S   S366      1.0  0.53593  0.80550  0.46673  1.0000
  S   S367      1.0  0.56663  0.79998  0.39614  1.0000
  C   C2680     1.0  0.46743  0.65465  0.24638  1.0000
  H   H2153     1.0  0.48256  0.66671  0.17131  1.0000
  H   H2154     1.0  0.57163  0.80452  0.11990  1.0000
  S   S368      1.0  0.53572  0.78297  0.02946  1.0000
  S   S369      1.0  0.57164  0.83455  0.45833  1.0000
  H   H2155     1.0  0.50204  0.85681  0.32241  1.0000
  Fe  Fe183     1.0  0.47927  0.91989  0.42087  1.0000
  S   S370      1.0  0.47128  0.89947  0.38360  1.0000
  S   S371      1.0  0.49830  0.94552  0.42115  1.0000
  C   C2681     1.0  0.70675  0.85335  0.18534  1.0000
  Fe  Fe184     1.0  0.47033  0.88277  0.42544  1.0000
  S   S372      1.0  0.47913  0.86150  0.42001  1.0000
  H   H2156     1.0  0.61692  0.82602  0.07340  1.0000
  S   S373      1.0  0.47984  0.90354  0.46124  1.0000
  H   H2157     1.0  0.58824  0.81817  0.07257  1.0000
  Fe  Fe185     1.0  0.53873  0.73337  0.25829  1.0000
  S   S374      1.0  0.56290  0.74860  0.23921  1.0000
  S   S375      1.0  0.52707  0.74161  0.30085  1.0000
  Fe  Fe186     1.0  0.53400  0.70461  0.21035  1.0000
  S   S376      1.0  0.55803  0.71820  0.18839  1.0000
  S   S377      1.0  0.51924  0.68022  0.18446  1.0000
  Fe  Fe187     1.0  0.56672  0.72490  0.23866  1.0000
  S   S378      1.0  0.58890  0.72173  0.25441  1.0000
  Fe  Fe188     1.0  0.55251  0.74090  0.18993  1.0000
  S   S379      1.0  0.56322  0.75889  0.14884  1.0000
  S   S380      1.0  0.54310  0.70982  0.26100  1.0000
  S   S381      1.0  0.52782  0.72722  0.20888  1.0000
  H   H2158     1.0  0.50228  0.90172  0.13935  1.0000
  H   H2159     1.0  0.49734  0.77325  0.32995  1.0000
  H   H2160     1.0  0.46714  0.93985  0.32189  1.0000
  H   H2161     1.0  0.53819  0.96188  0.33889  1.0000
  H   H2162     1.0  0.51285  0.66209  0.24576  1.0000
  C   C2682     1.0  0.55510  0.78381  0.37013  1.0000
  C   C2683     1.0  0.56179  0.78150  0.34052  1.0000
  C   C2684     1.0  0.55347  0.76844  0.31953  1.0000
  C   C2685     1.0  0.53816  0.75775  0.32748  1.0000
  C   C2686     1.0  0.53129  0.76025  0.35681  1.0000
  C   C2687     1.0  0.53973  0.77320  0.37813  1.0000
  H   H2163     1.0  0.57360  0.78974  0.33393  1.0000
  H   H2164     1.0  0.55890  0.76678  0.29704  1.0000
  H   H2165     1.0  0.51940  0.75212  0.36306  1.0000
  H   H2166     1.0  0.53438  0.77495  0.40070  1.0000
  C   C2688     1.0  0.55489  0.76385  0.11450  1.0000
  C   C2689     1.0  0.56510  0.77293  0.08988  1.0000
  C   C2690     1.0  0.55937  0.77884  0.06379  1.0000
  C   C2691     1.0  0.54325  0.77529  0.06153  1.0000
  C   C2692     1.0  0.53291  0.76548  0.08530  1.0000
  C   C2693     1.0  0.53870  0.75985  0.11182  1.0000
  H   H2167     1.0  0.57761  0.77589  0.09154  1.0000
  H   H2168     1.0  0.56747  0.78630  0.04565  1.0000
  H   H2169     1.0  0.52040  0.76256  0.08361  1.0000
  H   H2170     1.0  0.53070  0.75278  0.13050  1.0000
  C   C2694     1.0  0.52195  0.85461  0.46510  1.0000
  C   C2695     1.0  0.51076  0.84186  0.44760  1.0000
  C   C2696     1.0  0.49769  0.84411  0.43435  1.0000
  C   C2697     1.0  0.49535  0.85895  0.43898  1.0000
  C   C2698     1.0  0.50628  0.87150  0.45736  1.0000
  C   C2699     1.0  0.51955  0.86941  0.46994  1.0000
  H   H2171     1.0  0.51223  0.83031  0.44411  1.0000
  H   H2172     1.0  0.48928  0.83421  0.42057  1.0000
  H   H2173     1.0  0.50466  0.88295  0.46122  1.0000
  C   C2700     1.0  0.54300  0.75630  0.48066  1.0000
  H   H2174     1.0  0.47284  0.91484  0.31332  1.0000
  C   C2701     1.0  0.50379  0.95802  0.38680  1.0000
  C   C2702     1.0  0.50010  0.95139  0.35572  1.0000
  H   H2175     1.0  0.62260  0.73626  0.08926  1.0000
  H   H2176     1.0  0.49322  0.93838  0.35252  1.0000
  C   C2703     1.0  0.63399  0.76677  0.27503  1.0000
  C   C2704     1.0  0.62059  0.76881  0.26381  1.0000
  C   C2705     1.0  0.60682  0.75510  0.25694  1.0000
  C   C2706     1.0  0.60629  0.73919  0.26144  1.0000
  C   C2707     1.0  0.61972  0.73713  0.27256  1.0000
  C   C2708     1.0  0.63357  0.75088  0.27930  1.0000
  H   H2177     1.0  0.62085  0.78108  0.26038  1.0000
  H   H2178     1.0  0.59662  0.75686  0.24821  1.0000
  H   H2179     1.0  0.61938  0.72484  0.27613  1.0000
  H   H2180     1.0  0.64386  0.74919  0.28791  1.0000
  H   H2181     1.0  0.53641  0.83894  0.01943  1.0000
  H   H2182     1.0  0.48018  0.90740  0.01901  1.0000
  C   C2709     1.0  0.52804  0.78391  0.26771  1.0000
  S   S382      1.0  0.68333  0.81297  0.41415  1.0000
  H   H2183     1.0  0.60019  0.94853  0.43450  1.0000
  C   C2710     1.0  0.69645  0.84018  0.20371  1.0000
  H   H2184     1.0  0.69384  0.82377  0.24348  1.0000
  H   H2185     1.0  0.68412  0.83469  0.19768  1.0000
  C   C2711     1.0  0.65154  0.87813  0.04075  1.0000
  C   C2712     1.0  0.65300  0.86290  0.03838  1.0000
  Fe  Fe189     1.0  0.70129  0.77893  0.33075  1.0000
  C   C2713     1.0  0.52854  0.89305  0.03946  1.0000
  H   H2186     1.0  0.48810  0.80703  0.03520  1.0000
  C   C2714     1.0  0.63716  0.87913  0.03260  1.0000
  H   H2187     1.0  0.66392  0.86190  0.04445  1.0000
  C   C2715     1.0  0.56214  0.93099  0.48748  1.0000
  C   C2716     1.0  0.49198  0.76217  0.37645  1.0000
  C   C2717     1.0  0.58957  0.94371  0.44935  1.0000
  H   H2188     1.0  0.67852  0.79251  0.48698  1.0000
  H   H2189     1.0  0.60092  0.77395  0.15820  1.0000
  C   C2718     1.0  0.58574  0.74949  0.33583  1.0000
  C   C2719     1.0  0.57470  0.73839  0.35645  1.0000
  H   H2190     1.0  0.58887  0.74510  0.31316  1.0000
  H   H2191     1.0  0.56967  0.72551  0.34933  1.0000
  H   H2192     1.0  0.63760  0.69792  0.05589  1.0000
  H   H2193     1.0  0.59331  0.78474  0.37965  1.0000
  H   H2194     1.0  0.67570  0.88685  0.49431  1.0000
  H   H2195     1.0  0.48693  0.67574  0.22823  1.0000
  C   C2720     1.0  0.48716  0.81228  0.35491  1.0000
  C   C2721     1.0  0.53409  0.82279  0.35787  1.0000
  C   C2722     1.0  0.53406  0.83497  0.38039  1.0000
  C   C2723     1.0  0.54815  0.84597  0.39325  1.0000
  C   C2724     1.0  0.56243  0.84497  0.38367  1.0000
  C   C2725     1.0  0.56259  0.83286  0.36146  1.0000
  C   C2726     1.0  0.54850  0.82176  0.34869  1.0000
  C   C2727     1.0  0.67409  0.90994  0.33354  1.0000
  H   H2196     1.0  0.48281  0.80000  0.36469  1.0000
  H   H2197     1.0  0.52314  0.83589  0.38842  1.0000
  H   H2198     1.0  0.54796  0.85503  0.41126  1.0000
  H   H2199     1.0  0.57332  0.85328  0.39414  1.0000
  H   H2200     1.0  0.57359  0.83163  0.35500  1.0000
  H   H2201     1.0  0.54901  0.81227  0.33227  1.0000
  H   H2202     1.0  0.51529  0.80572  0.41182  1.0000
  H   H2203     1.0  0.51332  0.67712  0.33614  1.0000
  H   H2204     1.0  0.54007  0.72860  0.35140  1.0000
  C   C2728     1.0  0.61738  0.75602  0.38877  1.0000
  C   C2729     1.0  0.62918  0.76572  0.36762  1.0000
  C   C2730     1.0  0.63885  0.78172  0.37663  1.0000
  C   C2731     1.0  0.63676  0.78803  0.40684  1.0000
  C   C2732     1.0  0.62518  0.77824  0.42869  1.0000
  C   C2733     1.0  0.61529  0.76224  0.41915  1.0000
  P   P90       1.0  0.62344  0.78648  0.46839  1.0000
  H   H2205     1.0  0.56320  0.75042  0.46989  1.0000
  S   S383      1.0  0.61053  0.83152  0.00699  1.0000
  C   C2734     1.0  0.55583  0.96793  0.42435  1.0000
  H   H2206     1.0  0.47568  0.84460  0.34889  1.0000
  C   C2735     1.0  0.52878  0.93401  0.47153  1.0000
  H   H2207     1.0  0.69800  0.87204  0.41464  1.0000
  H   H2208     1.0  0.57484  0.94679  0.41285  1.0000
  H   H2209     1.0  0.54635  0.73026  0.08050  1.0000
  H   H2210     1.0  0.56224  0.72399  0.12085  1.0000
  C   C2736     1.0  0.69338  0.86591  0.34919  1.0000
  C   C2737     1.0  0.63998  0.78796  0.49291  1.0000
  H   H2211     1.0  0.48794  0.75442  0.42592  1.0000
  C   C2738     1.0  0.62318  0.80655  0.46133  1.0000
  C   C2739     1.0  0.63572  0.82090  0.47097  1.0000
  C   C2740     1.0  0.63539  0.83636  0.46509  1.0000
  C   C2741     1.0  0.62248  0.83759  0.44993  1.0000
  C   C2742     1.0  0.61009  0.82335  0.43975  1.0000
  C   C2743     1.0  0.61052  0.80788  0.44506  1.0000
  H   H2212     1.0  0.60976  0.74373  0.38129  1.0000
  H   H2213     1.0  0.63080  0.76089  0.34414  1.0000
  H   H2214     1.0  0.64805  0.78922  0.36018  1.0000
  H   H2215     1.0  0.64444  0.80051  0.41326  1.0000
  H   H2216     1.0  0.60586  0.75460  0.43468  1.0000
  H   H2217     1.0  0.54764  0.71567  0.47686  1.0000
  C   C2744     1.0  0.55676  0.72808  0.07282  1.0000
  H   H2218     1.0  0.68950  0.78360  0.42385  1.0000
  H   H2219     1.0  0.56093  0.69048  0.10535  1.0000
  H   H2220     1.0  0.65665  0.79084  0.45313  1.0000
  H   H2221     1.0  0.61251  0.75260  0.49087  1.0000
  C   C2745     1.0  0.50754  0.83532  0.32879  1.0000
  H   H2222     1.0  0.50813  0.92549  0.02744  1.0000
  H   H2223     1.0  0.57368  0.76545  0.41592  1.0000
  C   C2746     1.0  0.69815  0.85350  0.35963  1.0000
  H   H2224     1.0  0.49252  0.84511  0.09927  1.0000
  H   H2225     1.0  0.68491  0.88796  0.99853  1.0000
  H   H2226     1.0  0.62196  0.84955  0.44666  1.0000
  H   H2227     1.0  0.59998  0.82423  0.42824  1.0000
  H   H2228     1.0  0.60076  0.79697  0.43718  1.0000
  H   H2229     1.0  0.53332  0.77479  0.26548  1.0000
  H   H2230     1.0  0.57547  0.68641  0.21824  1.0000
  H   H2231     1.0  0.52961  0.78540  0.31919  1.0000
  C   C2747     1.0  0.58403  0.72312  0.05358  1.0000
  C   C2748     1.0  0.51386  0.88510  0.02491  1.0000
  H   H2232     1.0  0.49584  0.87870  0.17783  1.0000
  S   S384      1.0  0.53934  0.85300  0.48054  1.0000
  Fe  Fe190     1.0  0.70801  0.81241  0.30065  1.0000
  C   C2749     1.0  0.57955  0.72199  0.08638  1.0000
  C   C2750     1.0  0.52135  0.68699  0.35075  1.0000
  C   C2751     1.0  0.56589  0.72140  0.43966  1.0000
  C   C2752     1.0  0.59257  0.76616  0.34425  1.0000
  H   H2233     1.0  0.52375  0.90857  0.48319  1.0000
  C   C2753     1.0  0.49343  0.76465  0.40979  1.0000
  C   C2754     1.0  0.49303  0.83308  0.03776  1.0000
  C   C2755     1.0  0.58064  0.70724  0.48132  1.0000
  H   H2234     1.0  0.58385  0.79794  0.16731  1.0000
  C   C2756     1.0  0.52030  0.85106  0.02884  1.0000
  C   C2757     1.0  0.46554  0.91778  0.29641  1.0000
  H   H2235     1.0  0.52358  0.67080  0.38678  1.0000
  H   H2236     1.0  0.52951  0.86311  0.02605  1.0000
  C   C2758     1.0  0.48505  0.90944  0.21222  1.0000
  H   H2237     1.0  0.65585  0.86433  0.30492  1.0000
  S   S385      1.0  0.56708  0.79928  0.48917  1.0000
  H   H2238     1.0  0.55111  0.91326  0.03706  1.0000
  H   H2239     1.0  0.56842  0.76313  0.00540  1.0000
  H   H2240     1.0  0.47318  0.87659  0.06272  1.0000
  C   C2759     1.0  0.46271  0.64426  0.18192  1.0000
  P   P91       1.0  0.54277  0.93462  0.43962  1.0000
  C   C2760     1.0  0.53444  0.91545  0.41728  1.0000
  C   C2761     1.0  0.50120  0.96400  0.02001  1.0000
  C   C2762     1.0  0.54001  0.94993  0.38257  1.0000
  H   H2241     1.0  0.51596  0.81083  0.02414  1.0000
  C   C2763     1.0  0.52996  0.73811  0.42515  1.0000
  H   H2242     1.0  0.51504  0.87284  0.37451  1.0000
  C   C2764     1.0  0.50100  0.88640  0.09739  1.0000
  C   C2765     1.0  0.51886  0.91005  0.40673  1.0000
  C   C2766     1.0  0.51209  0.89494  0.39051  1.0000
  C   C2767     1.0  0.52065  0.88493  0.38542  1.0000
  C   C2768     1.0  0.53610  0.89013  0.39611  1.0000
  C   C2769     1.0  0.54303  0.90536  0.41187  1.0000
  C   C2770     1.0  0.49371  0.86051  0.14066  1.0000
  C   C2771     1.0  0.56630  0.70827  0.49043  1.0000
  H   H2243     1.0  0.50998  0.74451  0.43587  1.0000
  H   H2244     1.0  0.46062  0.90275  0.06309  1.0000
  C   C2772     1.0  0.57519  0.94279  0.43723  1.0000
  H   H2245     1.0  0.50022  0.95624  0.99874  1.0000
  C   C2773     1.0  0.62591  0.84980  0.01993  1.0000
  C   C2774     1.0  0.48621  0.96759  0.49560  1.0000
  C   C2775     1.0  0.52804  0.75474  0.47110  1.0000
  H   H2246     1.0  0.68136  0.83480  0.04214  1.0000
  C   C2776     1.0  0.68821  0.87974  0.45614  1.0000
  H   H2247     1.0  0.53253  0.93794  0.37354  1.0000
  H   H2248     1.0  0.69911  0.88660  0.31690  1.0000
  C   C2777     1.0  0.64027  0.84886  0.02799  1.0000
  H   H2249     1.0  0.46940  0.65864  0.27134  1.0000
  H   H2250     1.0  0.64494  0.84738  0.47326  1.0000
  H   H2251     1.0  0.51188  0.91744  0.41145  1.0000
  H   H2252     1.0  0.49994  0.89061  0.38314  1.0000
  C   C2778     1.0  0.49072  0.92546  0.22504  1.0000
  H   H2253     1.0  0.54253  0.88211  0.39309  1.0000
  H   H2254     1.0  0.55490  0.90894  0.42046  1.0000
  C   C2779     1.0  0.69521  0.84858  0.48397  1.0000
  C   C2780     1.0  0.47754  0.82135  0.35732  1.0000
  C   C2781     1.0  0.49467  0.85752  0.10755  1.0000
  C   C2782     1.0  0.56137  0.93650  0.45628  1.0000
  H   H2255     1.0  0.49732  0.92823  0.24719  1.0000
  C   C2783     1.0  0.50431  0.93091  0.07723  1.0000
  C   C2784     1.0  0.49964  0.92333  0.04718  1.0000
  C   C2785     1.0  0.50464  0.84909  0.03569  1.0000
  C   C2786     1.0  0.53967  0.90741  0.02619  1.0000
  C   C2787     1.0  0.47745  0.91778  0.09796  1.0000
  C   C2788     1.0  0.49327  0.92821  0.10254  1.0000
  H   H2256     1.0  0.66271  0.91487  0.29258  1.0000
  H   H2257     1.0  0.59857  0.71212  0.44409  1.0000
  H   H2258     1.0  0.46119  0.89598  0.26719  1.0000
  H   H2259     1.0  0.50296  0.78229  0.44823  1.0000
  H   H2260     1.0  0.69052  0.75588  0.41869  1.0000
  H   H2261     1.0  0.48336  0.96376  0.09298  1.0000
  C   C2789     1.0  0.47723  0.66435  0.22215  1.0000
  C   C2790     1.0  0.45906  0.90721  0.27035  1.0000
  C   C2791     1.0  0.58015  0.72005  0.43046  1.0000
  C   C2792     1.0  0.58833  0.77174  0.37343  1.0000
  C   C2793     1.0  0.47317  0.91816  0.16825  1.0000
  C   C2794     1.0  0.47619  0.90576  0.18408  1.0000
  C   C2795     1.0  0.66478  0.90552  0.30614  1.0000
  H   H2262     1.0  0.69098  0.84449  0.37687  1.0000
  C   C2796     1.0  0.70057  0.78214  0.42673  1.0000
  C   C2797     1.0  0.56441  0.68968  0.12976  1.0000
  H   H2263     1.0  0.51649  0.93900  0.08075  1.0000
  C   C2798     1.0  0.51077  0.65883  0.19433  1.0000
  H   H2264     1.0  0.61227  0.67683  0.07504  1.0000
  C   C2799     1.0  0.56583  0.72450  0.09572  1.0000
  H   H2265     1.0  0.49714  0.93429  0.12550  1.0000
  C   C2800     1.0  0.52524  0.94784  0.47937  1.0000
  H   H2266     1.0  0.50666  0.65118  0.14452  1.0000
  C   C2801     1.0  0.50868  0.65329  0.22614  1.0000
  C   C2802     1.0  0.55423  0.67728  0.14954  1.0000
  C   C2803     1.0  0.46216  0.93186  0.30134  1.0000
  C   C2804     1.0  0.55155  0.74892  0.46233  1.0000
  P   P92       1.0  0.46299  0.91404  0.13031  1.0000
  H   H2267     1.0  0.48085  0.83121  0.04284  1.0000
  C   C2805     1.0  0.50596  0.96151  0.32876  1.0000
  H   H2268     1.0  0.48727  0.89982  0.22448  1.0000
  C   C2806     1.0  0.70194  0.83395  0.22974  1.0000
  C   C2807     1.0  0.51273  0.82144  0.02725  1.0000
  H   H2269     1.0  0.67425  0.82864  0.46778  1.0000
  H   H2270     1.0  0.57824  0.72734  0.00536  1.0000
  C   C2808     1.0  0.60588  0.77372  0.49057  1.0000
  C   C2809     1.0  0.57709  0.76070  0.39398  1.0000
  C   C2810     1.0  0.52716  0.68346  0.37925  1.0000
  C   C2811     1.0  0.56122  0.72904  0.04027  1.0000
  C   C2812     1.0  0.53652  0.71604  0.35945  1.0000
  H   H2271     1.0  0.68432  0.90155  0.37183  1.0000
  Fe  Fe191     1.0  0.54845  0.83193  0.48277  1.0000
  H   H2272     1.0  0.58546  0.72412  0.40702  1.0000
  C   C2813     1.0  0.53759  0.69623  0.39800  1.0000
  C   C2814     1.0  0.50012  0.88937  0.13051  1.0000
  C   C2815     1.0  0.51883  0.80149  0.30159  1.0000
  H   H2273     1.0  0.50846  0.96817  0.12868  1.0000
  S   S386      1.0  0.69893  0.86034  0.15256  1.0000
  C   C2816     1.0  0.50895  0.79362  0.40159  1.0000
  H   H2274     1.0  0.69856  0.88211  0.47051  1.0000
  H   H2275     1.0  0.51926  0.84100  0.31827  1.0000
  C   C2817     1.0  0.62437  0.86501  0.02223  1.0000
  C   C2818     1.0  0.54504  0.73964  0.43454  1.0000
  C   C2819     1.0  0.50760  0.79124  0.36806  1.0000
  H   H2276     1.0  0.61261  0.80622  0.16913  1.0000
  P   P93       1.0  0.49939  0.86679  0.04270  1.0000
  H   H2277     1.0  0.65112  0.88564  0.27463  1.0000
  C   C2820     1.0  0.65823  0.88905  0.29606  1.0000
  C   C2821     1.0  0.66094  0.87696  0.31341  1.0000
  C   C2822     1.0  0.67019  0.88128  0.34114  1.0000
  C   C2823     1.0  0.67687  0.89789  0.35090  1.0000
  P   P94       1.0  0.67462  0.86605  0.36295  1.0000
  C   C2824     1.0  0.67462  0.87144  0.40532  1.0000
  C   C2825     1.0  0.66007  0.84578  0.35412  1.0000
  C   C2826     1.0  0.66133  0.83784  0.32502  1.0000
  C   C2827     1.0  0.64991  0.82249  0.31694  1.0000
  C   C2828     1.0  0.63719  0.81482  0.33785  1.0000
  C   C2829     1.0  0.63594  0.82248  0.36707  1.0000
  C   C2830     1.0  0.64736  0.83787  0.37531  1.0000
  C   C2831     1.0  0.66186  0.87464  0.41882  1.0000
  C   C2832     1.0  0.66218  0.87999  0.45093  1.0000
  C   C2833     1.0  0.67536  0.88253  0.46955  1.0000
  C   C2834     1.0  0.58756  0.71314  0.45136  1.0000
  S   S387      1.0  0.70135  0.90313  0.11649  1.0000
  H   H2278     1.0  0.53040  0.95908  0.46586  1.0000
  C   C2835     1.0  0.48391  0.91313  0.04240  1.0000
  C   C2836     1.0  0.55822  0.67604  0.18134  1.0000
  C   C2837     1.0  0.52154  0.74567  0.44336  1.0000
  C   C2838     1.0  0.47003  0.86938  0.04078  1.0000
  H   H2279     1.0  0.63591  0.89086  0.03437  1.0000
  C   C2839     1.0  0.49786  0.84432  0.33117  1.0000
  H   H2280     1.0  0.67927  0.92272  0.34126  1.0000
  C   C2840     1.0  0.46255  0.97124  0.27328  1.0000
  Fe  Fe192     1.0  0.70737  0.88051  0.11441  1.0000
  C   C2841     1.0  0.47898  0.93425  0.18131  1.0000
  H   H2281     1.0  0.67113  0.84351  0.30840  1.0000
  H   H2282     1.0  0.65107  0.81646  0.29455  1.0000
  H   H2283     1.0  0.62847  0.80281  0.33155  1.0000
  H   H2284     1.0  0.62615  0.81641  0.38340  1.0000
  H   H2285     1.0  0.64623  0.84341  0.39819  1.0000
  H   H2286     1.0  0.65174  0.87316  0.40442  1.0000
  H   H2287     1.0  0.65232  0.88236  0.46147  1.0000
  C   C2842     1.0  0.48028  0.86277  0.02605  1.0000
  C   C2843     1.0  0.48759  0.93782  0.20971  1.0000
  C   C2844     1.0  0.68783  0.87406  0.42429  1.0000
  C   C2845     1.0  0.49056  0.95831  0.04584  1.0000
  H   H2288     1.0  0.48547  0.74998  0.36665  1.0000
  H   H2289     1.0  0.64162  0.83722  0.02582  1.0000
  C   C2846     1.0  0.47283  0.91047  0.06754  1.0000
  H   H2290     1.0  0.55408  0.73173  0.02262  1.0000
  P   P95       1.0  0.59132  0.71777  0.11669  1.0000
  C   C2847     1.0  0.57864  0.70114  0.14184  1.0000
  C   C2848     1.0  0.60593  0.71138  0.09749  1.0000
  S   S388      1.0  0.56551  0.82867  0.01459  1.0000
  C   C2849     1.0  0.57015  0.74391  0.38557  1.0000
  H   H2291     1.0  0.47173  0.89324  0.17490  1.0000
  H   H2292     1.0  0.50365  0.89653  0.08093  1.0000
  C   C2850     1.0  0.60309  0.69461  0.09310  1.0000
  C   C2851     1.0  0.58273  0.69953  0.17366  1.0000
  C   C2852     1.0  0.57253  0.68706  0.19330  1.0000
  C   C2853     1.0  0.68675  0.83520  0.46370  1.0000
  C   C2854     1.0  0.60147  0.73613  0.14063  1.0000
  C   C2855     1.0  0.59722  0.74983  0.13937  1.0000
  C   C2856     1.0  0.60478  0.76377  0.15856  1.0000
  C   C2857     1.0  0.61684  0.76429  0.17884  1.0000
  C   C2858     1.0  0.62144  0.75090  0.17979  1.0000
  C   C2859     1.0  0.61387  0.73691  0.16062  1.0000
  C   C2860     1.0  0.69432  0.83033  0.43801  1.0000
  P   P96       1.0  0.51570  0.80863  0.34146  1.0000
  C   C2861     1.0  0.57484  0.72657  0.03063  1.0000
  C   C2862     1.0  0.52128  0.91944  0.48891  1.0000
  H   H2293     1.0  0.59211  0.68520  0.10127  1.0000
  H   H2294     1.0  0.59339  0.70819  0.18411  1.0000
  H   H2295     1.0  0.50355  0.95624  0.30474  1.0000
  H   H2296     1.0  0.54186  0.69320  0.42002  1.0000
  H   H2297     1.0  0.58795  0.74987  0.12402  1.0000
  C   C2863     1.0  0.62024  0.72326  0.08635  1.0000
  H   H2298     1.0  0.62242  0.77494  0.19427  1.0000
  H   H2299     1.0  0.63057  0.75120  0.19612  1.0000
  H   H2300     1.0  0.61750  0.72659  0.16189  1.0000
  C   C2864     1.0  0.64439  0.80564  0.03401  1.0000
  C   C2865     1.0  0.66011  0.81523  0.02635  1.0000
  C   C2866     1.0  0.66911  0.82747  0.04784  1.0000
  C   C2867     1.0  0.66237  0.83030  0.07681  1.0000
  C   C2868     1.0  0.64650  0.82098  0.08437  1.0000
  C   C2869     1.0  0.63765  0.80834  0.06312  1.0000
  P   P97       1.0  0.63832  0.82402  0.12290  1.0000
  C   C2870     1.0  0.64433  0.81318  0.15315  1.0000
  C   C2871     1.0  0.64612  0.84596  0.13135  1.0000
  C   C2872     1.0  0.65938  0.85315  0.15077  1.0000
  C   C2873     1.0  0.66591  0.87020  0.15595  1.0000
  C   C2874     1.0  0.65940  0.88025  0.14148  1.0000
  C   C2875     1.0  0.64625  0.87325  0.12209  1.0000
  C   C2876     1.0  0.63966  0.85622  0.11693  1.0000
  C   C2877     1.0  0.64342  0.81693  0.18607  1.0000
  C   C2878     1.0  0.64884  0.80915  0.20928  1.0000
  C   C2879     1.0  0.65524  0.79763  0.19983  1.0000
  C   C2880     1.0  0.65594  0.79363  0.16724  1.0000
  C   C2881     1.0  0.65046  0.80130  0.14397  1.0000
  C   C2882     1.0  0.61708  0.81703  0.12153  1.0000
  C   C2883     1.0  0.60756  0.80903  0.14795  1.0000
  C   C2884     1.0  0.59123  0.80447  0.14723  1.0000
  C   C2885     1.0  0.58430  0.80809  0.12042  1.0000
  C   C2886     1.0  0.59362  0.81572  0.09378  1.0000
  C   C2887     1.0  0.60991  0.82009  0.09427  1.0000
  H   H2301     1.0  0.63737  0.79615  0.01738  1.0000
  H   H2302     1.0  0.48134  0.94614  0.04436  1.0000
  C   C2888     1.0  0.52430  0.83729  0.02488  1.0000
  H   H2303     1.0  0.66960  0.83971  0.09339  1.0000
  H   H2304     1.0  0.62554  0.80061  0.06888  1.0000
  H   H2305     1.0  0.66510  0.84574  0.16111  1.0000
  H   H2306     1.0  0.67639  0.87564  0.17029  1.0000
  H   H2307     1.0  0.66482  0.89351  0.14449  1.0000
  H   H2308     1.0  0.64152  0.88112  0.11000  1.0000
  H   H2309     1.0  0.62987  0.85131  0.10082  1.0000
  H   H2310     1.0  0.63875  0.82606  0.19372  1.0000
  H   H2311     1.0  0.64828  0.81212  0.23465  1.0000
  H   H2312     1.0  0.65967  0.79181  0.21778  1.0000
  H   H2313     1.0  0.66088  0.78466  0.16004  1.0000
  H   H2314     1.0  0.65126  0.79806  0.11887  1.0000
  P   P98       1.0  0.55579  0.72937  0.41196  1.0000
  C   C2889     1.0  0.62876  0.70168  0.06734  1.0000
  H   H2315     1.0  0.52465  0.73122  0.40373  1.0000
  C   C2890     1.0  0.52588  0.78991  0.29818  1.0000
  C   C2891     1.0  0.52596  0.70329  0.34101  1.0000
  C   C2892     1.0  0.50235  0.81931  0.34109  1.0000
  C   C2893     1.0  0.51906  0.97384  0.17520  1.0000
  H   H2316     1.0  0.69346  0.85743  0.99908  1.0000
  H   H2317     1.0  0.50835  0.81578  0.27568  1.0000
  C   C2894     1.0  0.51623  0.80105  0.24333  1.0000
  C   C2895     1.0  0.49840  0.87047  0.08564  1.0000
  C   C2896     1.0  0.51397  0.80701  0.27388  1.0000
  H   H2318     1.0  0.51245  0.80529  0.22199  1.0000
  C   C2897     1.0  0.49890  0.77542  0.35565  1.0000
  C   C2898     1.0  0.52324  0.78950  0.24026  1.0000
  H   H2319     1.0  0.64269  0.72762  0.06306  1.0000
  H   H2320     1.0  0.60104  0.77472  0.32800  1.0000
  C   C2899     1.0  0.54238  0.71264  0.38814  1.0000
  C   C2900     1.0  0.63162  0.71841  0.07139  1.0000
  H   H2321     1.0  0.52490  0.78477  0.21666  1.0000
  H   H2322     1.0  0.47694  0.94411  0.16949  1.0000
  C   C2901     1.0  0.50190  0.78036  0.42234  1.0000
  C   C2902     1.0  0.49174  0.96833  0.07320  1.0000
  C   C2903     1.0  0.49707  0.81934  0.03351  1.0000
  H   H2323     1.0  0.66537  0.81316  0.00387  1.0000
  H   H2324     1.0  0.48076  0.96126  0.27517  1.0000
  C   C2904     1.0  0.48296  0.83742  0.34582  1.0000
  H   H2325     1.0  0.61335  0.86589  0.01611  1.0000
  C   C2905     1.0  0.49647  0.87642  0.15215  1.0000
  H   H2326     1.0  0.52805  0.87937  0.48347  1.0000
  C   C2906     1.0  0.50512  0.64709  0.16923  1.0000
  C   C2907     1.0  0.65466  0.78990  0.47887  1.0000
  H   H2327     1.0  0.49182  0.95019  0.21990  1.0000
  H   H2328     1.0  0.49090  0.85046  0.15743  1.0000
  C   C2908     1.0  0.54629  0.95202  0.41364  1.0000
  C   C2909     1.0  0.55890  0.71525  0.46965  1.0000
  H   H2329     1.0  0.46747  0.88310  0.11887  1.0000
  C   C2910     1.0  0.70110  0.76650  0.42409  1.0000
  H   H2330     1.0  0.51936  0.96175  0.17804  1.0000
  C   C2911     1.0  0.47781  0.97147  0.26816  1.0000
  C   C2912     1.0  0.54324  0.96351  0.36265  1.0000
  H   H2331     1.0  0.64570  0.82026  0.48328  1.0000
  H   H2332     1.0  0.56079  0.96984  0.44821  1.0000
  C   C2913     1.0  0.47477  0.65923  0.18995  1.0000
  H   H2333     1.0  0.45877  0.93406  0.07777  1.0000
  C   C2914     1.0  0.47604  0.85406  0.99677  1.0000
  H   H2334     1.0  0.48865  0.96877  0.46982  1.0000
  C   C2915     1.0  0.70260  0.87709  0.32595  1.0000
  C   C2916     1.0  0.51047  0.89182  0.99709  1.0000
  H   H2335     1.0  0.46605  0.81612  0.36905  1.0000
  C   C2917     1.0  0.59025  0.93824  0.48044  1.0000
  H   H2336     1.0  0.52149  0.76058  0.48526  1.0000
  H   H2337     1.0  0.60136  0.93880  0.48970  1.0000
  H   H2338     1.0  0.47309  0.94137  0.49260  1.0000
  H   H2339     1.0  0.70135  0.96787  0.09621  1.0000
  C   C2918     1.0  0.51282  0.97489  0.39080  1.0000
  C   C2919     1.0  0.53617  0.91404  0.99853  1.0000
  Fe  Fe193     1.0  0.55254  0.80271  0.99691  1.0000
  S   S389      1.0  0.70831  0.75650  0.33360  1.0000
  C   C2920     1.0  0.70842  0.97160  0.11763  1.0000
  Fe  Fe194     1.0  0.68528  0.89536  0.56486  1.0000
  C   C2921     1.0  0.47974  0.96436  0.56190  1.0000
  S   S390      1.0  0.66149  0.89543  0.55084  1.0000
  C   C2922     1.0  0.47936  0.93020  0.78479  1.0000
  S   S391      1.0  0.69753  0.90846  0.60972  1.0000
  S   S392      1.0  0.69035  0.87276  0.57240  1.0000
  S   S393      1.0  0.68307  0.78236  0.85103  1.0000
  S   S394      1.0  0.68701  0.81569  0.81249  1.0000
  H   H2340     1.0  0.62980  0.88993  0.53355  1.0000
  Fe  Fe195     1.0  0.67932  0.78868  0.80062  1.0000
  S   S395      1.0  0.65887  0.77892  0.76601  1.0000
  C   C2923     1.0  0.58786  0.82511  0.61146  1.0000
  H   H2341     1.0  0.55170  0.92582  0.50255  1.0000
  H   H2342     1.0  0.48069  0.96717  0.88400  1.0000
  H   H2343     1.0  0.67690  0.83554  0.96169  1.0000
  Fe  Fe196     1.0  0.56631  0.80990  0.92836  1.0000
  S   S396      1.0  0.54402  0.81020  0.95152  1.0000
  S   S397      1.0  0.57030  0.80264  0.87666  1.0000
  Fe  Fe197     1.0  0.55869  0.83609  0.96717  1.0000
  S   S398      1.0  0.55247  0.85876  0.96239  1.0000
  C   C2924     1.0  0.47185  0.78906  0.92221  1.0000
  S   S399      1.0  0.53091  0.77802  0.54572  1.0000
  S   S400      1.0  0.58069  0.83638  0.94125  1.0000
  S   S401      1.0  0.57366  0.80052  0.97240  1.0000
  Fe  Fe198     1.0  0.48440  0.91880  0.90686  1.0000
  S   S402      1.0  0.48254  0.89890  0.87015  1.0000
  S   S403      1.0  0.50059  0.94567  0.91251  1.0000
  C   C2925     1.0  0.68859  0.83316  0.56461  1.0000
  Fe  Fe199     1.0  0.47924  0.88220  0.91258  1.0000
  S   S404      1.0  0.48756  0.86076  0.91514  1.0000
  P   P99       1.0  0.59975  0.76626  0.90534  1.0000
  S   S405      1.0  0.48321  0.90265  0.94882  1.0000
  C   C2926     1.0  0.60827  0.75105  0.91019  1.0000
  Fe  Fe200     1.0  0.54296  0.72762  0.75417  1.0000
  S   S406      1.0  0.56714  0.74274  0.73543  1.0000
  S   S407      1.0  0.53193  0.73750  0.79561  1.0000
  Fe  Fe201     1.0  0.53994  0.69768  0.70991  1.0000
  S   S408      1.0  0.56440  0.71124  0.68897  1.0000
  S   S409      1.0  0.52746  0.67197  0.68644  1.0000
  Fe  Fe202     1.0  0.57179  0.71965  0.73958  1.0000
  S   S410      1.0  0.59288  0.71833  0.76507  1.0000
  Fe  Fe203     1.0  0.55766  0.73327  0.68622  1.0000
  S   S411      1.0  0.56727  0.75197  0.64578  1.0000
  S   S412      1.0  0.54796  0.70470  0.76098  1.0000
  S   S413      1.0  0.53284  0.71952  0.70440  1.0000
  C   C2927     1.0  0.61716  0.86361  0.52937  1.0000
  H   H2344     1.0  0.50190  0.95816  0.71261  1.0000
  H   H2345     1.0  0.46968  0.96632  0.98321  1.0000
  C   C2928     1.0  0.46324  0.91677  0.72838  1.0000
  H   H2346     1.0  0.50890  0.65718  0.74523  1.0000
  C   C2929     1.0  0.55916  0.78441  0.85502  1.0000
  C   C2930     1.0  0.56462  0.78187  0.82428  1.0000
  C   C2931     1.0  0.55668  0.76736  0.80644  1.0000
  C   C2932     1.0  0.54277  0.75544  0.81855  1.0000
  C   C2933     1.0  0.53696  0.75822  0.84893  1.0000
  C   C2934     1.0  0.54517  0.77258  0.86723  1.0000
  H   H2347     1.0  0.57517  0.79113  0.81430  1.0000
  H   H2348     1.0  0.56129  0.76543  0.78324  1.0000
  H   H2349     1.0  0.52612  0.74914  0.85844  1.0000
  H   H2350     1.0  0.54069  0.77448  0.89070  1.0000
  C   C2935     1.0  0.55627  0.75941  0.62039  1.0000
  C   C2936     1.0  0.56370  0.77512  0.60695  1.0000
  C   C2937     1.0  0.55604  0.78097  0.58423  1.0000
  C   C2938     1.0  0.54076  0.77118  0.57481  1.0000
  C   C2939     1.0  0.53314  0.75564  0.58886  1.0000
  C   C2940     1.0  0.54086  0.74975  0.61150  1.0000
  H   H2351     1.0  0.57539  0.78287  0.61432  1.0000
  H   H2352     1.0  0.56196  0.79308  0.57407  1.0000
  H   H2353     1.0  0.52128  0.74802  0.58186  1.0000
  H   H2354     1.0  0.53501  0.73762  0.62160  1.0000
  C   C2941     1.0  0.53430  0.85901  0.94928  1.0000
  C   C2942     1.0  0.52092  0.84457  0.94547  1.0000
  C   C2943     1.0  0.50669  0.84533  0.93530  1.0000
  C   C2944     1.0  0.50570  0.86052  0.92850  1.0000
  C   C2945     1.0  0.51912  0.87493  0.93197  1.0000
  C   C2946     1.0  0.53327  0.87419  0.94270  1.0000
  H   H2355     1.0  0.52152  0.83285  0.95075  1.0000
  H   H2356     1.0  0.49639  0.83407  0.93285  1.0000
  H   H2357     1.0  0.51862  0.88664  0.92615  1.0000
  H   H2358     1.0  0.46692  0.93860  0.55104  1.0000
  C   C2947     1.0  0.48857  0.81582  0.79966  1.0000
  H   H2359     1.0  0.45911  0.78387  0.92434  1.0000
  C   C2948     1.0  0.50918  0.95151  0.84813  1.0000
  H   H2360     1.0  0.60762  0.79385  0.85946  1.0000
  H   H2361     1.0  0.50499  0.93829  0.84503  1.0000
  C   C2949     1.0  0.64044  0.76219  0.76752  1.0000
  C   C2950     1.0  0.62910  0.76154  0.74485  1.0000
  C   C2951     1.0  0.61432  0.74843  0.74455  1.0000
  C   C2952     1.0  0.61086  0.73565  0.76653  1.0000
  C   C2953     1.0  0.62212  0.73636  0.78945  1.0000
  C   C2954     1.0  0.63684  0.74965  0.79015  1.0000
  H   H2362     1.0  0.63187  0.77113  0.72713  1.0000
  H   H2363     1.0  0.60577  0.74792  0.72669  1.0000
  H   H2364     1.0  0.61949  0.72648  0.80648  1.0000
  H   H2365     1.0  0.64551  0.74999  0.80757  1.0000
  C   C2955     1.0  0.63677  0.87286  0.62895  1.0000
  H   H2366     1.0  0.66704  0.90040  0.97796  1.0000
  C   C2956     1.0  0.54114  0.85531  0.87049  1.0000
  H   H2367     1.0  0.59679  0.79297  0.49930  1.0000
  C   C2957     1.0  0.60763  0.79580  0.58675  1.0000
  C   C2958     1.0  0.69606  0.84932  0.70848  1.0000
  H   H2368     1.0  0.69437  0.83200  0.74603  1.0000
  H   H2369     1.0  0.68350  0.84571  0.70691  1.0000
  C   C2959     1.0  0.64500  0.87707  0.54311  1.0000
  C   C2960     1.0  0.64593  0.86162  0.54488  1.0000
  H   H2370     1.0  0.51892  0.91130  0.96234  1.0000
  C   C2961     1.0  0.69889  0.85331  0.97914  1.0000
  H   H2371     1.0  0.64911  0.78672  0.57185  1.0000
  C   C2962     1.0  0.63059  0.87801  0.53508  1.0000
  H   H2372     1.0  0.65696  0.86071  0.55068  1.0000
  C   C2963     1.0  0.47915  0.79563  0.89287  1.0000
  C   C2964     1.0  0.60776  0.79892  0.92401  1.0000
  H   H2373     1.0  0.62228  0.75749  0.86599  1.0000
  C   C2965     1.0  0.60215  0.78233  0.84657  1.0000
  C   C2966     1.0  0.48408  0.93490  0.61600  1.0000
  H   H2374     1.0  0.47574  0.81971  0.75995  1.0000
  H   H2375     1.0  0.52630  0.97274  0.63574  1.0000
  H   H2376     1.0  0.53574  0.80938  0.86453  1.0000
  C   C2967     1.0  0.57857  0.83342  0.60155  1.0000
  H   H2377     1.0  0.59291  0.76814  0.76980  1.0000
  H   H2378     1.0  0.54256  0.86807  0.87354  1.0000
  H   H2379     1.0  0.64410  0.77806  0.83254  1.0000
  C   C2968     1.0  0.58251  0.77077  0.52295  1.0000
  H   H2380     1.0  0.63441  0.88389  0.62558  1.0000
  C   C2969     1.0  0.70222  0.84161  0.73080  1.0000
  H   H2381     1.0  0.51130  0.95762  0.50917  1.0000
  C   C2970     1.0  0.58151  0.76112  0.92819  1.0000
  C   C2971     1.0  0.56688  0.75502  0.91290  1.0000
  H   H2382     1.0  0.49775  0.93163  0.53890  1.0000
  C   C2972     1.0  0.47002  0.93398  0.73251  1.0000
  H   H2383     1.0  0.50448  0.79568  0.96633  1.0000
  C   C2973     1.0  0.56568  0.83308  0.62054  1.0000
  C   C2974     1.0  0.55368  0.85064  0.87682  1.0000
  C   C2975     1.0  0.59393  0.76794  0.79567  1.0000
  C   C2976     1.0  0.64859  0.86327  0.94914  1.0000
  H   H2384     1.0  0.61328  0.82386  0.94021  1.0000
  H   H2385     1.0  0.59600  0.79732  0.91671  1.0000
  H   H2386     1.0  0.59308  0.76899  0.97398  1.0000
  H   H2387     1.0  0.57086  0.74754  0.54646  1.0000
  H   H2388     1.0  0.56611  0.75313  0.88703  1.0000
  C   C2977     1.0  0.50669  0.93243  0.52077  1.0000
  H   H2389     1.0  0.59173  0.81006  0.64735  1.0000
  H   H2390     1.0  0.47673  0.96294  0.58739  1.0000
  H   H2391     1.0  0.56478  0.85977  0.88484  1.0000
  H   H2392     1.0  0.50424  0.90722  0.52603  1.0000
  C   C2978     1.0  0.51372  0.65174  0.69624  1.0000
  H   H2393     1.0  0.50625  0.97212  0.59687  1.0000
  C   C2979     1.0  0.53423  0.76004  0.71456  1.0000
  C   C2980     1.0  0.52395  0.75772  0.68907  1.0000
  C   C2981     1.0  0.52709  0.76992  0.66595  1.0000
  C   C2982     1.0  0.54049  0.78444  0.66831  1.0000
  C   C2983     1.0  0.55092  0.78691  0.69395  1.0000
  C   C2984     1.0  0.54770  0.77447  0.71684  1.0000
  P   P100      1.0  0.56782  0.80607  0.69861  1.0000
  C   C2985     1.0  0.57203  0.81690  0.66067  1.0000
  C   C2986     1.0  0.56377  0.81767  0.73198  1.0000
  C   C2987     1.0  0.56492  0.83396  0.72848  1.0000
  C   C2988     1.0  0.56163  0.84252  0.75471  1.0000
  C   C2989     1.0  0.55771  0.83513  0.78489  1.0000
  C   C2990     1.0  0.55731  0.81925  0.78898  1.0000
  C   C2991     1.0  0.56031  0.81058  0.76271  1.0000
  C   C2992     1.0  0.70494  0.78374  0.92361  1.0000
  H   H2394     1.0  0.63263  0.77853  0.92824  1.0000
  C   C2993     1.0  0.50869  0.95825  0.87875  1.0000
  C   C2994     1.0  0.69640  0.83538  0.93189  1.0000
  C   C2995     1.0  0.47707  0.83646  0.83501  1.0000
  C   C2996     1.0  0.58499  0.80221  0.70951  1.0000
  C   C2997     1.0  0.59731  0.81444  0.72575  1.0000
  C   C2998     1.0  0.61077  0.81170  0.73383  1.0000
  C   C2999     1.0  0.61218  0.79685  0.72516  1.0000
  C   C3000     1.0  0.60003  0.78472  0.70855  1.0000
  C   C3001     1.0  0.58650  0.78739  0.70076  1.0000
  H   H2395     1.0  0.53188  0.75052  0.73234  1.0000
  H   H2396     1.0  0.51372  0.74632  0.68690  1.0000
  H   H2397     1.0  0.51934  0.76795  0.64565  1.0000
  H   H2398     1.0  0.54271  0.79338  0.64950  1.0000
  H   H2399     1.0  0.55572  0.77567  0.73613  1.0000
  H   H2400     1.0  0.56850  0.84026  0.70584  1.0000
  H   H2401     1.0  0.56226  0.85498  0.75172  1.0000
  H   H2402     1.0  0.55522  0.84179  0.80519  1.0000
  H   H2403     1.0  0.55467  0.81357  0.81253  1.0000
  H   H2404     1.0  0.56003  0.79838  0.76670  1.0000
  H   H2405     1.0  0.54174  0.74722  0.91893  1.0000
  C   C3002     1.0  0.55351  0.75456  0.96428  1.0000
  H   H2406     1.0  0.48257  0.95375  0.76607  1.0000
  C   C3003     1.0  0.69228  0.78645  0.93822  1.0000
  H   H2407     1.0  0.55204  0.82423  0.66383  1.0000
  H   H2408     1.0  0.59657  0.82613  0.73194  1.0000
  H   H2409     1.0  0.62012  0.82115  0.74663  1.0000
  H   H2410     1.0  0.62266  0.79476  0.73117  1.0000
  H   H2411     1.0  0.60102  0.77316  0.70167  1.0000
  H   H2412     1.0  0.57727  0.77796  0.68774  1.0000
  C   C3004     1.0  0.61632  0.85402  0.78375  1.0000
  C   C3005     1.0  0.60137  0.84302  0.79324  1.0000
  C   C3006     1.0  0.59973  0.83202  0.81814  1.0000
  C   C3007     1.0  0.61303  0.83216  0.83392  1.0000
  C   C3008     1.0  0.62810  0.84337  0.82491  1.0000
  C   C3009     1.0  0.62967  0.85420  0.79943  1.0000
  P   P101      1.0  0.64518  0.84308  0.84507  1.0000
  C   C3010     1.0  0.64591  0.85008  0.88644  1.0000
  C   C3011     1.0  0.64447  0.82230  0.84198  1.0000
  C   C3012     1.0  0.65009  0.81546  0.86662  1.0000
  C   C3013     1.0  0.63831  0.79698  0.81083  1.0000
  C   C3014     1.0  0.63854  0.81289  0.81406  1.0000
  C   C3015     1.0  0.65981  0.85363  0.90369  1.0000
  P   P102      1.0  0.50511  0.81093  0.85204  1.0000
  C   C3016     1.0  0.65064  0.78752  0.54585  1.0000
  C   C3017     1.0  0.63466  0.85965  0.93239  1.0000
  C   C3018     1.0  0.63331  0.85313  0.90103  1.0000
  C   C3019     1.0  0.66303  0.85716  0.82615  1.0000
  C   C3020     1.0  0.66737  0.87420  0.83080  1.0000
  C   C3021     1.0  0.68108  0.88531  0.81617  1.0000
  C   C3022     1.0  0.69062  0.87948  0.79703  1.0000
  C   C3023     1.0  0.68648  0.86256  0.79269  1.0000
  C   C3024     1.0  0.67276  0.85140  0.80720  1.0000
  H   H2413     1.0  0.61757  0.86250  0.76431  1.0000
  H   H2414     1.0  0.59105  0.84300  0.78127  1.0000
  H   H2415     1.0  0.58813  0.82346  0.82547  1.0000
  H   H2416     1.0  0.61153  0.82361  0.85338  1.0000
  H   H2417     1.0  0.64110  0.86278  0.79149  1.0000
  H   H2418     1.0  0.65480  0.82233  0.88837  1.0000
  H   H2419     1.0  0.63382  0.78980  0.78915  1.0000
  H   H2420     1.0  0.63413  0.81782  0.79468  1.0000
  H   H2421     1.0  0.66969  0.85142  0.89294  1.0000
  C   C3025     1.0  0.61300  0.78593  0.92066  1.0000
  H   H2422     1.0  0.47530  0.78398  0.97143  1.0000
  H   H2423     1.0  0.62489  0.86183  0.94388  1.0000
  H   H2424     1.0  0.62247  0.85065  0.88848  1.0000
  H   H2425     1.0  0.66008  0.87889  0.84560  1.0000
  H   H2426     1.0  0.68427  0.89844  0.81951  1.0000
  C   C3026     1.0  0.59135  0.74822  0.51886  1.0000
  H   H2427     1.0  0.69406  0.85812  0.77829  1.0000
  H   H2428     1.0  0.66992  0.83837  0.80371  1.0000
  C   C3027     1.0  0.50825  0.79511  0.82764  1.0000
  C   C3028     1.0  0.50272  0.77873  0.83808  1.0000
  C   C3029     1.0  0.50594  0.76679  0.81977  1.0000
  C   C3030     1.0  0.51461  0.77104  0.79093  1.0000
  C   C3031     1.0  0.52011  0.78727  0.78029  1.0000
  C   C3032     1.0  0.51711  0.79932  0.79875  1.0000
  H   H2429     1.0  0.47191  0.79534  0.87250  1.0000
  H   H2430     1.0  0.56083  0.70355  0.51354  1.0000
  H   H2431     1.0  0.49613  0.77512  0.86051  1.0000
  H   H2432     1.0  0.50193  0.75421  0.82809  1.0000
  H   H2433     1.0  0.51718  0.76174  0.77705  1.0000
  H   H2434     1.0  0.52679  0.79048  0.75785  1.0000
  H   H2435     1.0  0.52170  0.81192  0.79054  1.0000
  H   H2436     1.0  0.67489  0.79003  0.54653  1.0000
  H   H2437     1.0  0.57438  0.77598  0.53281  1.0000
  C   C3033     1.0  0.63257  0.81622  0.94752  1.0000
  H   H2438     1.0  0.54275  0.75247  0.97812  1.0000
  H   H2439     1.0  0.61253  0.85734  0.63840  1.0000
  Fe  Fe204     1.0  0.69297  0.80968  0.86154  1.0000
  H   H2440     1.0  0.49363  0.95309  0.65314  1.0000
  H   H2441     1.0  0.70124  0.88801  0.78549  1.0000
  C   C3034     1.0  0.52650  0.84343  0.86208  1.0000
  H   H2442     1.0  0.63991  0.82780  0.95860  1.0000
  C   C3035     1.0  0.62759  0.84363  0.63910  1.0000
  C   C3036     1.0  0.48095  0.78913  0.94874  1.0000
  C   C3037     1.0  0.47744  0.95213  0.50838  1.0000
  H   H2443     1.0  0.70319  0.84078  0.60653  1.0000
  H   H2444     1.0  0.47381  0.90513  0.79881  1.0000
  Fe  Fe205     1.0  0.57787  0.82581  0.50455  1.0000
  S   S414      1.0  0.60148  0.82959  0.52669  1.0000
  H   H2445     1.0  0.64971  0.86855  0.97315  1.0000
  S   S415      1.0  0.55587  0.82531  0.53056  1.0000
  S   S416      1.0  0.68415  0.81956  0.90616  1.0000
  H   H2446     1.0  0.68109  0.83648  0.64434  1.0000
  C   C3038     1.0  0.50639  0.64774  0.72664  1.0000
  H   H2447     1.0  0.49505  0.93858  0.60232  1.0000
  H   H2448     1.0  0.59369  0.76995  0.59327  1.0000
  H   H2449     1.0  0.60952  0.76706  0.63809  1.0000
  C   C3039     1.0  0.60397  0.75766  0.49899  1.0000
  C   C3040     1.0  0.58459  0.81680  0.64075  1.0000
  H   H2450     1.0  0.58268  0.74153  0.79828  1.0000
  C   C3041     1.0  0.61101  0.72888  0.94013  1.0000
  H   H2451     1.0  0.62679  0.71832  0.91913  1.0000
  C   C3042     1.0  0.46722  0.94654  0.85489  1.0000
  C   C3043     1.0  0.63252  0.84728  0.53932  1.0000
  C   C3044     1.0  0.62971  0.80792  0.62278  1.0000
  C   C3045     1.0  0.62572  0.79249  0.63725  1.0000
  P   P103      1.0  0.64684  0.82554  0.63528  1.0000
  C   C3046     1.0  0.65200  0.82262  0.67568  1.0000
  C   C3047     1.0  0.66314  0.82794  0.60782  1.0000
  C   C3048     1.0  0.66060  0.82533  0.57460  1.0000
  C   C3049     1.0  0.67326  0.82786  0.55316  1.0000
  C   C3050     1.0  0.64891  0.83136  0.70195  1.0000
  C   C3051     1.0  0.65305  0.82895  0.73309  1.0000
  C   C3052     1.0  0.66018  0.81775  0.73815  1.0000
  C   C3053     1.0  0.66354  0.80929  0.71200  1.0000
  C   C3054     1.0  0.65943  0.81164  0.68094  1.0000
  H   H2452     1.0  0.63237  0.79081  0.65695  1.0000
  H   H2453     1.0  0.64892  0.82156  0.56501  1.0000
  P   P104      1.0  0.46803  0.94738  0.70190  1.0000
  H   H2454     1.0  0.64354  0.84019  0.69846  1.0000
  H   H2455     1.0  0.65106  0.83604  0.75312  1.0000
  H   H2456     1.0  0.66349  0.81581  0.76211  1.0000
  H   H2457     1.0  0.66958  0.80105  0.71571  1.0000
  H   H2458     1.0  0.66218  0.80497  0.66099  1.0000
  H   H2459     1.0  0.62715  0.78595  0.53832  1.0000
  C   C3055     1.0  0.61806  0.84817  0.53179  1.0000
  C   C3056     1.0  0.57184  0.66829  0.73672  1.0000
  C   C3057     1.0  0.55543  0.66253  0.73665  1.0000
  C   C3058     1.0  0.66515  0.78937  0.53161  1.0000
  Fe  Fe206     1.0  0.54497  0.79919  0.51281  1.0000
  H   H2460     1.0  0.51735  0.80736  0.91494  1.0000
  H   H2461     1.0  0.60048  0.79722  0.56754  1.0000
  C   C3059     1.0  0.48319  0.94314  0.64482  1.0000
  C   C3060     1.0  0.49271  0.81951  0.83213  1.0000
  C   C3061     1.0  0.60070  0.78263  0.81313  1.0000
  H   H2462     1.0  0.57874  0.68145  0.73760  1.0000
  H   H2463     1.0  0.59205  0.66163  0.73544  1.0000
  C   C3062     1.0  0.62573  0.73788  0.89017  1.0000
  H   H2464     1.0  0.60609  0.86446  0.52355  1.0000
  H   H2465     1.0  0.51580  0.95663  0.79798  1.0000
  H   H2466     1.0  0.49260  0.80767  0.78558  1.0000
  C   C3063     1.0  0.57654  0.93187  0.49946  1.0000
  C   C3064     1.0  0.56235  0.82477  0.64988  1.0000
  C   C3065     1.0  0.52432  0.82673  0.85962  1.0000
  H   H2467     1.0  0.59009  0.73597  0.52570  1.0000
  H   H2468     1.0  0.68522  0.80108  0.97269  1.0000
  H   H2469     1.0  0.69359  0.84778  0.86581  1.0000
  C   C3066     1.0  0.46167  0.85178  0.98273  1.0000
  C   C3067     1.0  0.62170  0.72750  0.91677  1.0000
  H   H2470     1.0  0.59750  0.82500  0.59603  1.0000
  C   C3068     1.0  0.57931  0.65709  0.73551  1.0000
  H   H2471     1.0  0.58120  0.83981  0.57874  1.0000
  C   C3069     1.0  0.49736  0.79571  0.94589  1.0000
  C   C3070     1.0  0.46465  0.90645  0.75220  1.0000
  S   S417      1.0  0.70331  0.79075  0.78280  1.0000
  C   C3071     1.0  0.67862  0.83351  0.61910  1.0000
  C   C3072     1.0  0.46901  0.93826  0.66279  1.0000
  C   C3073     1.0  0.66720  0.79074  0.49816  1.0000
  H   H2472     1.0  0.70247  0.71736  0.79313  1.0000
  C   C3074     1.0  0.59679  0.76725  0.86271  1.0000
  H   H2473     1.0  0.67117  0.82591  0.52757  1.0000
  C   C3075     1.0  0.68731  0.89385  0.97520  1.0000
  C   C3076     1.0  0.63819  0.78707  0.52668  1.0000
  C   C3077     1.0  0.66108  0.86007  0.93499  1.0000
  H   H2474     1.0  0.60471  0.79425  0.80076  1.0000
  C   C3078     1.0  0.65219  0.87361  0.62582  1.0000
  C   C3079     1.0  0.67719  0.90080  0.96349  1.0000
  C   C3080     1.0  0.68015  0.90821  0.93325  1.0000
  C   C3081     1.0  0.63798  0.80343  0.94389  1.0000
  Fe  Fe207     1.0  0.58633  0.82705  0.98729  1.0000
  H   H2475     1.0  0.48534  0.93534  0.80687  1.0000
  H   H2476     1.0  0.61804  0.83217  0.64481  1.0000
  C   C3082     1.0  0.68953  0.84089  0.95791  1.0000
  H   H2477     1.0  0.67220  0.91347  0.92415  1.0000
  H   H2478     1.0  0.54355  0.88545  0.94554  1.0000
  C   C3083     1.0  0.50467  0.80233  0.91662  1.0000
  H   H2479     1.0  0.51694  0.84743  0.85851  1.0000
  S   S418      1.0  0.69710  0.87159  0.66248  1.0000
  C   C3084     1.0  0.58965  0.75256  0.84501  1.0000
  C   C3085     1.0  0.54646  0.64562  0.73562  1.0000
  C   C3086     1.0  0.47088  0.92166  0.60511  1.0000
  C   C3087     1.0  0.58055  0.75474  0.53069  1.0000
  C   C3088     1.0  0.51031  0.91867  0.51344  1.0000
  H   H2480     1.0  0.68039  0.77940  0.93047  1.0000
  H   H2481     1.0  0.46575  0.83821  0.79126  1.0000
  C   C3089     1.0  0.47320  0.83294  0.80262  1.0000
  S   S419      1.0  0.70669  0.90732  0.53325  1.0000
  C   C3090     1.0  0.55169  0.83412  0.87406  1.0000
  H   H2482     1.0  0.57703  0.92743  0.52341  1.0000
  H   H2483     1.0  0.47395  0.93940  0.86181  1.0000
  H   H2484     1.0  0.65463  0.79448  0.88198  1.0000
  C   C3091     1.0  0.47417  0.95054  0.54147  1.0000
  H   H2485     1.0  0.54961  0.67119  0.73711  1.0000
  C   C3092     1.0  0.47105  0.96244  0.86744  1.0000
  H   H2486     1.0  0.67175  0.86259  0.94830  1.0000
  C   C3093     1.0  0.60382  0.78051  0.60116  1.0000
  C   C3094     1.0  0.62054  0.80940  0.59742  1.0000
  C   C3095     1.0  0.70391  0.85903  0.86313  1.0000
  H   H2487     1.0  0.49943  0.88575  0.98490  1.0000
  C   C3096     1.0  0.69127  0.83600  0.59761  1.0000
  H   H2488     1.0  0.62322  0.82112  0.58605  1.0000
  H   H2489     1.0  0.66730  0.86017  0.62580  1.0000
  C   C3097     1.0  0.69500  0.79861  0.96214  1.0000
  Fe  Fe208     1.0  0.70787  0.78618  0.83430  1.0000
  C   C3098     1.0  0.64293  0.84414  0.63423  1.0000
  C   C3099     1.0  0.61754  0.81400  0.93719  1.0000
  H   H2490     1.0  0.66173  0.88521  0.62039  1.0000
  C   C3100     1.0  0.65528  0.85932  0.62851  1.0000
  H   H2491     1.0  0.69574  0.91516  0.89209  1.0000
  C   C3101     1.0  0.70062  0.89465  0.95713  1.0000
  C   C3102     1.0  0.61278  0.77889  0.62653  1.0000
  H   H2492     1.0  0.63390  0.73674  0.87184  1.0000
  C   C3103     1.0  0.48665  0.82968  0.84975  1.0000
  C   C3104     1.0  0.58821  0.75294  0.81168  1.0000
  H   H2493     1.0  0.55812  0.83902  0.61213  1.0000
  C   C3105     1.0  0.51538  0.96191  0.82162  1.0000
  C   C3106     1.0  0.64990  0.79954  0.86322  1.0000
  H   H2494     1.0  0.69843  0.83566  0.54782  1.0000
  C   C3107     1.0  0.53711  0.82220  0.86553  1.0000
  H   H2495     1.0  0.56137  0.83050  0.87936  1.0000
  C   C3108     1.0  0.62448  0.85790  0.63597  1.0000
  H   H2496     1.0  0.45868  0.84537  0.95970  1.0000
  H   H2497     1.0  0.48941  0.83250  0.87495  1.0000
  H   H2498     1.0  0.45916  0.89318  0.74926  1.0000
  C   C3109     1.0  0.64400  0.79029  0.83538  1.0000
  H   H2499     1.0  0.58535  0.74076  0.85687  1.0000
  H   H2500     1.0  0.54485  0.92504  0.98794  1.0000
  C   C3110     1.0  0.49566  0.80250  0.88998  1.0000
  C   C3111     1.0  0.61908  0.74963  0.88690  1.0000
  C   C3112     1.0  0.47779  0.94060  0.76135  1.0000
  H   H2501     1.0  0.64980  0.80531  0.95115  1.0000
  C   C3113     1.0  0.60430  0.74061  0.93688  1.0000
  C   C3114     1.0  0.62822  0.78828  0.93063  1.0000
  H   H2502     1.0  0.59598  0.74138  0.95506  1.0000
  H   H2503     1.0  0.70284  0.77439  0.90487  1.0000
  H   H2504     1.0  0.69746  0.87130  0.90293  1.0000
  H   H2505     1.0  0.63345  0.83543  0.54011  1.0000
  C   C3115     1.0  0.55296  0.75170  0.93096  1.0000
  C   C3116     1.0  0.58194  0.76389  0.96174  1.0000
  C   C3117     1.0  0.48358  0.96761  0.70614  1.0000
  C   C3118     1.0  0.46262  0.97196  0.85832  1.0000
  C   C3119     1.0  0.52155  0.90630  0.98411  1.0000
  H   H2506     1.0  0.46566  0.94833  0.93464  1.0000
  C   C3120     1.0  0.49913  0.96905  0.71113  1.0000
  C   C3121     1.0  0.47889  0.82256  0.78500  1.0000
  C   C3122     1.0  0.56799  0.76054  0.97967  1.0000
  C   C3123     1.0  0.69353  0.90912  0.91516  1.0000
  H   H2507     1.0  0.48398  0.84936  0.98431  1.0000
  Fe  Fe209     1.0  0.70408  0.88632  0.61563  1.0000
  H   H2508     1.0  0.47151  0.91508  0.58297  1.0000
  H   H2509     1.0  0.47269  0.84451  0.84883  1.0000
  C   C3124     1.0  0.47283  0.91317  0.78026  1.0000
  C   C3125     1.0  0.51427  0.94703  0.50394  1.0000
  H   H2510     1.0  0.60782  0.72075  0.96062  1.0000
  H   H2511     1.0  0.70526  0.69802  0.83294  1.0000
  C   C3126     1.0  0.51476  0.97543  0.88281  1.0000
  C   C3127     1.0  0.70407  0.90268  0.92737  1.0000
  C   C3128     1.0  0.70598  0.86179  0.68827  1.0000
  H   H2512     1.0  0.54791  0.76323  0.50237  1.0000
  H   H2513     1.0  0.68925  0.85241  0.50338  1.0000
  C   C3129     1.0  0.70611  0.87244  0.88397  1.0000
  C   C3130     1.0  0.59518  0.78031  0.50332  1.0000
  H   H2514     1.0  0.58630  0.70172  0.49738  1.0000
  H   H2515     1.0  0.70843  0.88939  0.96686  1.0000
  S   S420      1.0  0.45852  0.91347  0.90809  1.0000
  Fe  Fe210     1.0  0.78276  0.04511  0.10624  1.0000
  S   S421      1.0  0.78126  0.06611  0.07800  1.0000
  S   S422      1.0  0.76909  0.01969  0.08212  1.0000
  Fe  Fe211     1.0  0.80290  0.06943  0.15724  1.0000
  S   S423      1.0  0.80295  0.09175  0.13240  1.0000
  S   S424      1.0  0.81336  0.07080  0.20721  1.0000
  Fe  Fe212     1.0  0.77734  0.07709  0.12494  1.0000
  S   S425      1.0  0.76210  0.09207  0.12602  1.0000
  Fe  Fe213     1.0  0.80703  0.07991  0.08626  1.0000
  S   S426      1.0  0.81883  0.09876  0.04699  1.0000
  S   S427      1.0  0.77664  0.05530  0.15293  1.0000
  S   S428      1.0  0.80918  0.05828  0.11160  1.0000
  Fe  Fe214     1.0  0.87286  0.14151  0.32427  1.0000
  S   S429      1.0  0.88742  0.13408  0.35881  1.0000
  S   S430      1.0  0.86639  0.13285  0.27226  1.0000
  Fe  Fe215     1.0  0.87402  0.17045  0.36732  1.0000
  S   S431      1.0  0.88884  0.16533  0.40437  1.0000
  S   S432      1.0  0.86451  0.19073  0.36782  1.0000
  Fe  Fe216     1.0  0.90303  0.16101  0.36248  1.0000
  S   S433      1.0  0.92951  0.16608  0.36329  1.0000
  Fe  Fe217     1.0  0.87235  0.13885  0.39828  1.0000
  S   S434      1.0  0.86660  0.12552  0.44654  1.0000
  S   S435      1.0  0.88935  0.16818  0.32579  1.0000
  S   S436      1.0  0.85663  0.14434  0.36340  1.0000
  H   H2516     1.0  0.71713  0.10650  0.45347  1.0000
  S   S437      1.0  0.73012  0.13910  0.26689  1.0000
  S   S438      1.0  0.72571  0.17159  0.20701  1.0000
  C   C3131     1.0  0.82561  0.28364  0.02570  1.0000
  S   S439      1.0  0.71863  0.09232  0.24663  1.0000
  H   H2517     1.0  0.72767  0.06502  0.12958  1.0000
  S   S440      1.0  0.72394  0.14447  0.36133  1.0000
  Fe  Fe218     1.0  0.77986  0.20237  0.03863  1.0000
  H   H2518     1.0  0.73449  0.12138  0.33022  1.0000
  S   S441      1.0  0.76487  0.18222  0.07368  1.0000
  H   H2519     1.0  0.79103  0.16645  0.42468  1.0000
  S   S442      1.0  0.81053  0.23455  0.47150  1.0000
  C   C3132     1.0  0.77830  0.08947  0.01573  1.0000
  C   C3133     1.0  0.72220  0.12946  0.08414  1.0000
  C   C3134     1.0  0.76381  0.03730  0.23420  1.0000
  Fe  Fe219     1.0  0.78570  0.21546  0.47208  1.0000
  S   S443      1.0  0.77205  0.21104  0.42505  1.0000
  S   S444      1.0  0.80527  0.21875  0.04716  1.0000
  C   C3135     1.0  0.73632  0.05171  0.09511  1.0000
  C   C3136     1.0  0.73070  0.20705  0.42837  1.0000
  H   H2520     1.0  0.80023  0.13238  0.12775  1.0000
  C   C3137     1.0  0.88017  0.24108  0.41433  1.0000
  C   C3138     1.0  0.77624  0.08485  0.44152  1.0000
  C   C3139     1.0  0.73946  0.03756  0.08916  1.0000
  C   C3140     1.0  0.73670  0.17433  0.17010  1.0000
  C   C3141     1.0  0.74280  0.19001  0.15599  1.0000
  C   C3142     1.0  0.75150  0.19275  0.12663  1.0000
  C   C3143     1.0  0.75414  0.17978  0.11091  1.0000
  C   C3144     1.0  0.74808  0.16412  0.12513  1.0000
  C   C3145     1.0  0.73947  0.16139  0.15454  1.0000
  H   H2521     1.0  0.74074  0.20011  0.16782  1.0000
  H   H2522     1.0  0.75607  0.20486  0.11608  1.0000
  H   H2523     1.0  0.75041  0.15410  0.11372  1.0000
  H   H2524     1.0  0.73501  0.14930  0.16515  1.0000
  C   C3146     1.0  0.75893  0.19233  0.40751  1.0000
  C   C3147     1.0  0.75330  0.19249  0.37634  1.0000
  C   C3148     1.0  0.74263  0.17797  0.36184  1.0000
  C   C3149     1.0  0.73737  0.16312  0.37848  1.0000
  C   C3150     1.0  0.74302  0.16295  0.40964  1.0000
  C   C3151     1.0  0.75377  0.17746  0.42401  1.0000
  H   H2525     1.0  0.75722  0.20392  0.36330  1.0000
  H   H2526     1.0  0.73858  0.17823  0.33771  1.0000
  H   H2527     1.0  0.73919  0.15151  0.42263  1.0000
  H   H2528     1.0  0.75806  0.17723  0.44784  1.0000
  C   C3152     1.0  0.85691  0.19585  0.40413  1.0000
  C   C3153     1.0  0.84635  0.20390  0.40295  1.0000
  C   C3154     1.0  0.84033  0.20840  0.43154  1.0000
  C   C3155     1.0  0.84511  0.20516  0.46147  1.0000
  C   C3156     1.0  0.85583  0.19732  0.46263  1.0000
  C   C3157     1.0  0.86158  0.19251  0.43408  1.0000
  H   H2529     1.0  0.84281  0.20665  0.37984  1.0000
  H   H2530     1.0  0.83221  0.21460  0.43042  1.0000
  H   H2531     1.0  0.73898  0.01490  0.10814  1.0000
  H   H2532     1.0  0.86973  0.18635  0.43525  1.0000
  C   C3158     1.0  0.83367  0.15990  0.05482  1.0000
  C   C3159     1.0  0.94748  0.18250  0.35197  1.0000
  C   C3160     1.0  0.90340  0.21205  0.40910  1.0000
  H   H2533     1.0  0.93686  0.19702  0.32811  1.0000
  C   C3161     1.0  0.82628  0.08899  0.22682  1.0000
  C   C3162     1.0  0.83071  0.08813  0.25876  1.0000
  C   C3163     1.0  0.84221  0.10185  0.27391  1.0000
  C   C3164     1.0  0.84968  0.11645  0.25695  1.0000
  C   C3165     1.0  0.84476  0.11754  0.22554  1.0000
  C   C3166     1.0  0.83294  0.10397  0.21076  1.0000
  H   H2534     1.0  0.82558  0.07662  0.27147  1.0000
  H   H2535     1.0  0.84585  0.10090  0.29807  1.0000
  H   H2536     1.0  0.85032  0.12884  0.21232  1.0000
  H   H2537     1.0  0.82934  0.10496  0.18659  1.0000
  C   C3167     1.0  0.77082  0.12478  0.42457  1.0000
  C   C3168     1.0  0.83602  0.10159  0.44715  1.0000
  H   H2538     1.0  0.94622  0.14680  0.42585  1.0000
  C   C3169     1.0  0.72679  0.04210  0.14888  1.0000
  C   C3170     1.0  0.84232  0.26434  0.40431  1.0000
  C   C3171     1.0  0.76046  0.12393  0.45062  1.0000
  H   H2539     1.0  0.83596  0.10327  0.42143  1.0000
  H   H2540     1.0  0.84265  0.08473  0.03176  1.0000
  C   C3172     1.0  0.71805  0.19431  0.27270  1.0000
  C   C3173     1.0  0.71155  0.00736  0.23429  1.0000
  C   C3174     1.0  0.75124  0.09282  0.16115  1.0000
  C   C3175     1.0  0.74525  0.10524  0.16461  1.0000
  C   C3176     1.0  0.73556  0.10548  0.19121  1.0000
  C   C3177     1.0  0.73145  0.09297  0.21397  1.0000
  C   C3178     1.0  0.73742  0.08051  0.21047  1.0000
  C   C3179     1.0  0.74758  0.08063  0.18450  1.0000
  H   H2541     1.0  0.74801  0.11467  0.14657  1.0000
  H   H2542     1.0  0.73099  0.11512  0.19371  1.0000
  H   H2543     1.0  0.73419  0.07077  0.22793  1.0000
  H   H2544     1.0  0.75213  0.07099  0.18189  1.0000
  C   C3180     1.0  0.76709  0.99139  0.11554  1.0000
  C   C3181     1.0  0.76165  0.99799  0.09026  1.0000
  H   H2545     1.0  0.77617  0.99951  0.13098  1.0000
  C   C3182     1.0  0.80150  0.11583  0.39357  1.0000
  C   C3183     1.0  0.90195  0.15588  0.08421  1.0000
  C   C3184     1.0  0.74187  0.11763  0.07541  1.0000
  C   C3185     1.0  0.87581  0.26628  0.42570  1.0000
  P   P105      1.0  0.94086  0.19883  0.46028  1.0000
  C   C3186     1.0  0.93102  0.14040  0.29254  1.0000
  H   H2546     1.0  0.78956  0.14133  0.39446  1.0000
  H   H2547     1.0  0.74493  0.03601  0.06653  1.0000
  C   C3187     1.0  0.74512  0.06819  0.46262  1.0000
  P   P106      1.0  0.76896  0.10634  0.40185  1.0000
  C   C3188     1.0  0.78240  0.14045  0.06292  1.0000
  C   C3189     1.0  0.82239  0.16422  0.44232  1.0000
  C   C3190     1.0  0.83139  0.15690  0.42533  1.0000
  C   C3191     1.0  0.83588  0.14541  0.44051  1.0000
  C   C3192     1.0  0.85177  0.29928  0.04716  1.0000
  H   H2548     1.0  0.82539  0.16404  0.04334  1.0000
  H   H2549     1.0  0.86736  0.17008  0.13686  1.0000
  H   H2550     1.0  0.73936  0.06126  0.07716  1.0000
  H   H2551     1.0  0.87254  0.14237  0.02933  1.0000
  H   H2552     1.0  0.81924  0.17342  0.43078  1.0000
  H   H2553     1.0  0.83518  0.16043  0.40068  1.0000
  H   H2554     1.0  0.84313  0.13990  0.42791  1.0000
  C   C3193     1.0  0.88431  0.14771  0.03895  1.0000
  C   C3194     1.0  0.76617  0.10945  0.02387  1.0000
  H   H2555     1.0  0.73397  0.98455  0.19406  1.0000
  H   H2556     1.0  0.85747  0.22573  0.00090  1.0000
  H   H2557     1.0  0.88388  0.28447  0.38806  1.0000
  C   C3195     1.0  0.88656  0.14924  0.07241  1.0000
  C   C3196     1.0  0.87226  0.16343  0.15192  1.0000
  P   P107      1.0  0.86965  0.14189  0.09935  1.0000
  C   C3197     1.0  0.85529  0.14907  0.08357  1.0000
  C   C3198     1.0  0.86219  0.11968  0.10142  1.0000
  C   C3199     1.0  0.85046  0.11154  0.12443  1.0000
  C   C3200     1.0  0.84508  0.09445  0.12749  1.0000
  C   C3201     1.0  0.85150  0.08538  0.10792  1.0000
  C   C3202     1.0  0.86330  0.09340  0.08523  1.0000
  C   C3203     1.0  0.86860  0.11048  0.08183  1.0000
  C   C3204     1.0  0.83964  0.13824  0.07921  1.0000
  C   C3205     1.0  0.75161  0.09733  0.01514  1.0000
  C   C3206     1.0  0.84932  0.11097  0.46481  1.0000
  H   H2558     1.0  0.79893  0.09946  0.30530  1.0000
  H   H2559     1.0  0.74743  0.07572  0.37188  1.0000
  C   C3207     1.0  0.75786  0.01545  0.18167  1.0000
  H   H2560     1.0  0.74107  0.22675  0.39485  1.0000
  H   H2561     1.0  0.91012  0.17243  0.46941  1.0000
  C   C3208     1.0  0.93848  0.15236  0.43624  1.0000
  C   C3209     1.0  0.74451  0.08577  0.36359  1.0000
  H   H2562     1.0  0.76629  0.04602  0.25413  1.0000
  H   H2563     1.0  0.81296  0.08198  0.44871  1.0000
  H   H2564     1.0  0.84542  0.11843  0.13985  1.0000
  H   H2565     1.0  0.83583  0.08821  0.14490  1.0000
  H   H2566     1.0  0.81220  0.16300  0.12986  1.0000
  C   C3210     1.0  0.80392  0.15671  0.11122  1.0000
  H   H2567     1.0  0.87756  0.11632  0.06371  1.0000
  H   H2568     1.0  0.83568  0.12554  0.08632  1.0000
  H   H2569     1.0  0.73934  0.08454  0.43261  1.0000
  C   C3211     1.0  0.90900  0.04798  0.28787  1.0000
  S   S445      1.0  0.80939  0.26477  0.01610  1.0000
  C   C3212     1.0  0.71760  0.12346  0.49225  1.0000
  H   H2570     1.0  0.81216  0.06746  0.01127  1.0000
  C   C3213     1.0  0.78594  0.10300  0.34692  1.0000
  H   H2571     1.0  0.91082  0.20256  0.36619  1.0000
  H   H2572     1.0  0.78840  0.09107  0.43414  1.0000
  C   C3214     1.0  0.79961  0.16580  0.08883  1.0000
  C   C3215     1.0  0.74372  0.14181  0.04594  1.0000
  C   C3216     1.0  0.84668  0.27228  0.43442  1.0000
  C   C3217     1.0  0.73613  0.02560  0.11291  1.0000
  H   H2573     1.0  0.84718  0.07211  0.11006  1.0000
  H   H2574     1.0  0.83195  0.12604  0.00505  1.0000
  C   C3218     1.0  0.91486  0.16112  0.06271  1.0000
  S   S446      1.0  0.77577  0.22053  0.00551  1.0000
  H   H2575     1.0  0.74016  0.03591  0.22874  1.0000
  C   C3219     1.0  0.77562  0.03225  0.22222  1.0000
  H   H2576     1.0  0.74576  0.99182  0.05034  1.0000
  H   H2577     1.0  0.89411  0.21428  0.39704  1.0000
  C   C3220     1.0  0.88111  0.14121  0.16061  1.0000
  C   C3221     1.0  0.77264  0.02132  0.19596  1.0000
  C   C3222     1.0  0.82707  0.26037  0.39299  1.0000
  H   H2578     1.0  0.72582  0.15135  0.05722  1.0000
  C   C3223     1.0  0.73723  0.11146  0.33987  1.0000
  C   C3224     1.0  0.87582  0.16876  0.18387  1.0000
  C   C3225     1.0  0.84913  0.17089  0.05973  1.0000
  H   H2579     1.0  0.88888  0.13973  0.20871  1.0000
  C   C3226     1.0  0.72980  0.05386  0.12480  1.0000
  C   C3227     1.0  0.90936  0.05679  0.26002  1.0000
  C   C3228     1.0  0.71457  0.11713  0.46077  1.0000
  H   H2580     1.0  0.72110  0.19091  0.32266  1.0000
  C   C3229     1.0  0.72200  0.99253  0.15767  1.0000
  H   H2581     1.0  0.87381  0.17944  0.19295  1.0000
  H   H2582     1.0  0.78193  0.01781  0.18597  1.0000
  H   H2583     1.0  0.75594  0.12757  0.36885  1.0000
  C   C3230     1.0  0.83573  0.10479  0.02121  1.0000
  H   H2584     1.0  0.94639  0.12711  0.28968  1.0000
  H   H2585     1.0  0.86810  0.24481  0.45646  1.0000
  C   C3231     1.0  0.77254  0.07184  0.46306  1.0000
  C   C3232     1.0  0.74899  0.03142  0.21993  1.0000
  H   H2586     1.0  0.91413  0.05386  0.23764  1.0000
  C   C3233     1.0  0.88183  0.16022  0.20424  1.0000
  H   H2587     1.0  0.74024  0.21205  0.44521  1.0000
  H   H2588     1.0  0.90254  0.04490  0.33830  1.0000
  H   H2589     1.0  0.87372  0.29831  0.25684  1.0000
  H   H2590     1.0  0.71775  0.18586  0.45701  1.0000
  P   P108      1.0  0.72701  0.01303  0.17442  1.0000
  H   H2591     1.0  0.86232  0.29931  0.05817  1.0000
  Fe  Fe220     1.0  0.71175  0.11422  0.25543  1.0000
  H   H2592     1.0  0.75051  0.19850  0.48457  1.0000
  C   C3234     1.0  0.88448  0.14647  0.19261  1.0000
  C   C3235     1.0  0.81806  0.16023  0.47458  1.0000
  C   C3236     1.0  0.87485  0.14957  0.14003  1.0000
  C   C3237     1.0  0.75291  0.10199  0.37437  1.0000
  Fe  Fe221     1.0  0.71502  0.14861  0.23814  1.0000
  H   H2593     1.0  0.95626  0.17666  0.43507  1.0000
  H   H2594     1.0  0.88428  0.16410  0.22921  1.0000
  H   H2595     1.0  0.90401  0.15706  0.10987  1.0000
  C   C3238     1.0  0.73117  0.21537  0.39985  1.0000
  C   C3239     1.0  0.87754  0.29948  0.44860  1.0000
  H   H2596     1.0  0.89815  0.22014  0.45575  1.0000
  C   C3240     1.0  0.91738  0.21185  0.45778  1.0000
  H   H2597     1.0  0.75347  0.13748  0.48769  1.0000
  H   H2598     1.0  0.75003  0.15188  0.02994  1.0000
  H   H2599     1.0  0.91822  0.12952  0.43794  1.0000
  C   C3241     1.0  0.91280  0.20542  0.39165  1.0000
  P   P109      1.0  0.76765  0.13012  0.03338  1.0000
  C   C3242     1.0  0.72971  0.02773  0.14290  1.0000
  C   C3243     1.0  0.77957  0.10548  0.02355  1.0000
  C   C3244     1.0  0.93428  0.12614  0.28969  1.0000
  C   C3245     1.0  0.82898  0.14356  0.06440  1.0000
  C   C3246     1.0  0.73223  0.08242  0.34191  1.0000
  C   C3247     1.0  0.81611  0.26444  0.41141  1.0000
  C   C3248     1.0  0.90356  0.06936  0.26100  1.0000
  C   C3249     1.0  0.89733  0.07320  0.28988  1.0000
  C   C3250     1.0  0.89702  0.06431  0.31779  1.0000
  P   P110      1.0  0.89002  0.08957  0.29040  1.0000
  C   C3251     1.0  0.90621  0.10939  0.28865  1.0000
  C   C3252     1.0  0.87700  0.08569  0.25654  1.0000
  C   C3253     1.0  0.87784  0.09825  0.23530  1.0000
  C   C3254     1.0  0.86764  0.09480  0.20925  1.0000
  C   C3255     1.0  0.85654  0.07886  0.20426  1.0000
  C   C3256     1.0  0.85567  0.06630  0.22514  1.0000
  C   C3257     1.0  0.86592  0.06965  0.25102  1.0000
  C   C3258     1.0  0.90310  0.12380  0.29123  1.0000
  C   C3259     1.0  0.91544  0.13922  0.29307  1.0000
  C   C3260     1.0  0.92194  0.11067  0.28783  1.0000
  C   C3261     1.0  0.87942  0.08943  0.32786  1.0000
  C   C3262     1.0  0.88786  0.09553  0.35624  1.0000
  C   C3263     1.0  0.87991  0.09568  0.38538  1.0000
  C   C3264     1.0  0.86349  0.08988  0.38641  1.0000
  C   C3265     1.0  0.85498  0.08380  0.35833  1.0000
  C   C3266     1.0  0.86289  0.08353  0.32916  1.0000
  C   C3267     1.0  0.83937  0.28404  0.04016  1.0000
  H   H2600     1.0  0.78725  0.03721  0.23261  1.0000
  H   H2601     1.0  0.72561  0.06991  0.33384  1.0000
  H   H2602     1.0  0.90393  0.07611  0.23923  1.0000
  H   H2603     1.0  0.89224  0.06692  0.34038  1.0000
  H   H2604     1.0  0.88613  0.11073  0.23880  1.0000
  H   H2605     1.0  0.86801  0.10459  0.19346  1.0000
  H   H2606     1.0  0.84830  0.07628  0.18474  1.0000
  H   H2607     1.0  0.84683  0.05404  0.22149  1.0000
  H   H2608     1.0  0.86502  0.05977  0.26708  1.0000
  H   H2609     1.0  0.89108  0.12306  0.29264  1.0000
  H   H2610     1.0  0.91294  0.15027  0.29601  1.0000
  H   H2611     1.0  0.92478  0.09983  0.28661  1.0000
  H   H2612     1.0  0.90062  0.10041  0.35577  1.0000
  H   H2613     1.0  0.88646  0.10074  0.40708  1.0000
  H   H2614     1.0  0.85741  0.09030  0.40896  1.0000
  H   H2615     1.0  0.84224  0.07943  0.35915  1.0000
  H   H2616     1.0  0.85602  0.07891  0.30777  1.0000
  C   C3268     1.0  0.76327  0.09549  0.26759  1.0000
  C   C3269     1.0  0.77121  0.08703  0.25052  1.0000
  C   C3270     1.0  0.78586  0.09571  0.23602  1.0000
  C   C3271     1.0  0.79259  0.11288  0.23856  1.0000
  C   C3272     1.0  0.78475  0.12149  0.25594  1.0000
  C   C3273     1.0  0.76995  0.11265  0.27018  1.0000
  P   P111      1.0  0.79314  0.14374  0.25716  1.0000
  C   C3274     1.0  0.78657  0.15163  0.29293  1.0000
  C   C3275     1.0  0.81429  0.15029  0.25750  1.0000
  C   C3276     1.0  0.82112  0.14325  0.27956  1.0000
  C   C3277     1.0  0.83745  0.14858  0.28126  1.0000
  C   C3278     1.0  0.84714  0.16071  0.26049  1.0000
  C   C3279     1.0  0.84045  0.16756  0.23795  1.0000
  C   C3280     1.0  0.82407  0.16238  0.23640  1.0000
  C   C3281     1.0  0.79680  0.15903  0.31846  1.0000
  C   C3282     1.0  0.79158  0.16572  0.34511  1.0000
  C   C3283     1.0  0.77612  0.16495  0.34667  1.0000
  C   C3284     1.0  0.76594  0.15771  0.32133  1.0000
  C   C3285     1.0  0.77118  0.15126  0.29446  1.0000
  C   C3286     1.0  0.78713  0.15193  0.22271  1.0000
  C   C3287     1.0  0.78968  0.16873  0.22232  1.0000
  C   C3288     1.0  0.78590  0.17551  0.19518  1.0000
  C   C3289     1.0  0.77941  0.16555  0.16842  1.0000
  C   C3290     1.0  0.77622  0.14869  0.16911  1.0000
  C   C3291     1.0  0.78014  0.14186  0.19606  1.0000
  H   H2617     1.0  0.75162  0.08882  0.27778  1.0000
  H   H2618     1.0  0.76577  0.07379  0.24757  1.0000
  H   H2619     1.0  0.79185  0.08915  0.22218  1.0000
  H   H2620     1.0  0.80379  0.11939  0.22648  1.0000
  H   H2621     1.0  0.76331  0.11885  0.28272  1.0000
  H   H2622     1.0  0.81379  0.13387  0.29587  1.0000
  H   H2623     1.0  0.84263  0.14324  0.29862  1.0000
  H   H2624     1.0  0.85982  0.16470  0.26192  1.0000
  H   H2625     1.0  0.84795  0.17696  0.22182  1.0000
  H   H2626     1.0  0.81918  0.16787  0.21879  1.0000
  H   H2627     1.0  0.80890  0.16010  0.31780  1.0000
  H   H2628     1.0  0.79961  0.17175  0.36433  1.0000
  H   H2629     1.0  0.77210  0.17022  0.36722  1.0000
  H   H2630     1.0  0.75401  0.15732  0.32219  1.0000
  H   H2631     1.0  0.76329  0.14611  0.27461  1.0000
  H   H2632     1.0  0.79477  0.17665  0.24286  1.0000
  H   H2633     1.0  0.78791  0.18849  0.19480  1.0000
  H   H2634     1.0  0.77683  0.17092  0.14716  1.0000
  H   H2635     1.0  0.77080  0.14097  0.14853  1.0000
  H   H2636     1.0  0.77769  0.12879  0.19584  1.0000
  H   H2637     1.0  0.86811  0.08634  0.06968  1.0000
  H   H2638     1.0  0.75154  0.11231  0.45785  1.0000
  C   C3292     1.0  0.84533  0.09576  0.01788  1.0000
  C   C3293     1.0  0.90284  0.05174  0.31672  1.0000
  H   H2639     1.0  0.85776  0.30630  0.46157  1.0000
  H   H2640     1.0  0.79680  0.15260  0.00129  1.0000
  H   H2641     1.0  0.72247  0.10842  0.10944  1.0000
  C   C3294     1.0  0.72819  0.11752  0.09117  1.0000
  C   C3295     1.0  0.78878  0.15770  0.06497  1.0000
  H   H2642     1.0  0.72981  0.19528  0.26564  1.0000
  C   C3296     1.0  0.85999  0.16545  0.07350  1.0000
  C   C3297     1.0  0.91258  0.14993  0.45510  1.0000
  C   C3298     1.0  0.92686  0.20512  0.44033  1.0000
  H   H2643     1.0  0.77479  0.09751  0.33492  1.0000
  C   C3299     1.0  0.93405  0.17682  0.45386  1.0000
  C   C3300     1.0  0.81512  0.11664  0.37663  1.0000
  C   C3301     1.0  0.82295  0.14901  0.49012  1.0000
  C   C3302     1.0  0.94780  0.19618  0.33490  1.0000
  C   C3303     1.0  0.79963  0.10403  0.32996  1.0000
  C   C3304     1.0  0.88916  0.26324  0.37598  1.0000
  H   H2644     1.0  0.73307  0.06172  0.47091  1.0000
  C   C3305     1.0  0.78675  0.10879  0.37899  1.0000
  H   H2645     1.0  0.85273  0.18355  0.05207  1.0000
  C   C3306     1.0  0.74958  0.12962  0.05228  1.0000
  C   C3307     1.0  0.71233  0.98747  0.13063  1.0000
  H   H2646     1.0  0.76280  0.06493  0.00239  1.0000
  C   C3308     1.0  0.71123  0.01194  0.20219  1.0000
  H   H2647     1.0  0.88320  0.13048  0.15209  1.0000
  C   C3309     1.0  0.78183  0.14023  0.41516  1.0000
  H   H2648     1.0  0.83462  0.13197  0.48354  1.0000
  C   C3310     1.0  0.78642  0.13141  0.08609  1.0000
  C   C3311     1.0  0.76436  0.08958  0.43003  1.0000
  H   H2649     1.0  0.82367  0.25395  0.37011  1.0000
  H   H2650     1.0  0.80421  0.26113  0.40296  1.0000
  H   H2651     1.0  0.72257  0.04449  0.17230  1.0000
  C   C3312     1.0  0.75039  0.08132  0.00738  1.0000
  H   H2652     1.0  0.78108  0.11810  0.08605  1.0000
  C   C3313     1.0  0.88314  0.27255  0.39603  1.0000
  C   C3314     1.0  0.72997  0.14159  0.06152  1.0000
  C   C3315     1.0  0.74940  0.11488  0.36181  1.0000
  H   H2653     1.0  0.74660  0.10856  0.08180  1.0000
  C   C3316     1.0  0.82035  0.27236  0.44126  1.0000
  C   C3317     1.0  0.79723  0.13951  0.11000  1.0000
  C   C3318     1.0  0.74875  0.08114  0.44090  1.0000
  H   H2654     1.0  0.91349  0.03823  0.28709  1.0000
  C   C3319     1.0  0.74582  0.02014  0.19398  1.0000
  C   C3320     1.0  0.77271  0.15342  0.45864  1.0000
  C   C3321     1.0  0.78271  0.15449  0.43214  1.0000
  H   H2655     1.0  0.82483  0.11147  0.33177  1.0000
  C   C3322     1.0  0.72849  0.09525  0.33036  1.0000
  H   H2656     1.0  0.84535  0.24852  0.48494  1.0000
  C   C3323     1.0  0.75007  0.98698  0.07007  1.0000
  H   H2657     1.0  0.82638  0.12158  0.38832  1.0000
  H   H2658     1.0  0.80442  0.17915  0.09007  1.0000
  C   C3324     1.0  0.91250  0.15965  0.02941  1.0000
  C   C3325     1.0  0.92432  0.20177  0.40730  1.0000
  H   H2659     1.0  0.94054  0.15237  0.29509  1.0000
  H   H2660     1.0  0.81713  0.13487  0.05996  1.0000
  C   C3326     1.0  0.81422  0.11080  0.34485  1.0000
  C   C3327     1.0  0.92269  0.14264  0.44288  1.0000
  H   H2661     1.0  0.71955  0.21564  0.35586  1.0000
  H   H2662     1.0  0.80245  0.12031  0.41832  1.0000
  H   H2663     1.0  0.78520  0.16495  0.04852  1.0000
  H   H2664     1.0  0.89197  0.24010  0.36932  1.0000
  C   C3328     1.0  0.71907  0.20890  0.37766  1.0000
  H   H2665     1.0  0.71188  0.12969  0.09703  1.0000
  H   H2666     1.0  0.84043  0.27261  0.04613  1.0000
  C   C3329     1.0  0.82299  0.08953  0.46270  1.0000
  H   H2667     1.0  0.93111  0.19605  0.39379  1.0000
  C   C3330     1.0  0.83133  0.14117  0.47244  1.0000
  H   H2668     1.0  0.74046  0.16850  0.49230  1.0000
  Fe  Fe222     1.0  0.80184  0.23634  0.01179  1.0000
  C   C3331     1.0  0.89400  0.30564  0.44431  1.0000
  H   H2669     1.0  0.87859  0.22873  0.42115  1.0000
  H   H2670     1.0  0.79099  0.11462  0.02970  1.0000
  H   H2671     1.0  0.81400  0.29877  0.00756  1.0000
  H   H2672     1.0  0.85050  0.26094  0.38961  1.0000
  Fe  Fe223     1.0  0.71465  0.13934  0.30957  1.0000
  H   H2673     1.0  0.84459  0.24414  0.02232  1.0000
  H   H2674     1.0  0.92672  0.16632  0.07186  1.0000
  C   C3332     1.0  0.82453  0.29881  0.01865  1.0000
  C   C3333     1.0  0.87423  0.25036  0.43449  1.0000
  H   H2675     1.0  0.87208  0.17398  0.07598  1.0000
  C   C3334     1.0  0.82296  0.08697  0.49612  1.0000
  H   H2676     1.0  0.89474  0.26810  0.35309  1.0000
  H   H2677     1.0  0.90026  0.14243  0.45970  1.0000
  H   H2678     1.0  0.78862  0.08639  0.01630  1.0000
  H   H2679     1.0  0.83833  0.28156  0.47647  1.0000
  C   C3335     1.0  0.91821  0.16694  0.46053  1.0000
  H   H2680     1.0  0.85958  0.19480  0.48571  1.0000
  C   C3336     1.0  0.88763  0.24748  0.38511  1.0000
  H   H2681     1.0  0.75594  0.00759  0.16048  1.0000
  P   P112      1.0  0.86634  0.27746  0.44958  1.0000
  C   C3337     1.0  0.72691  0.98116  0.17262  1.0000
  H   H2682     1.0  0.71887  0.09265  0.31384  1.0000
  C   C3338     1.0  0.90568  0.21529  0.44214  1.0000
  C   C3339     1.0  0.89722  0.15291  0.01757  1.0000
  C   C3340     1.0  0.94416  0.16939  0.44162  1.0000
  H   H2683     1.0  0.72123  0.00443  0.24263  1.0000
  S   S447      1.0  0.82857  0.19410  0.00550  1.0000
  C   C3341     1.0  0.83547  0.27600  0.45288  1.0000
  H   H2684     1.0  0.71143  0.19605  0.22395  1.0000
  C   C3342     1.0  0.76146  0.13820  0.46761  1.0000
  C   C3343     1.0  0.86532  0.27151  0.49133  1.0000
  H   H2685     1.0  0.81110  0.16607  0.48730  1.0000
  H   H2686     1.0  0.90006  0.29737  0.43993  1.0000
  H   H2687     1.0  0.81178  0.27521  0.45600  1.0000
  H   H2688     1.0  0.74118  0.10021  0.01452  1.0000
  C   C3344     1.0  0.83915  0.11886  0.00235  1.0000
  C   C3345     1.0  0.84886  0.24522  0.99753  1.0000
  H   H2689     1.0  0.73907  0.07195  0.00128  1.0000
  H   H2690     1.0  0.92247  0.16368  0.01271  1.0000
  C   C3346     1.0  0.71306  0.19186  0.30498  1.0000
  C   C3347     1.0  0.75701  0.06352  0.47365  1.0000
  C   C3348     1.0  0.76373  0.07737  0.00784  1.0000
  H   H2691     1.0  0.78729  0.04286  0.00770  1.0000
  H   H2692     1.0  0.78177  0.06826  0.47180  1.0000
  Fe  Fe224     1.0  0.81071  0.20615  0.00327  1.0000
  C   C3349     1.0  0.71807  0.19228  0.43487  1.0000
  H   H2693     1.0  0.75426  0.05352  0.49056  1.0000
  H   H2694     1.0  0.77351  0.16444  0.47194  1.0000
  H   H2695     1.0  0.95477  0.22140  0.40510  1.0000
  C   C3350     1.0  0.87551  0.30844  0.24074  1.0000
  H   H2696     1.0  0.85239  0.30863  0.24976  1.0000
  S   S448      1.0  0.78577  0.18905  0.99650  1.0000
  H   H2697     1.0  0.91866  0.21406  0.48348  1.0000
  H   H2698     1.0  0.95250  0.23016  0.49483  1.0000
  Fe  Fe225     1.0  0.78168  0.04438  0.62091  1.0000
  S   S449      1.0  0.77470  0.05780  0.58238  1.0000
  S   S450      1.0  0.76672  0.01792  0.63716  1.0000
  Fe  Fe226     1.0  0.81091  0.07520  0.63915  1.0000
  S   S451      1.0  0.80584  0.09024  0.60133  1.0000
  S   S452      1.0  0.83408  0.08869  0.66536  1.0000
  Fe  Fe227     1.0  0.78065  0.07878  0.61824  1.0000
  S   S453      1.0  0.76908  0.09746  0.62221  1.0000
  Fe  Fe228     1.0  0.80054  0.06850  0.56824  1.0000
  S   S454      1.0  0.80677  0.07088  0.51422  1.0000
  S   S455      1.0  0.78597  0.06496  0.65829  1.0000
  S   S456      1.0  0.80727  0.05380  0.60467  1.0000
  Fe  Fe229     1.0  0.86889  0.13479  0.83736  1.0000
  S   S457      1.0  0.88874  0.13014  0.86053  1.0000
  S   S458      1.0  0.84741  0.11738  0.80955  1.0000
  Fe  Fe230     1.0  0.87619  0.16666  0.87688  1.0000
  S   S459      1.0  0.89645  0.16444  0.90329  1.0000
  S   S460      1.0  0.86620  0.18654  0.87982  1.0000
  Fe  Fe231     1.0  0.90364  0.15736  0.85458  1.0000
  S   S461      1.0  0.92932  0.16432  0.83591  1.0000
  Fe  Fe232     1.0  0.88047  0.13763  0.90758  1.0000
  S   S462      1.0  0.87853  0.12162  0.95131  1.0000
  S   S463      1.0  0.88423  0.16129  0.82774  1.0000
  S   S464      1.0  0.85992  0.14062  0.88517  1.0000
  C   C3351     1.0  0.76819  0.12984  0.82779  1.0000
  S   S465      1.0  0.72740  0.13828  0.75465  1.0000
  H   H2699     1.0  0.77943  0.16369  0.91360  1.0000
  C   C3352     1.0  0.80435  0.15517  0.58267  1.0000
  C   C3353     1.0  0.85921  0.99114  0.61512  1.0000
  C   C3354     1.0  0.76478  0.17116  0.76363  1.0000
  H   H2700     1.0  0.86605  0.22731  0.94356  1.0000
  Fe  Fe233     1.0  0.78658  0.20845  0.54421  1.0000
  C   C3355     1.0  0.75185  0.97995  0.57042  1.0000
  S   S466      1.0  0.77574  0.18909  0.58340  1.0000
  H   H2701     1.0  0.74714  0.13074  0.98109  1.0000
  S   S467      1.0  0.80916  0.22467  0.96855  1.0000
  C   C3356     1.0  0.73074  0.12577  0.57314  1.0000
  C   C3357     1.0  0.85385  0.25653  0.50165  1.0000
  C   C3358     1.0  0.85844  0.24697  0.93270  1.0000
  H   H2702     1.0  0.87030  0.28884  0.96947  1.0000
  S   S468      1.0  0.77465  0.20219  0.91214  1.0000
  S   S469      1.0  0.81137  0.22723  0.54889  1.0000
  H   H2703     1.0  0.79137  0.01186  0.57999  1.0000
  C   C3359     1.0  0.82609  0.29045  0.53165  1.0000
  C   C3360     1.0  0.80632  0.16348  0.81074  1.0000
  C   C3361     1.0  0.84195  0.00268  0.64196  1.0000
  C   C3362     1.0  0.78541  0.12796  0.52458  1.0000
  C   C3363     1.0  0.80054  0.14645  0.80438  1.0000
  C   C3364     1.0  0.73574  0.17431  0.66044  1.0000
  C   C3365     1.0  0.73917  0.18872  0.64248  1.0000
  C   C3366     1.0  0.75127  0.19342  0.61865  1.0000
  C   C3367     1.0  0.76012  0.18377  0.61260  1.0000
  C   C3368     1.0  0.75668  0.16936  0.63060  1.0000
  C   C3369     1.0  0.74446  0.16455  0.65410  1.0000
  H   H2704     1.0  0.73248  0.19635  0.64716  1.0000
  H   H2705     1.0  0.75385  0.20458  0.60521  1.0000
  H   H2706     1.0  0.76346  0.16181  0.62630  1.0000
  H   H2707     1.0  0.74181  0.15333  0.66740  1.0000
  C   C3370     1.0  0.75854  0.18559  0.89510  1.0000
  C   C3371     1.0  0.75747  0.18398  0.86126  1.0000
  C   C3372     1.0  0.74475  0.17126  0.84660  1.0000
  C   C3373     1.0  0.73285  0.16004  0.86556  1.0000
  C   C3374     1.0  0.73391  0.16162  0.89936  1.0000
  C   C3375     1.0  0.74668  0.17429  0.91407  1.0000
  H   H2708     1.0  0.76651  0.19271  0.84633  1.0000
  C   C3376     1.0  0.80297  0.03175  0.68302  1.0000
  C   C3377     1.0  0.74250  0.12189  0.85426  1.0000
  H   H2709     1.0  0.74727  0.17541  0.94009  1.0000
  C   C3378     1.0  0.85487  0.18747  0.91422  1.0000
  C   C3379     1.0  0.84448  0.19569  0.91266  1.0000
  C   C3380     1.0  0.83596  0.19736  0.94027  1.0000
  C   C3381     1.0  0.83810  0.19118  0.96977  1.0000
  C   C3382     1.0  0.84831  0.18275  0.97113  1.0000
  C   C3383     1.0  0.85653  0.18071  0.94340  1.0000
  S   S470      1.0  0.71636  0.14403  0.84830  1.0000
  C   C3384     1.0  0.80935  0.07708  0.96552  1.0000
  C   C3385     1.0  0.84658  0.25660  0.97733  1.0000
  H   H2710     1.0  0.86447  0.17431  0.94480  1.0000
  P   P113      1.0  0.81772  0.14363  0.53169  1.0000
  C   C3386     1.0  0.85878  0.27811  0.82277  1.0000
  C   C3387     1.0  0.82278  0.17610  0.54853  1.0000
  H   H2711     1.0  0.93906  0.19767  0.86555  1.0000
  C   C3388     1.0  0.83744  0.09679  0.70543  1.0000
  C   C3389     1.0  0.85273  0.10744  0.71396  1.0000
  C   C3390     1.0  0.85601  0.11401  0.74554  1.0000
  C   C3391     1.0  0.84401  0.10992  0.76907  1.0000
  C   C3392     1.0  0.82867  0.09935  0.76047  1.0000
  C   C3393     1.0  0.82540  0.09280  0.72888  1.0000
  H   H2712     1.0  0.86215  0.11056  0.69606  1.0000
  H   H2713     1.0  0.86786  0.12208  0.75177  1.0000
  H   H2714     1.0  0.81931  0.09604  0.77848  1.0000
  H   H2715     1.0  0.81366  0.08441  0.72284  1.0000
  C   C3394     1.0  0.86168  0.11501  0.97723  1.0000
  P   P114      1.0  0.71996  0.14687  0.54102  1.0000
  C   C3395     1.0  0.81460  0.15945  0.55570  1.0000
  H   H2716     1.0  0.81306  0.30582  0.52375  1.0000
  H   H2717     1.0  0.86132  0.99937  0.66474  1.0000
  H   H2718     1.0  0.91420  0.13681  0.95547  1.0000
  C   C3396     1.0  0.83068  0.04696  0.67193  1.0000
  C   C3397     1.0  0.76411  0.16912  0.73013  1.0000
  H   H2719     1.0  0.83619  0.09496  0.53960  1.0000
  S   S471      1.0  0.79213  0.19702  0.49863  1.0000
  C   C3398     1.0  0.75475  0.09565  0.65268  1.0000
  C   C3399     1.0  0.75130  0.10946  0.66147  1.0000
  C   C3400     1.0  0.73977  0.10832  0.68526  1.0000
  C   C3401     1.0  0.73145  0.09326  0.70014  1.0000
  C   C3402     1.0  0.73471  0.07940  0.69097  1.0000
  C   C3403     1.0  0.74646  0.08062  0.66760  1.0000
  H   H2720     1.0  0.75753  0.12113  0.64996  1.0000
  H   H2721     1.0  0.73731  0.11905  0.69212  1.0000
  H   H2722     1.0  0.72823  0.06770  0.70224  1.0000
  H   H2723     1.0  0.74890  0.06987  0.66079  1.0000
  C   C3404     1.0  0.75858  0.99590  0.58434  1.0000
  C   C3405     1.0  0.75777  0.99817  0.61777  1.0000
  H   H2724     1.0  0.76439  0.00643  0.56918  1.0000
  H   H2725     1.0  0.75229  0.14556  0.92956  1.0000
  H   H2726     1.0  0.86562  0.30563  0.54554  1.0000
  C   C3406     1.0  0.83303  0.13975  0.55221  1.0000
  C   C3407     1.0  0.82941  0.13031  0.58029  1.0000
  C   C3408     1.0  0.84114  0.12692  0.59582  1.0000
  C   C3409     1.0  0.85666  0.13343  0.58414  1.0000
  C   C3410     1.0  0.86052  0.14354  0.55714  1.0000
  C   C3411     1.0  0.84879  0.14682  0.54138  1.0000
  C   C3412     1.0  0.76198  0.14681  0.94510  1.0000
  C   C3413     1.0  0.83602  0.09678  0.51391  1.0000
  H   H2727     1.0  0.75986  0.08797  0.52795  1.0000
  H   H2728     1.0  0.78545  0.14015  0.52133  1.0000
  H   H2729     1.0  0.81747  0.12537  0.58988  1.0000
  H   H2730     1.0  0.83819  0.11896  0.61660  1.0000
  H   H2731     1.0  0.86566  0.13056  0.59598  1.0000
  C   C3414     1.0  0.77152  0.14087  0.99551  1.0000
  S   S472      1.0  0.80911  0.27170  0.52676  1.0000
  H   H2732     1.0  0.80683  0.19343  0.60609  1.0000
  H   H2733     1.0  0.72616  0.20394  0.57113  1.0000
  C   C3415     1.0  0.82546  0.14600  0.82161  1.0000
  C   C3416     1.0  0.82645  0.26265  0.91438  1.0000
  C   C3417     1.0  0.75096  0.15083  0.55310  1.0000
  H   H2734     1.0  0.85294  0.27863  0.80070  1.0000
  C   C3418     1.0  0.80350  0.24089  0.89202  1.0000
  C   C3419     1.0  0.81985  0.24891  0.89388  1.0000
  H   H2735     1.0  0.75979  0.17661  0.71573  1.0000
  C   C3420     1.0  0.72067  0.19234  0.83607  1.0000
  H   H2736     1.0  0.79841  0.23002  0.87686  1.0000
  H   H2737     1.0  0.82732  0.24406  0.88011  1.0000
  C   C3421     1.0  0.77433  0.12675  0.85651  1.0000
  P   P115      1.0  0.78043  0.13569  0.79175  1.0000
  C   C3422     1.0  0.77786  0.11733  0.76819  1.0000
  C   C3423     1.0  0.79037  0.11602  0.74966  1.0000
  C   C3424     1.0  0.78816  0.10167  0.73173  1.0000
  C   C3425     1.0  0.77341  0.08877  0.73128  1.0000
  C   C3426     1.0  0.76084  0.09019  0.74890  1.0000
  C   C3427     1.0  0.76296  0.10448  0.76684  1.0000
  C   C3428     1.0  0.77437  0.14906  0.76763  1.0000
  C   C3429     1.0  0.76871  0.15722  0.71527  1.0000
  C   C3430     1.0  0.77383  0.14723  0.73388  1.0000
  H   H2738     1.0  0.76954  0.11943  0.90614  1.0000
  H   H2739     1.0  0.78655  0.12832  0.85795  1.0000
  H   H2740     1.0  0.80177  0.12607  0.74870  1.0000
  H   H2741     1.0  0.79785  0.10060  0.71785  1.0000
  H   H2742     1.0  0.77162  0.07778  0.71686  1.0000
  H   H2743     1.0  0.74931  0.08031  0.74824  1.0000
  H   H2744     1.0  0.75286  0.10541  0.77936  1.0000
  H   H2745     1.0  0.79901  0.17043  0.80762  1.0000
  H   H2746     1.0  0.76803  0.15552  0.68933  1.0000
  H   H2747     1.0  0.77700  0.13788  0.72182  1.0000
  C   C3431     1.0  0.83442  0.07380  0.84936  1.0000
  C   C3432     1.0  0.84948  0.08345  0.86015  1.0000
  C   C3433     1.0  0.85131  0.09473  0.88547  1.0000
  C   C3434     1.0  0.83817  0.09681  0.89929  1.0000
  C   C3435     1.0  0.82304  0.08760  0.88780  1.0000
  C   C3436     1.0  0.82120  0.07562  0.86358  1.0000
  P   P116      1.0  0.80608  0.08987  0.90668  1.0000
  C   C3437     1.0  0.81160  0.11075  0.92130  1.0000
  C   C3438     1.0  0.79066  0.08759  0.87873  1.0000
  C   C3439     1.0  0.77542  0.08491  0.89050  1.0000
  C   C3440     1.0  0.76334  0.08314  0.86913  1.0000
  C   C3441     1.0  0.76648  0.08442  0.83597  1.0000
  C   C3442     1.0  0.78179  0.08788  0.82419  1.0000
  C   C3443     1.0  0.79391  0.08974  0.84550  1.0000
  C   C3444     1.0  0.80744  0.11414  0.95259  1.0000
  H   H2748     1.0  0.77087  0.03816  0.95907  1.0000
  C   C3445     1.0  0.88234  0.28022  0.85049  1.0000
  C   C3446     1.0  0.82343  0.14013  0.91109  1.0000
  C   C3447     1.0  0.81947  0.12384  0.90046  1.0000
  C   C3448     1.0  0.79981  0.07493  0.93860  1.0000
  C   C3449     1.0  0.93795  0.14096  0.96926  1.0000
  C   C3450     1.0  0.78152  0.04914  0.96098  1.0000
  C   C3451     1.0  0.80207  0.01773  0.56587  1.0000
  H   H2749     1.0  0.74392  0.17023  0.82068  1.0000
  C   C3452     1.0  0.78607  0.06060  0.93604  1.0000
  H   H2750     1.0  0.83302  0.06500  0.82983  1.0000
  H   H2751     1.0  0.85975  0.08221  0.84893  1.0000
  H   H2752     1.0  0.86295  0.10198  0.89429  1.0000
  H   H2753     1.0  0.83990  0.10564  0.91890  1.0000
  H   H2754     1.0  0.80960  0.06782  0.85541  1.0000
  H   H2755     1.0  0.77288  0.08419  0.91621  1.0000
  H   H2756     1.0  0.75155  0.08089  0.87825  1.0000
  H   H2757     1.0  0.75705  0.08290  0.81950  1.0000
  H   H2758     1.0  0.78429  0.08910  0.79853  1.0000
  H   H2759     1.0  0.80577  0.09293  0.83594  1.0000
  H   H2760     1.0  0.83111  0.99184  0.56411  1.0000
  C   C3453     1.0  0.80300  0.01956  0.66079  1.0000
  H   H2761     1.0  0.77473  0.15426  0.56328  1.0000
  H   H2762     1.0  0.82984  0.15026  0.89528  1.0000
  H   H2763     1.0  0.82277  0.12145  0.87617  1.0000
  S   S473      1.0  0.77875  0.22597  0.51729  1.0000
  H   H2764     1.0  0.76718  0.12759  0.59197  1.0000
  H   H2765     1.0  0.82031  0.08768  0.96730  1.0000
  H   H2766     1.0  0.84068  0.04161  0.51821  1.0000
  H   H2767     1.0  0.77896  0.05808  0.91472  1.0000
  C   C3454     1.0  0.81647  0.26793  0.93368  1.0000
  C   C3455     1.0  0.79986  0.20003  0.73243  1.0000
  C   C3456     1.0  0.80944  0.19561  0.75276  1.0000
  C   C3457     1.0  0.81934  0.18813  0.73998  1.0000
  C   C3458     1.0  0.81984  0.18519  0.70663  1.0000
  C   C3459     1.0  0.81003  0.18951  0.68648  1.0000
  P   P117      1.0  0.83258  0.17556  0.68967  1.0000
  C   C3460     1.0  0.84798  0.17783  0.71784  1.0000
  C   C3461     1.0  0.82148  0.15402  0.68123  1.0000
  C   C3462     1.0  0.82911  0.14288  0.67945  1.0000
  C   C3463     1.0  0.82069  0.12636  0.67142  1.0000
  C   C3464     1.0  0.80472  0.12090  0.66449  1.0000
  C   C3465     1.0  0.79704  0.13185  0.66643  1.0000
  C   C3466     1.0  0.80533  0.14833  0.67487  1.0000
  C   C3467     1.0  0.84567  0.16606  0.74188  1.0000
  C   C3468     1.0  0.85764  0.16783  0.76354  1.0000
  C   C3469     1.0  0.87179  0.18157  0.76198  1.0000
  C   C3470     1.0  0.87407  0.19347  0.73855  1.0000
  C   C3471     1.0  0.86223  0.19162  0.71650  1.0000
  C   C3472     1.0  0.84155  0.18557  0.65243  1.0000
  C   C3473     1.0  0.84478  0.20238  0.64825  1.0000
  C   C3474     1.0  0.85179  0.21015  0.61955  1.0000
  H   H2768     1.0  0.84145  0.02603  0.56650  1.0000
  P   P118      1.0  0.81662  0.00648  0.61230  1.0000
  C   C3475     1.0  0.84567  0.17674  0.62758  1.0000
  C   C3476     1.0  0.76466  0.12152  0.88394  1.0000
  H   H2769     1.0  0.76107  0.18031  0.77506  1.0000
  H   H2770     1.0  0.80920  0.19803  0.77846  1.0000
  H   H2771     1.0  0.82664  0.18480  0.75617  1.0000
  H   H2772     1.0  0.81008  0.18717  0.66084  1.0000
  H   H2773     1.0  0.84159  0.14692  0.68394  1.0000
  H   H2774     1.0  0.82656  0.11778  0.67040  1.0000
  H   H2775     1.0  0.79820  0.10810  0.65810  1.0000
  H   H2776     1.0  0.78461  0.12747  0.66138  1.0000
  H   H2777     1.0  0.79908  0.15651  0.67614  1.0000
  H   H2778     1.0  0.83467  0.15548  0.74399  1.0000
  H   H2779     1.0  0.85597  0.15853  0.78161  1.0000
  H   H2780     1.0  0.88100  0.18306  0.77898  1.0000
  H   H2781     1.0  0.88506  0.20411  0.73750  1.0000
  H   H2782     1.0  0.86428  0.20100  0.69860  1.0000
  H   H2783     1.0  0.84192  0.20954  0.66715  1.0000
  H   H2784     1.0  0.85404  0.22305  0.61627  1.0000
  H   H2785     1.0  0.84246  0.27910  0.54102  1.0000
  H   H2786     1.0  0.80583  0.12446  0.80754  1.0000
  H   H2787     1.0  0.84341  0.16381  0.62997  1.0000
  C   C3477     1.0  0.80931  0.18394  0.59276  1.0000
  H   H2788     1.0  0.84303  0.16931  0.83589  1.0000
  H   H2789     1.0  0.73014  0.11999  0.85334  1.0000
  H   H2790     1.0  0.82599  0.18479  0.82735  1.0000
  C   C3478     1.0  0.82159  0.17169  0.82209  1.0000
  C   C3479     1.0  0.81015  0.13771  0.81060  1.0000
  C   C3480     1.0  0.83119  0.16297  0.82722  1.0000
  H   H2791     1.0  0.74051  0.20037  0.80305  1.0000
  C   C3481     1.0  0.75216  0.12729  0.82688  1.0000
  C   C3482     1.0  0.76979  0.16112  0.78239  1.0000
  H   H2792     1.0  0.82812  0.20388  0.93895  1.0000
  P   P119      1.0  0.84749  0.27182  0.91910  1.0000
  H   H2793     1.0  0.82600  0.20111  0.56076  1.0000
  C   C3483     1.0  0.81997  0.18827  0.56680  1.0000
  C   C3484     1.0  0.85786  0.27445  0.88081  1.0000
  H   H2794     1.0  0.74702  0.12933  0.80499  1.0000
  H   H2795     1.0  0.89531  0.15161  0.99176  1.0000
  H   H2796     1.0  0.83288  0.13928  0.82623  1.0000
  H   H2797     1.0  0.76986  0.16260  0.80841  1.0000
  H   H2798     1.0  0.85208  0.15479  0.52066  1.0000
  C   C3485     1.0  0.74873  0.11903  0.88277  1.0000
  H   H2799     1.0  0.81672  0.05515  0.70510  1.0000
  C   C3486     1.0  0.80009  0.19689  0.69929  1.0000
  C   C3487     1.0  0.94171  0.20392  0.50277  1.0000
  C   C3488     1.0  0.94940  0.19625  0.85519  1.0000
  H   H2800     1.0  0.84049  0.26419  0.98669  1.0000
  H   H2801     1.0  0.82121  0.27786  0.95112  1.0000
  C   C3489     1.0  0.78983  0.15867  0.95603  1.0000
  H   H2802     1.0  0.79214  0.20576  0.74236  1.0000
  C   C3490     1.0  0.76250  0.14609  0.56566  1.0000
  H   H2803     1.0  0.74120  0.11501  0.90399  1.0000
  H   H2804     1.0  0.74314  0.21629  0.52357  1.0000
  H   H2805     1.0  0.86382  0.25792  0.58046  1.0000
  C   C3491     1.0  0.92657  0.14177  0.94839  1.0000
  C   C3492     1.0  0.72345  0.17912  0.55838  1.0000
  H   H2806     1.0  0.79308  0.16406  0.62066  1.0000
  C   C3493     1.0  0.86089  0.23574  0.95307  1.0000
  H   H2807     1.0  0.79251  0.20014  0.68351  1.0000
  C   C3494     1.0  0.77731  0.15693  0.93593  1.0000
  C   C3495     1.0  0.85157  0.25774  0.94492  1.0000
  S   S474      1.0  0.83841  0.21114  0.49794  1.0000
  H   H2808     1.0  0.94489  0.21575  0.59404  1.0000
  C   C3496     1.0  0.83353  0.00091  0.61342  1.0000
  H   H2809     1.0  0.83130  0.17975  0.52881  1.0000
  H   H2810     1.0  0.76019  0.11597  0.52074  1.0000
  H   H2811     1.0  0.80089  0.98573  0.66718  1.0000
  C   C3497     1.0  0.73498  0.14076  0.55690  1.0000
  H   H2812     1.0  0.88391  0.28467  0.56287  1.0000
  H   H2813     1.0  0.83819  0.27393  0.85242  1.0000
  H   H2814     1.0  0.78099  0.23958  0.91073  1.0000
  C   C3498     1.0  0.73866  0.20309  0.52694  1.0000
  C   C3499     1.0  0.93757  0.19590  0.55903  1.0000
  H   H2815     1.0  0.86158  0.24686  0.90742  1.0000
  H   H2816     1.0  0.88013  0.27761  0.90196  1.0000
  H   H2817     1.0  0.95031  0.16060  0.88515  1.0000
  C   C3500     1.0  0.85041  0.27528  0.85215  1.0000
  C   C3501     1.0  0.79218  0.97895  0.58742  1.0000
  H   H2818     1.0  0.79199  0.00947  0.65578  1.0000
  C   C3502     1.0  0.80160  0.16740  0.60090  1.0000
  C   C3503     1.0  0.82452  0.30569  0.52853  1.0000
  H   H2819     1.0  0.89475  0.28232  0.84992  1.0000
  S   S475      1.0  0.72060  0.16913  0.69062  1.0000
  H   H2820     1.0  0.74889  0.98577  0.66263  1.0000
  H   H2821     1.0  0.79827  0.14239  0.58928  1.0000
  C   C3504     1.0  0.85282  0.18460  0.59907  1.0000
  H   H2822     1.0  0.82275  0.15598  0.95083  1.0000
  C   C3505     1.0  0.72739  0.16895  0.53618  1.0000
  H   H2823     1.0  0.92237  0.14954  0.90183  1.0000
  C   C3506     1.0  0.79933  0.10990  0.53213  1.0000
  C   C3507     1.0  0.79490  0.97982  0.64545  1.0000
  C   C3508     1.0  0.81144  0.13041  0.96314  1.0000
  H   H2824     1.0  0.79595  0.98410  0.56376  1.0000
  C   C3509     1.0  0.85582  0.20127  0.59497  1.0000
  C   C3510     1.0  0.85608  0.23485  0.98545  1.0000
  C   C3511     1.0  0.77114  0.11432  0.52374  1.0000
  C   C3512     1.0  0.79985  0.98720  0.61531  1.0000
  Fe  Fe234     1.0  0.78350  0.20795  0.96424  1.0000
  H   H2825     1.0  0.79202  0.03083  0.69490  1.0000
  C   C3513     1.0  0.81692  0.02087  0.64423  1.0000
  C   C3514     1.0  0.94701  0.15512  0.90866  1.0000
  C   C3515     1.0  0.85370  0.29217  0.93690  1.0000
  C   C3516     1.0  0.94785  0.18147  0.83941  1.0000
  H   H2826     1.0  0.78481  0.08404  0.53385  1.0000
  C   C3517     1.0  0.80173  0.02660  0.53854  1.0000
  C   C3518     1.0  0.71452  0.13742  0.50159  1.0000
  Fe  Fe235     1.0  0.71220  0.14680  0.72380  1.0000
  H   H2827     1.0  0.80131  0.10431  0.96902  1.0000
  H   H2828     1.0  0.83891  0.29990  0.90694  1.0000
  C   C3519     1.0  0.85066  0.98902  0.58684  1.0000
  C   C3520     1.0  0.81948  0.14339  0.94247  1.0000
  C   C3521     1.0  0.84103  0.29062  0.53811  1.0000
  C   C3522     1.0  0.79364  0.24628  0.91116  1.0000
  C   C3523     1.0  0.87566  0.27668  0.54570  1.0000
  H   H2829     1.0  0.84139  0.03657  0.63580  1.0000
  C   C3524     1.0  0.86530  0.29722  0.96058  1.0000
  H   H2830     1.0  0.87256  0.14860  0.54805  1.0000
  S   S476      1.0  0.71728  0.09144  0.73089  1.0000
  H   H2831     1.0  0.81538  0.04225  0.50049  1.0000
  H   H2832     1.0  0.81013  0.10785  0.53463  1.0000
  H   H2833     1.0  0.72251  0.11753  0.50898  1.0000
  H   H2834     1.0  0.85583  0.17768  0.57991  1.0000
  H   H2835     1.0  0.84490  0.23982  0.54114  1.0000
  C   C3525     1.0  0.75910  0.13858  0.97447  1.0000
  C   C3526     1.0  0.85416  0.30572  0.54067  1.0000
  C   C3527     1.0  0.86432  0.26167  0.55563  1.0000
  H   H2836     1.0  0.84316  0.20094  0.89014  1.0000
  H   H2837     1.0  0.79254  0.26353  0.94798  1.0000
  H   H2838     1.0  0.80167  0.16690  0.94933  1.0000
  H   H2839     1.0  0.85428  0.13468  0.96577  1.0000
  C   C3528     1.0  0.83024  0.02573  0.55849  1.0000
  H   H2840     1.0  0.72788  0.19463  0.85733  1.0000
  H   H2841     1.0  0.86103  0.20723  0.57254  1.0000
  H   H2842     1.0  0.72474  0.15306  0.91430  1.0000
  H   H2843     1.0  0.88120  0.28272  0.79916  1.0000
  H   H2844     1.0  0.71848  0.11777  0.57642  1.0000
  C   C3529     1.0  0.81681  0.04543  0.68863  1.0000
  H   H2845     1.0  0.93173  0.17870  0.51946  1.0000
  C   C3530     1.0  0.77092  0.09853  0.52767  1.0000
  C   C3531     1.0  0.72780  0.19555  0.80547  1.0000
  C   C3532     1.0  0.84768  0.30348  0.92556  1.0000
  H   H2846     1.0  0.84124  0.05791  0.67546  1.0000
  H   H2847     1.0  0.93360  0.18636  0.57705  1.0000
  C   C3533     1.0  0.74235  0.12102  0.58553  1.0000
  C   C3534     1.0  0.93114  0.14890  0.91815  1.0000
  H   H2848     1.0  0.75465  0.16256  0.54124  1.0000
  H   H2849     1.0  0.80865  0.13298  0.98764  1.0000
  C   C3535     1.0  0.73714  0.17609  0.50949  1.0000
  C   C3536     1.0  0.74970  0.98424  0.63679  1.0000
  C   C3537     1.0  0.93648  0.19161  0.52623  1.0000
  Fe  Fe236     1.0  0.71006  0.11293  0.74189  1.0000
  C   C3538     1.0  0.78502  0.09632  0.53134  1.0000
  C   C3539     1.0  0.83072  0.03482  0.64957  1.0000
  C   C3540     1.0  0.94927  0.22476  0.54540  1.0000
  C   C3541     1.0  0.79953  0.12586  0.53010  1.0000
  C   C3542     1.0  0.87471  0.28048  0.82191  1.0000
  C   C3543     1.0  0.82987  0.03466  0.53120  1.0000
  C   C3544     1.0  0.80013  0.25978  0.93201  1.0000
  Fe  Fe237     1.0  0.80421  0.24408  0.51851  1.0000
  H   H2850     1.0  0.73905  0.10947  0.59816  1.0000
  H   H2851     1.0  0.85939  0.11570  0.51215  1.0000
  C   C3545     1.0  0.87400  0.27742  0.87989  1.0000
  C   C3546     1.0  0.81626  0.01698  0.57569  1.0000
  C   C3547     1.0  0.83780  0.99379  0.58603  1.0000
  H   H2852     1.0  0.71803  0.14924  0.61108  1.0000
  C   C3548     1.0  0.72905  0.19612  0.55367  1.0000
  C   C3549     1.0  0.75822  0.13125  0.58207  1.0000
  H   H2853     1.0  0.84993  0.17776  0.99366  1.0000
  Fe  Fe238     1.0  0.71030  0.13728  0.79517  1.0000
  C   C3550     1.0  0.85353  0.25156  0.53356  1.0000
  H   H2854     1.0  0.85392  0.98356  0.56560  1.0000
  C   C3551     1.0  0.74278  0.19307  0.50497  1.0000
  C   C3552     1.0  0.94395  0.21246  0.56861  1.0000
  C   C3553     1.0  0.85186  0.12381  0.98011  1.0000
  C   C3554     1.0  0.94819  0.22052  0.51260  1.0000
  Fe  Fe239     1.0  0.81630  0.21683  0.50156  1.0000
  H   H2855     1.0  0.83852  0.00756  0.66375  1.0000
  C   C3555     1.0  0.81562  0.03503  0.52118  1.0000
  C   C3556     1.0  0.84918  0.10853  0.49825  1.0000
  C   C3557     1.0  0.78697  0.15067  0.98572  1.0000
  C   C3558     1.0  0.85482  0.99791  0.64269  1.0000
  H   H2856     1.0  0.79077  0.02739  0.53145  1.0000
  C   C3559     1.0  0.79082  0.05171  0.98827  1.0000
  H   H2857     1.0  0.86593  0.09412  0.99424  1.0000
  C   C3560     1.0  0.71851  0.19229  0.77804  1.0000
  C   C3561     1.0  0.87626  0.28154  0.51366  1.0000
  H   H2858     1.0  0.71622  0.17413  0.57952  1.0000
  H   H2859     1.0  0.75284  0.97838  0.54463  1.0000
  H   H2860     1.0  0.86914  0.98740  0.61577  1.0000
  H   H2861     1.0  0.95435  0.23759  0.55283  1.0000
  C   C3562     1.0  0.80481  0.06557  0.99033  1.0000
  C   C3563     1.0  0.95387  0.14714  0.95976  1.0000
  H   H2862     1.0  0.88517  0.29325  0.50677  1.0000
  H   H2863     1.0  0.72400  0.19447  0.75420  1.0000
  H   H2864     1.0  0.93437  0.13540  0.99269  1.0000
  C   C3564     1.0  0.95850  0.15409  0.92913  1.0000
  C   C3565     1.0  0.85841  0.10102  0.99637  1.0000
  H   H2865     1.0  0.85300  0.52541  0.18888  1.0000
  H   H2866     1.0  0.93135  0.35963  0.07723  1.0000
  H   H2867     1.0  0.75195  0.51177  0.41741  1.0000
  H   H2868     1.0  0.75831  0.59625  0.17308  1.0000
  H   H2869     1.0  0.73721  0.60527  0.13713  1.0000
  C   C3566     1.0  0.95132  0.49925  0.45965  1.0000
  H   H2870     1.0  0.90285  0.41181  0.18291  1.0000
  Fe  Fe240     1.0  0.80222  0.55622  0.24569  1.0000
  S   S477      1.0  0.80728  0.57548  0.28497  1.0000
  S   S478      1.0  0.80858  0.53339  0.24785  1.0000
  Fe  Fe241     1.0  0.78540  0.57300  0.20454  1.0000
  S   S479      1.0  0.78939  0.59320  0.24158  1.0000
  S   S480      1.0  0.77676  0.57796  0.15615  1.0000
  Fe  Fe242     1.0  0.81382  0.59382  0.24482  1.0000
  S   S481      1.0  0.83440  0.61834  0.25111  1.0000
  Fe  Fe243     1.0  0.78238  0.57349  0.27904  1.0000
  S   S482      1.0  0.76990  0.57980  0.32256  1.0000
  S   S483      1.0  0.81055  0.57481  0.20582  1.0000
  S   S484      1.0  0.77652  0.55297  0.24180  1.0000
  Fe  Fe244     1.0  0.88501  0.47751  0.33063  1.0000
  S   S485      1.0  0.90533  0.47619  0.30113  1.0000
  S   S486      1.0  0.87525  0.46404  0.37787  1.0000
  Fe  Fe245     1.0  0.88206  0.50509  0.29021  1.0000
  S   S487      1.0  0.90234  0.50566  0.25801  1.0000
  S   S488      1.0  0.87277  0.52594  0.28617  1.0000
  Fe  Fe246     1.0  0.89181  0.47797  0.25771  1.0000
  S   S489      1.0  0.89734  0.46815  0.20915  1.0000
  Fe  Fe247     1.0  0.91479  0.50372  0.30251  1.0000
  S   S490      1.0  0.94130  0.51727  0.30076  1.0000
  S   S491      1.0  0.87039  0.47732  0.28707  1.0000
  S   S492      1.0  0.89554  0.50521  0.33513  1.0000
  Fe  Fe248     1.0  0.87903  0.39452  0.07903  1.0000
  S   S493      1.0  0.88962  0.37582  0.08746  1.0000
  S   S494      1.0  0.86812  0.40252  0.12324  1.0000
  H   H2871     1.0  0.83086  0.63971  0.33015  1.0000
  P   P120      1.0  0.94363  0.48517  0.05216  1.0000
  S   S495      1.0  0.89100  0.40887  0.45010  1.0000
  Fe  Fe249     1.0  0.87597  0.36172  0.04467  1.0000
  S   S496      1.0  0.86716  0.33325  0.04851  1.0000
  Fe  Fe250     1.0  0.90871  0.39058  0.05323  1.0000
  S   S497      1.0  0.93470  0.39516  0.05647  1.0000
  S   S498      1.0  0.86413  0.37972  0.03766  1.0000
  S   S499      1.0  0.89921  0.41034  0.04734  1.0000
  C   C3567     1.0  0.94677  0.40765  0.08700  1.0000
  H   H2872     1.0  0.92874  0.41429  0.10995  1.0000
  H   H2873     1.0  0.95153  0.52748  0.41701  1.0000
  C   C3568     1.0  0.87921  0.32739  0.45983  1.0000
  C   C3569     1.0  0.88981  0.31565  0.22385  1.0000
  C   C3570     1.0  0.94274  0.53263  0.19077  1.0000
  C   C3571     1.0  0.83323  0.54709  0.35319  1.0000
  C   C3572     1.0  0.88909  0.44955  0.18630  1.0000
  C   C3573     1.0  0.87437  0.43741  0.19382  1.0000
  C   C3574     1.0  0.86816  0.42312  0.17427  1.0000
  C   C3575     1.0  0.87663  0.42069  0.14720  1.0000
  C   C3576     1.0  0.89144  0.43274  0.13989  1.0000
  C   C3577     1.0  0.89757  0.44712  0.15922  1.0000
  H   H2874     1.0  0.86755  0.43926  0.21407  1.0000
  H   H2875     1.0  0.85659  0.41402  0.17982  1.0000
  H   H2876     1.0  0.89805  0.43110  0.11908  1.0000
  H   H2877     1.0  0.90887  0.45651  0.15285  1.0000
  C   C3578     1.0  0.88032  0.44913  0.39790  1.0000
  C   C3579     1.0  0.87532  0.44533  0.43015  1.0000
  C   C3580     1.0  0.87869  0.43327  0.44678  1.0000
  C   C3581     1.0  0.88690  0.42467  0.43109  1.0000
  C   C3582     1.0  0.89183  0.42841  0.39883  1.0000
  C   C3583     1.0  0.88868  0.44065  0.38236  1.0000
  H   H2878     1.0  0.86874  0.45174  0.44232  1.0000
  C   C3584     1.0  0.92452  0.57868  0.22732  1.0000
  H   H2879     1.0  0.89822  0.42184  0.38662  1.0000
  H   H2880     1.0  0.89256  0.44340  0.35756  1.0000
  C   C3585     1.0  0.77510  0.62049  0.30869  1.0000
  C   C3586     1.0  0.88004  0.33445  0.19856  1.0000
  C   C3587     1.0  0.92965  0.45419  0.39725  1.0000
  H   H2881     1.0  0.81533  0.62574  0.13289  1.0000
  C   C3588     1.0  0.82635  0.53140  0.25943  1.0000
  C   C3589     1.0  0.83925  0.54478  0.27087  1.0000
  C   C3590     1.0  0.85312  0.54271  0.27962  1.0000
  C   C3591     1.0  0.85447  0.52732  0.27654  1.0000
  C   C3592     1.0  0.84152  0.51386  0.26527  1.0000
  C   C3593     1.0  0.82755  0.51590  0.25691  1.0000
  H   H2882     1.0  0.83854  0.55673  0.27279  1.0000
  H   H2883     1.0  0.86291  0.55315  0.28866  1.0000
  H   H2884     1.0  0.84231  0.50193  0.26273  1.0000
  H   H2885     1.0  0.81767  0.50543  0.24807  1.0000
  C   C3594     1.0  0.73158  0.55374  0.09689  1.0000
  C   C3595     1.0  0.74279  0.56927  0.08901  1.0000
  C   C3596     1.0  0.75647  0.57647  0.10755  1.0000
  C   C3597     1.0  0.75909  0.56831  0.13427  1.0000
  C   C3598     1.0  0.74779  0.55289  0.14246  1.0000
  C   C3599     1.0  0.73413  0.54565  0.12382  1.0000
  H   H2886     1.0  0.74099  0.57565  0.06844  1.0000
  H   H2887     1.0  0.76512  0.58841  0.10104  1.0000
  H   H2888     1.0  0.74966  0.54644  0.16283  1.0000
  H   H2889     1.0  0.72555  0.53364  0.13010  1.0000
  C   C3600     1.0  0.73211  0.55212  0.39811  1.0000
  C   C3601     1.0  0.74726  0.60999  0.20130  1.0000
  C   C3602     1.0  0.74616  0.55191  0.34722  1.0000
  C   C3603     1.0  0.75579  0.56846  0.35182  1.0000
  C   C3604     1.0  0.75358  0.57676  0.37972  1.0000
  C   C3605     1.0  0.74177  0.56868  0.40270  1.0000
  P   P121      1.0  0.75837  0.62941  0.18228  1.0000
  H   H2890     1.0  0.74759  0.54556  0.32552  1.0000
  H   H2891     1.0  0.76078  0.58963  0.38334  1.0000
  H   H2892     1.0  0.74009  0.57527  0.42390  1.0000
  C   C3606     1.0  0.77708  0.62949  0.16735  1.0000
  H   H2893     1.0  0.73461  0.57998  0.31420  1.0000
  C   C3607     1.0  0.94637  0.52397  0.21500  1.0000
  C   C3608     1.0  0.73403  0.62037  0.44708  1.0000
  H   H2894     1.0  0.83588  0.32549  0.01969  1.0000
  C   C3609     1.0  0.95772  0.53072  0.01101  1.0000
  C   C3610     1.0  0.81791  0.60092  0.35939  1.0000
  C   C3611     1.0  0.86575  0.32724  0.21580  1.0000
  C   C3612     1.0  0.83956  0.62576  0.18618  1.0000
  H   H2895     1.0  0.79132  0.55642  0.39283  1.0000
  H   H2896     1.0  0.87404  0.54968  0.21030  1.0000
  H   H2897     1.0  0.83245  0.61294  0.18137  1.0000
  H   H2898     1.0  0.90243  0.34642  0.45885  1.0000
  H   H2899     1.0  0.90473  0.49791  0.12043  1.0000
  H   H2900     1.0  0.90232  0.41168  0.24257  1.0000
  C   C3613     1.0  0.79978  0.62221  0.17415  1.0000
  C   C3614     1.0  0.78594  0.62336  0.18645  1.0000
  C   C3615     1.0  0.75361  0.51205  0.27902  1.0000
  C   C3616     1.0  0.95279  0.49863  0.49304  1.0000
  H   H2901     1.0  0.77628  0.48383  0.46560  1.0000
  H   H2902     1.0  0.78187  0.61892  0.21045  1.0000
  C   C3617     1.0  0.91390  0.36440  0.14796  1.0000
  H   H2903     1.0  0.84901  0.59083  0.24553  1.0000
  C   C3618     1.0  0.92819  0.46457  0.37367  1.0000
  H   H2904     1.0  0.76761  0.46100  0.37155  1.0000
  C   C3619     1.0  0.82279  0.62839  0.34075  1.0000
  C   C3620     1.0  0.92312  0.49601  0.14901  1.0000
  C   C3621     1.0  0.73879  0.62677  0.47793  1.0000
  C   C3622     1.0  0.84586  0.63666  0.16043  1.0000
  C   C3623     1.0  0.86965  0.58751  0.26291  1.0000
  C   C3624     1.0  0.87841  0.58811  0.29057  1.0000
  C   C3625     1.0  0.87293  0.59083  0.32107  1.0000
  C   C3626     1.0  0.85893  0.59348  0.32420  1.0000
  C   C3627     1.0  0.85045  0.59349  0.29678  1.0000
  C   C3628     1.0  0.85572  0.59047  0.26635  1.0000
  C   C3629     1.0  0.90853  0.59276  0.20728  1.0000
  C   C3630     1.0  0.92303  0.59104  0.20867  1.0000
  H   H2905     1.0  0.93575  0.57736  0.22844  1.0000
  C   C3631     1.0  0.91153  0.56805  0.24469  1.0000
  C   C3632     1.0  0.95014  0.46202  0.34315  1.0000
  C   C3633     1.0  0.86161  0.56616  0.20517  1.0000
  C   C3634     1.0  0.84767  0.56707  0.19388  1.0000
  C   C3635     1.0  0.83583  0.55310  0.18096  1.0000
  C   C3636     1.0  0.83773  0.53811  0.17920  1.0000
  C   C3637     1.0  0.85164  0.53713  0.18965  1.0000
  C   C3638     1.0  0.94020  0.44944  0.47935  1.0000
  H   H2906     1.0  0.93534  0.49350  0.42001  1.0000
  C   C3639     1.0  0.77477  0.55883  0.42776  1.0000
  C   C3640     1.0  0.77157  0.47068  0.42013  1.0000
  C   C3641     1.0  0.95507  0.50396  0.03106  1.0000
  C   C3642     1.0  0.91574  0.49606  0.12008  1.0000
  C   C3643     1.0  0.89707  0.56978  0.24346  1.0000
  C   C3644     1.0  0.90033  0.45130  0.02804  1.0000
  C   C3645     1.0  0.73147  0.61918  0.10143  1.0000
  H   H2907     1.0  0.74777  0.51723  0.35891  1.0000
  C   C3646     1.0  0.72713  0.59371  0.23957  1.0000
  H   H2908     1.0  0.90770  0.60246  0.19276  1.0000
  H   H2909     1.0  0.93313  0.59934  0.19533  1.0000
  H   H2910     1.0  0.88719  0.56145  0.25733  1.0000
  H   H2911     1.0  0.72367  0.56804  0.24209  1.0000
  H   H2912     1.0  0.73721  0.59657  0.36434  1.0000
  H   H2913     1.0  0.84585  0.57852  0.19512  1.0000
  H   H2914     1.0  0.82495  0.55375  0.17305  1.0000
  H   H2915     1.0  0.82827  0.52718  0.17039  1.0000
  H   H2916     1.0  0.73788  0.61798  0.29537  1.0000
  H   H2917     1.0  0.80633  0.61706  0.18872  1.0000
  H   H2918     1.0  0.91783  0.49779  0.17174  1.0000
  C   C3647     1.0  0.89367  0.38539  0.17832  1.0000
  C   C3648     1.0  0.84260  0.63146  0.21800  1.0000
  H   H2919     1.0  0.94273  0.49326  0.17128  1.0000
  H   H2920     1.0  0.91259  0.55842  0.25922  1.0000
  C   C3649     1.0  0.74152  0.58081  0.20701  1.0000
  H   H2921     1.0  0.77591  0.63936  0.12035  1.0000
  C   C3650     1.0  0.77038  0.47187  0.38683  1.0000
  H   H2922     1.0  0.72689  0.53095  0.36660  1.0000
  C   C3651     1.0  0.81183  0.52597  0.38139  1.0000
  P   P122      1.0  0.88280  0.35114  0.17150  1.0000
  C   C3652     1.0  0.79625  0.63341  0.12359  1.0000
  H   H2923     1.0  0.73311  0.61946  0.23194  1.0000
  C   C3653     1.0  0.72415  0.57997  0.32693  1.0000
  C   C3654     1.0  0.94199  0.45538  0.22159  1.0000
  C   C3655     1.0  0.93624  0.49022  0.09024  1.0000
  Fe  Fe251     1.0  0.71225  0.55444  0.47124  1.0000
  H   H2924     1.0  0.87472  0.43044  0.47151  1.0000
  C   C3656     1.0  0.82808  0.61572  0.34591  1.0000
  C   C3657     1.0  0.76921  0.51332  0.27940  1.0000
  C   C3658     1.0  0.89552  0.33340  0.45529  1.0000
  H   H2925     1.0  0.91562  0.32718  0.44468  1.0000
  H   H2926     1.0  0.92226  0.42509  0.48504  1.0000
  H   H2927     1.0  0.82822  0.33665  0.09539  1.0000
  H   H2928     1.0  0.78269  0.61392  0.30280  1.0000
  C   C3659     1.0  0.77271  0.53277  0.40291  1.0000
  H   H2929     1.0  0.85980  0.32033  0.14494  1.0000
  C   C3660     1.0  0.90726  0.34544  0.09119  1.0000
  C   C3661     1.0  0.93834  0.47972  0.24162  1.0000
  C   C3662     1.0  0.92229  0.49329  0.09083  1.0000
  C   C3663     1.0  0.93645  0.49283  0.44586  1.0000
  C   C3664     1.0  0.94551  0.42464  0.48269  1.0000
  C   C3665     1.0  0.73851  0.61750  0.12992  1.0000
  C   C3666     1.0  0.80640  0.54500  0.34697  1.0000
  C   C3667     1.0  0.82249  0.55278  0.33988  1.0000
  H   H2930     1.0  0.79446  0.58735  0.37796  1.0000
  C   C3668     1.0  0.82791  0.53372  0.37399  1.0000
  H   H2931     1.0  0.83624  0.52914  0.38384  1.0000
  H   H2932     1.0  0.84564  0.55280  0.34677  1.0000
  C   C3669     1.0  0.88032  0.61705  0.21351  1.0000
  C   C3670     1.0  0.70920  0.57030  0.31564  1.0000
  C   C3671     1.0  0.77645  0.50122  0.39278  1.0000
  C   C3672     1.0  0.80718  0.62625  0.34867  1.0000
  H   H2933     1.0  0.76967  0.45889  0.43068  1.0000
  H   H2934     1.0  0.75577  0.60327  0.28229  1.0000
  H   H2935     1.0  0.77522  0.51238  0.25704  1.0000
  C   C3673     1.0  0.89864  0.40024  0.19567  1.0000
  H   H2936     1.0  0.77771  0.63967  0.39658  1.0000
  H   H2937     1.0  0.79817  0.54926  0.33568  1.0000
  H   H2938     1.0  0.93747  0.51758  0.23292  1.0000
  C   C3674     1.0  0.93537  0.46713  0.21856  1.0000
  C   C3675     1.0  0.94664  0.52237  0.36637  1.0000
  C   C3676     1.0  0.75394  0.51617  0.33699  1.0000
  H   H2939     1.0  0.93714  0.47691  0.32954  1.0000
  H   H2940     1.0  0.82187  0.59093  0.36262  1.0000
  C   C3677     1.0  0.74594  0.51337  0.30783  1.0000
  C   C3678     1.0  0.87814  0.60177  0.19888  1.0000
  P   P123      1.0  0.87657  0.58428  0.22300  1.0000
  S   S500      1.0  0.72143  0.61379  0.00642  1.0000
  H   H2941     1.0  0.93990  0.44577  0.20337  1.0000
  H   H2942     1.0  0.94250  0.43975  0.41241  1.0000
  H   H2943     1.0  0.91675  0.37197  0.16961  1.0000
  H   H2944     1.0  0.88953  0.58664  0.28899  1.0000
  C   C3679     1.0  0.95568  0.47337  0.05860  1.0000
  H   H2945     1.0  0.85477  0.59576  0.34777  1.0000
  C   C3680     1.0  0.95123  0.45593  0.24815  1.0000
  H   H2946     1.0  0.91908  0.46956  0.37613  1.0000
  H   H2947     1.0  0.78082  0.57204  0.43023  1.0000
  C   C3681     1.0  0.74988  0.59580  0.19205  1.0000
  P   P124      1.0  0.77998  0.52096  0.37523  1.0000
  C   C3682     1.0  0.77778  0.49996  0.42619  1.0000
  H   H2948     1.0  0.80803  0.51551  0.39720  1.0000
  H   H2949     1.0  0.95628  0.43516  0.04528  1.0000
  C   C3683     1.0  0.93842  0.46856  0.34687  1.0000
  C   C3684     1.0  0.80483  0.62705  0.14264  1.0000
  C   C3685     1.0  0.73017  0.57974  0.23080  1.0000
  C   C3686     1.0  0.83695  0.31405  0.02559  1.0000
  H   H2950     1.0  0.88314  0.35894  0.24152  1.0000
  H   H2951     1.0  0.74752  0.51014  0.25635  1.0000
  C   C3687     1.0  0.93478  0.43238  0.48260  1.0000
  S   S501      1.0  0.71728  0.54147  0.42674  1.0000
  C   C3688     1.0  0.78066  0.54989  0.40647  1.0000
  H   H2952     1.0  0.80887  0.63474  0.27851  1.0000
  C   C3689     1.0  0.75273  0.53385  0.44151  1.0000
  C   C3690     1.0  0.73438  0.54375  0.37034  1.0000
  C   C3691     1.0  0.77285  0.48707  0.37315  1.0000
  C   C3692     1.0  0.83766  0.36128  0.25109  1.0000
  C   C3693     1.0  0.84359  0.36612  0.21998  1.0000
  C   C3694     1.0  0.85453  0.38208  0.21482  1.0000
  C   C3695     1.0  0.85976  0.39312  0.24075  1.0000
  C   C3696     1.0  0.85423  0.38826  0.27226  1.0000
  C   C3697     1.0  0.84278  0.37236  0.27708  1.0000
  P   P125      1.0  0.86010  0.40305  0.30528  1.0000
  C   C3698     1.0  0.85788  0.39311  0.34390  1.0000
  C   C3699     1.0  0.88065  0.41623  0.30012  1.0000
  C   C3700     1.0  0.89231  0.41384  0.31826  1.0000
  C   C3701     1.0  0.90811  0.42437  0.31468  1.0000
  C   C3702     1.0  0.91244  0.43709  0.29245  1.0000
  C   C3703     1.0  0.90101  0.43932  0.27381  1.0000
  C   C3704     1.0  0.88514  0.42919  0.27810  1.0000
  C   C3705     1.0  0.85434  0.40040  0.37193  1.0000
  C   C3706     1.0  0.85414  0.39356  0.40213  1.0000
  C   C3707     1.0  0.85754  0.37947  0.40470  1.0000
  C   C3708     1.0  0.86101  0.37208  0.37700  1.0000
  C   C3709     1.0  0.86126  0.37889  0.34671  1.0000
  C   C3710     1.0  0.84834  0.41545  0.30461  1.0000
  C   C3711     1.0  0.83387  0.40979  0.28872  1.0000
  C   C3712     1.0  0.82482  0.41947  0.28848  1.0000
  C   C3713     1.0  0.83005  0.43474  0.30441  1.0000
  C   C3714     1.0  0.84435  0.44036  0.32047  1.0000
  C   C3715     1.0  0.85356  0.43088  0.32022  1.0000
  H   H2953     1.0  0.82885  0.34904  0.25495  1.0000
  H   H2954     1.0  0.83947  0.35765  0.19973  1.0000
  H   H2955     1.0  0.85884  0.38606  0.19061  1.0000
  H   H2956     1.0  0.86799  0.40548  0.23583  1.0000
  H   H2957     1.0  0.83757  0.36859  0.30075  1.0000
  H   H2958     1.0  0.88930  0.40420  0.33586  1.0000
  H   H2959     1.0  0.91695  0.42284  0.32957  1.0000
  H   H2960     1.0  0.92459  0.44535  0.28990  1.0000
  H   H2961     1.0  0.90441  0.44912  0.25639  1.0000
  H   H2962     1.0  0.87642  0.43155  0.26426  1.0000
  H   H2963     1.0  0.85223  0.41166  0.37095  1.0000
  H   H2964     1.0  0.85191  0.39955  0.42376  1.0000
  H   H2965     1.0  0.85786  0.37456  0.42832  1.0000
  H   H2966     1.0  0.86388  0.36130  0.37920  1.0000
  H   H2967     1.0  0.86459  0.37338  0.32568  1.0000
  H   H2968     1.0  0.82952  0.39796  0.27642  1.0000
  H   H2969     1.0  0.81374  0.41513  0.27596  1.0000
  H   H2970     1.0  0.82306  0.44225  0.30432  1.0000
  H   H2971     1.0  0.84836  0.45214  0.33314  1.0000
  H   H2972     1.0  0.86468  0.43554  0.33257  1.0000
  H   H2973     1.0  0.82862  0.55513  0.01572  1.0000
  C   C3716     1.0  0.76085  0.55080  0.44534  1.0000
  C   C3717     1.0  0.86350  0.31426  0.23676  1.0000
  H   H2974     1.0  0.90324  0.33405  0.18993  1.0000
  C   C3718     1.0  0.92300  0.48599  0.46549  1.0000
  H   H2975     1.0  0.80022  0.63715  0.09916  1.0000
  H   H2976     1.0  0.78933  0.51697  0.30806  1.0000
  C   C3719     1.0  0.85074  0.31443  0.03985  1.0000
  H   H2977     1.0  0.74162  0.52779  0.45433  1.0000
  C   C3720     1.0  0.84280  0.32668  0.12020  1.0000
  C   C3721     1.0  0.76972  0.51773  0.33752  1.0000
  C   C3722     1.0  0.89210  0.32863  0.20285  1.0000
  C   C3723     1.0  0.73565  0.60880  0.22489  1.0000
  H   H2978     1.0  0.71372  0.59486  0.39590  1.0000
  H   H2979     1.0  0.78526  0.60987  0.36991  1.0000
  H   H2980     1.0  0.87967  0.59106  0.34225  1.0000
  C   C3724     1.0  0.85601  0.33020  0.13940  1.0000
  H   H2981     1.0  0.92787  0.46643  0.19841  1.0000
  H   H2982     1.0  0.93100  0.53274  0.18983  1.0000
  H   H2983     1.0  0.82660  0.56288  0.32316  1.0000
  C   C3725     1.0  0.89538  0.58210  0.22461  1.0000
  H   H2984     1.0  0.91618  0.49313  0.06876  1.0000
  H   H2985     1.0  0.91144  0.48123  0.45472  1.0000
  C   C3726     1.0  0.95424  0.54119  0.16797  1.0000
  H   H2986     1.0  0.87592  0.58865  0.15331  1.0000
  H   H2987     1.0  0.77202  0.48775  0.34726  1.0000
  C   C3727     1.0  0.77529  0.48473  0.43979  1.0000
  H   H2988     1.0  0.72754  0.60730  0.44387  1.0000
  S   S502      1.0  0.71439  0.54386  0.07366  1.0000
  H   H2989     1.0  0.92167  0.45108  0.41796  1.0000
  C   C3728     1.0  0.89542  0.34313  0.11460  1.0000
  H   H2990     1.0  0.94664  0.43253  0.15102  1.0000
  C   C3729     1.0  0.84652  0.35544  0.12181  1.0000
  C   C3730     1.0  0.83811  0.33931  0.11125  1.0000
  H   H2991     1.0  0.91559  0.45635  0.06855  1.0000
  H   H2992     1.0  0.73385  0.51245  0.30757  1.0000
  C   C3731     1.0  0.86467  0.34643  0.14988  1.0000
  C   C3732     1.0  0.85973  0.35898  0.14099  1.0000
  H   H2993     1.0  0.88375  0.33420  0.10972  1.0000
  C   C3733     1.0  0.87817  0.61360  0.14642  1.0000
  C   C3734     1.0  0.78245  0.63468  0.13587  1.0000
  H   H2994     1.0  0.85634  0.33164  0.21292  1.0000
  C   C3735     1.0  0.80091  0.53151  0.36776  1.0000
  H   H2995     1.0  0.84317  0.36536  0.11422  1.0000
  H   H2996     1.0  0.95142  0.54793  0.14920  1.0000
  C   C3736     1.0  0.86358  0.55108  0.20229  1.0000
  H   H2997     1.0  0.86629  0.37161  0.14777  1.0000
  H   H2998     1.0  0.78085  0.51077  0.44172  1.0000
  H   H2999     1.0  0.93301  0.48871  0.23946  1.0000
  C   C3737     1.0  0.77724  0.51609  0.30848  1.0000
  H   H3000     1.0  0.93401  0.51667  0.37000  1.0000
  C   C3738     1.0  0.80252  0.59892  0.36824  1.0000
  C   C3739     1.0  0.74749  0.63150  0.14811  1.0000
  H   H3001     1.0  0.93184  0.45540  0.47920  1.0000
  H   H3002     1.0  0.87355  0.33573  0.46730  1.0000
  H   H3003     1.0  0.78210  0.60654  0.44007  1.0000
  H   H3004     1.0  0.90451  0.33846  0.06874  1.0000
  C   C3740     1.0  0.78045  0.63474  0.32816  1.0000
  C   C3741     1.0  0.79725  0.61163  0.36328  1.0000
  C   C3742     1.0  0.94139  0.44782  0.39409  1.0000
  H   H3005     1.0  0.84001  0.61738  0.33888  1.0000
  H   H3006     1.0  0.83659  0.31428  0.11103  1.0000
  H   H3007     1.0  0.72471  0.60836  0.08719  1.0000
  H   H3008     1.0  0.87727  0.61231  0.12045  1.0000
  Fe  Fe252     1.0  0.88532  0.39447  0.00646  1.0000
  H   H3009     1.0  0.73357  0.62594  0.39676  1.0000
  H   H3010     1.0  0.95130  0.43158  0.31194  1.0000
  C   C3743     1.0  0.75859  0.52486  0.42038  1.0000
  C   C3744     1.0  0.89852  0.35290  0.14282  1.0000
  C   C3745     1.0  0.94098  0.41580  0.11017  1.0000
  C   C3746     1.0  0.88800  0.37026  0.19439  1.0000
  H   H3011     1.0  0.74383  0.56999  0.19990  1.0000
  H   H3012     1.0  0.83985  0.59606  0.29885  1.0000
  H   H3013     1.0  0.89213  0.38522  0.27175  1.0000
  C   C3747     1.0  0.95171  0.45187  0.36743  1.0000
  C   C3748     1.0  0.79736  0.62532  0.47179  1.0000
  C   C3749     1.0  0.89256  0.38522  0.24564  1.0000
  C   C3750     1.0  0.95657  0.52848  0.39293  1.0000
  C   C3751     1.0  0.71221  0.58848  0.37291  1.0000
  C   C3752     1.0  0.73747  0.63095  0.42049  1.0000
  C   C3753     1.0  0.73339  0.63479  0.09075  1.0000
  C   C3754     1.0  0.78491  0.61047  0.46489  1.0000
  C   C3755     1.0  0.75982  0.61448  0.29677  1.0000
  C   C3756     1.0  0.87736  0.60024  0.16513  1.0000
  C   C3757     1.0  0.88108  0.63036  0.19472  1.0000
  C   C3758     1.0  0.93712  0.49331  0.14871  1.0000
  C   C3759     1.0  0.95311  0.52406  0.33513  1.0000
  C   C3760     1.0  0.92571  0.36668  0.12448  1.0000
  H   H3014     1.0  0.72802  0.63596  0.06840  1.0000
  H   H3015     1.0  0.93959  0.45068  0.03658  1.0000
  H   H3016     1.0  0.95004  0.49039  0.28544  1.0000
  C   C3761     1.0  0.88739  0.37032  0.22830  1.0000
  C   C3762     1.0  0.89826  0.40016  0.22929  1.0000
  C   C3763     1.0  0.95385  0.46824  0.27218  1.0000
  C   C3764     1.0  0.87024  0.31055  0.45651  1.0000
  H   H3017     1.0  0.88118  0.61872  0.23942  1.0000
  H   H3018     1.0  0.93736  0.37612  0.12777  1.0000
  S   S503      1.0  0.89606  0.37547  0.01087  1.0000
  H   H3019     1.0  0.84362  0.63212  0.13586  1.0000
  C   C3765     1.0  0.75526  0.63730  0.32236  1.0000
  H   H3020     1.0  0.89443  0.38580  0.15230  1.0000
  C   C3766     1.0  0.94361  0.49027  0.11956  1.0000
  H   H3021     1.0  0.80437  0.63279  0.45228  1.0000
  H   H3022     1.0  0.75604  0.55773  0.46122  1.0000
  C   C3767     1.0  0.87993  0.62863  0.16123  1.0000
  C   C3768     1.0  0.94933  0.51658  0.02879  1.0000
  C   C3769     1.0  0.74983  0.62278  0.30395  1.0000
  H   H3023     1.0  0.89097  0.44118  0.03968  1.0000
  C   C3770     1.0  0.95115  0.42612  0.13340  1.0000
  C   C3771     1.0  0.92236  0.35732  0.09598  1.0000
  C   C3772     1.0  0.92641  0.47315  0.02939  1.0000
  C   C3773     1.0  0.94775  0.48045  0.26802  1.0000
  C   C3774     1.0  0.95072  0.45684  0.04831  1.0000
  C   C3775     1.0  0.72562  0.58921  0.35533  1.0000
  H   H3024     1.0  0.88230  0.64199  0.20614  1.0000
  H   H3025     1.0  0.95412  0.48764  0.12036  1.0000
  C   C3776     1.0  0.91431  0.45990  0.04424  1.0000
  H   H3026     1.0  0.93830  0.51545  0.04037  1.0000
  H   H3027     1.0  0.95611  0.44659  0.24966  1.0000
  C   C3777     1.0  0.90292  0.32254  0.44738  1.0000
  H   H3028     1.0  0.71817  0.59283  0.25771  1.0000
  H   H3029     1.0  0.76649  0.58907  0.48478  1.0000
  C   C3778     1.0  0.77612  0.60063  0.49006  1.0000
  H   H3030     1.0  0.94126  0.41142  0.48592  1.0000
  H   H3031     1.0  0.88027  0.63893  0.14685  1.0000
  H   H3032     1.0  0.89911  0.31112  0.22688  1.0000
  C   C3779     1.0  0.95637  0.45878  0.47641  1.0000
  H   H3033     1.0  0.95323  0.54041  0.00919  1.0000
  H   H3034     1.0  0.92957  0.41325  0.00112  1.0000
  C   C3780     1.0  0.92438  0.47748  0.99793  1.0000
  C   C3781     1.0  0.89831  0.45587  0.99699  1.0000
  Fe  Fe253     1.0  0.70890  0.58615  0.99819  1.0000
  P   P126      1.0  0.80031  0.64263  0.34287  1.0000
  C   C3782     1.0  0.88203  0.41465  0.82458  1.0000
  S   S504      1.0  0.89864  0.38202  0.51089  1.0000
  H   H3035     1.0  0.85362  0.61242  0.81701  1.0000
  C   C3783     1.0  0.83970  0.63771  0.66751  1.0000
  H   H3036     1.0  0.87035  0.35515  0.74983  1.0000
  Fe  Fe254     1.0  0.71886  0.58666  0.50746  1.0000
  C   C3784     1.0  0.80441  0.58117  0.96452  1.0000
  Fe  Fe255     1.0  0.80970  0.55514  0.74720  1.0000
  S   S505      1.0  0.81561  0.57397  0.78717  1.0000
  S   S506      1.0  0.81617  0.53226  0.74842  1.0000
  Fe  Fe256     1.0  0.79149  0.57242  0.71091  1.0000
  S   S507      1.0  0.79642  0.59236  0.74904  1.0000
  S   S508      1.0  0.78109  0.57730  0.66449  1.0000
  Fe  Fe257     1.0  0.82086  0.59286  0.74841  1.0000
  S   S509      1.0  0.84104  0.61763  0.75408  1.0000
  Fe  Fe258     1.0  0.79055  0.57205  0.78514  1.0000
  S   S510      1.0  0.78064  0.57473  0.83514  1.0000
  S   S511      1.0  0.81672  0.57426  0.70810  1.0000
  S   S512      1.0  0.78390  0.55184  0.74720  1.0000
  Fe  Fe259     1.0  0.88417  0.47297  0.83972  1.0000
  S   S513      1.0  0.90403  0.46910  0.81358  1.0000
  S   S514      1.0  0.87054  0.45750  0.88207  1.0000
  Fe  Fe260     1.0  0.88714  0.50282  0.79978  1.0000
  S   S515      1.0  0.90785  0.50135  0.77130  1.0000
  S   S516      1.0  0.87979  0.52469  0.79137  1.0000
  Fe  Fe261     1.0  0.89397  0.47408  0.76806  1.0000
  S   S517      1.0  0.89976  0.46277  0.72178  1.0000
  Fe  Fe262     1.0  0.91691  0.49644  0.81785  1.0000
  S   S518      1.0  0.94303  0.50249  0.82390  1.0000
  S   S519      1.0  0.87258  0.47571  0.79374  1.0000
  S   S520      1.0  0.89758  0.50019  0.84727  1.0000
  Fe  Fe263     1.0  0.87885  0.40032  0.57413  1.0000
  S   S521      1.0  0.88956  0.38215  0.58711  1.0000
  S   S522      1.0  0.86617  0.41077  0.61107  1.0000
  Fe  Fe264     1.0  0.71185  0.55517  0.54492  1.0000
  C   C3785     1.0  0.78899  0.58031  0.96861  1.0000
  S   S523      1.0  0.88875  0.40432  0.95495  1.0000
  Fe  Fe265     1.0  0.87772  0.36791  0.54249  1.0000
  S   S524      1.0  0.86989  0.33953  0.54023  1.0000
  Fe  Fe266     1.0  0.90949  0.39733  0.55441  1.0000
  S   S525      1.0  0.93565  0.40329  0.55889  1.0000
  S   S526      1.0  0.86564  0.38521  0.53125  1.0000
  S   S527      1.0  0.89970  0.41651  0.54439  1.0000
  C   C3786     1.0  0.93145  0.50158  0.91405  1.0000
  C   C3787     1.0  0.75199  0.57640  0.73218  1.0000
  C   C3788     1.0  0.86426  0.32436  0.96228  1.0000
  C   C3789     1.0  0.85262  0.32095  0.53734  1.0000
  P   P127      1.0  0.79005  0.62129  0.92152  1.0000
  C   C3790     1.0  0.93499  0.42337  0.98464  1.0000
  S   S528      1.0  0.73411  0.61397  0.51212  1.0000
  C   C3791     1.0  0.88978  0.44690  0.69372  1.0000
  C   C3792     1.0  0.89876  0.44069  0.67344  1.0000
  C   C3793     1.0  0.89166  0.42916  0.64873  1.0000
  C   C3794     1.0  0.87542  0.42368  0.64418  1.0000
  C   C3795     1.0  0.86633  0.42926  0.66554  1.0000
  C   C3796     1.0  0.87345  0.44085  0.69017  1.0000
  H   H3037     1.0  0.91132  0.44487  0.67676  1.0000
  H   H3038     1.0  0.89878  0.42481  0.63280  1.0000
  H   H3039     1.0  0.85372  0.42476  0.66267  1.0000
  H   H3040     1.0  0.86636  0.44532  0.70586  1.0000
  C   C3797     1.0  0.87660  0.44390  0.90408  1.0000
  C   C3798     1.0  0.86700  0.43495  0.92965  1.0000
  C   C3799     1.0  0.87086  0.42325  0.94642  1.0000
  C   C3800     1.0  0.88438  0.42035  0.93767  1.0000
  C   C3801     1.0  0.89409  0.42947  0.91240  1.0000
  C   C3802     1.0  0.89033  0.44129  0.89589  1.0000
  H   H3041     1.0  0.85632  0.43682  0.93610  1.0000
  H   H3042     1.0  0.72848  0.59787  0.72520  1.0000
  H   H3043     1.0  0.90445  0.42720  0.90525  1.0000
  H   H3044     1.0  0.89773  0.44794  0.87607  1.0000
  C   C3803     1.0  0.75048  0.61070  0.60547  1.0000
  P   P128      1.0  0.90470  0.41208  0.78059  1.0000
  H   H3045     1.0  0.94012  0.53068  0.85817  1.0000
  H   H3046     1.0  0.92643  0.45229  0.94586  1.0000
  C   C3804     1.0  0.83387  0.53044  0.76127  1.0000
  C   C3805     1.0  0.84764  0.54418  0.76731  1.0000
  C   C3806     1.0  0.86147  0.54213  0.77661  1.0000
  C   C3807     1.0  0.86181  0.52635  0.77989  1.0000
  C   C3808     1.0  0.84802  0.51258  0.77392  1.0000
  C   C3809     1.0  0.83415  0.51465  0.76489  1.0000
  H   H3047     1.0  0.84769  0.55640  0.76447  1.0000
  H   H3048     1.0  0.87202  0.55288  0.78112  1.0000
  H   H3049     1.0  0.84801  0.50036  0.77643  1.0000
  H   H3050     1.0  0.82352  0.50393  0.76086  1.0000
  C   C3810     1.0  0.73409  0.55297  0.61135  1.0000
  C   C3811     1.0  0.74600  0.56720  0.59976  1.0000
  C   C3812     1.0  0.76028  0.57419  0.61616  1.0000
  C   C3813     1.0  0.76290  0.56724  0.64453  1.0000
  C   C3814     1.0  0.75103  0.55286  0.65604  1.0000
  C   C3815     1.0  0.73666  0.54580  0.63955  1.0000
  H   H3051     1.0  0.74420  0.57286  0.57814  1.0000
  H   H3052     1.0  0.76928  0.58513  0.60671  1.0000
  H   H3053     1.0  0.75292  0.54710  0.67742  1.0000
  H   H3054     1.0  0.72754  0.53469  0.64855  1.0000
  C   C3816     1.0  0.73211  0.55537  0.88672  1.0000
  C   C3817     1.0  0.73326  0.55219  0.85353  1.0000
  C   C3818     1.0  0.74801  0.55752  0.83732  1.0000
  C   C3819     1.0  0.76178  0.56618  0.85421  1.0000
  C   C3820     1.0  0.76066  0.56879  0.88756  1.0000
  C   C3821     1.0  0.74594  0.56345  0.90380  1.0000
  H   H3055     1.0  0.72265  0.54570  0.84020  1.0000
  H   H3056     1.0  0.74866  0.55503  0.81183  1.0000
  H   H3057     1.0  0.77126  0.57528  0.90078  1.0000
  H   H3058     1.0  0.74526  0.56589  0.92936  1.0000
  C   C3822     1.0  0.95039  0.42715  0.97325  1.0000
  H   H3059     1.0  0.79896  0.60461  0.86733  1.0000
  C   C3823     1.0  0.72730  0.62792  0.97429  1.0000
  H   H3060     1.0  0.75598  0.56802  0.71858  1.0000
  C   C3824     1.0  0.95378  0.51699  0.60324  1.0000
  C   C3825     1.0  0.95004  0.43302  0.63820  1.0000
  C   C3826     1.0  0.92313  0.44431  0.76169  1.0000
  C   C3827     1.0  0.93936  0.49182  0.51300  1.0000
  C   C3828     1.0  0.83662  0.62653  0.69290  1.0000
  H   H3061     1.0  0.91327  0.48178  0.88948  1.0000
  C   C3829     1.0  0.87054  0.31327  0.97316  1.0000
  H   H3062     1.0  0.82774  0.61422  0.69033  1.0000
  C   C3830     1.0  0.94040  0.42269  0.61427  1.0000
  C   C3831     1.0  0.86085  0.53154  0.86497  1.0000
  C   C3832     1.0  0.85223  0.51503  0.85718  1.0000
  C   C3833     1.0  0.83583  0.50917  0.85590  1.0000
  C   C3834     1.0  0.82802  0.51984  0.86210  1.0000
  C   C3835     1.0  0.83664  0.53658  0.86901  1.0000
  C   C3836     1.0  0.85309  0.54223  0.87134  1.0000
  P   P129      1.0  0.82668  0.55033  0.87868  1.0000
  C   C3837     1.0  0.82689  0.55228  0.92203  1.0000
  C   C3838     1.0  0.83594  0.57016  0.85998  1.0000
  C   C3839     1.0  0.84716  0.57273  0.83491  1.0000
  C   C3840     1.0  0.85368  0.58802  0.81988  1.0000
  C   C3841     1.0  0.84892  0.60077  0.82945  1.0000
  C   C3842     1.0  0.83754  0.59821  0.85395  1.0000
  C   C3843     1.0  0.83096  0.58292  0.86896  1.0000
  C   C3844     1.0  0.83810  0.56604  0.93732  1.0000
  C   C3845     1.0  0.90301  0.48060  0.61739  1.0000
  C   C3846     1.0  0.75714  0.58096  0.76357  1.0000
  C   C3847     1.0  0.76371  0.61670  0.58499  1.0000
  C   C3848     1.0  0.81657  0.53941  0.94085  1.0000
  C   C3849     1.0  0.80688  0.54246  0.86366  1.0000
  C   C3850     1.0  0.80411  0.53598  0.83218  1.0000
  C   C3851     1.0  0.78898  0.53045  0.81960  1.0000
  C   C3852     1.0  0.77653  0.53157  0.83820  1.0000
  C   C3853     1.0  0.77923  0.53823  0.86943  1.0000
  C   C3854     1.0  0.79439  0.54388  0.88200  1.0000
  H   H3063     1.0  0.87359  0.53605  0.86542  1.0000
  H   H3064     1.0  0.85833  0.50686  0.85161  1.0000
  H   H3065     1.0  0.82919  0.49637  0.84975  1.0000
  H   H3066     1.0  0.81530  0.51495  0.86142  1.0000
  H   H3067     1.0  0.85995  0.55493  0.87770  1.0000
  H   H3068     1.0  0.85053  0.56285  0.82613  1.0000
  C   C3855     1.0  0.81711  0.54052  0.97453  1.0000
  H   H3069     1.0  0.84793  0.32807  0.93024  1.0000
  H   H3070     1.0  0.83345  0.60790  0.86051  1.0000
  H   H3071     1.0  0.82163  0.58085  0.88684  1.0000
  H   H3072     1.0  0.84658  0.57583  0.92329  1.0000
  Fe  Fe267     1.0  0.88750  0.40031  0.50257  1.0000
  H   H3073     1.0  0.92311  0.50208  0.60666  1.0000
  H   H3074     1.0  0.81991  0.61646  0.92168  1.0000
  H   H3075     1.0  0.80819  0.52845  0.92946  1.0000
  H   H3076     1.0  0.81372  0.53544  0.81717  1.0000
  H   H3077     1.0  0.78704  0.52560  0.79512  1.0000
  H   H3078     1.0  0.76488  0.52768  0.82817  1.0000
  H   H3079     1.0  0.76965  0.53953  0.88343  1.0000
  H   H3080     1.0  0.79633  0.54968  0.90563  1.0000
  C   C3856     1.0  0.74208  0.59839  0.76760  1.0000
  H   H3081     1.0  0.88536  0.40716  0.84088  1.0000
  C   C3857     1.0  0.76926  0.61272  0.91329  1.0000
  C   C3858     1.0  0.83905  0.62543  0.58316  1.0000
  C   C3859     1.0  0.81762  0.49710  0.62701  1.0000
  C   C3860     1.0  0.81051  0.50200  0.65326  1.0000
  C   C3861     1.0  0.81325  0.49840  0.68460  1.0000
  C   C3862     1.0  0.82312  0.48996  0.68975  1.0000
  C   C3863     1.0  0.83053  0.48523  0.66359  1.0000
  C   C3864     1.0  0.82764  0.48878  0.63211  1.0000
  P   P130      1.0  0.84427  0.47561  0.67136  1.0000
  C   C3865     1.0  0.84886  0.46630  0.63520  1.0000
  C   C3866     1.0  0.86260  0.49082  0.68552  1.0000
  C   C3867     1.0  0.87603  0.48689  0.68619  1.0000
  C   C3868     1.0  0.89027  0.49845  0.69731  1.0000
  C   C3869     1.0  0.89123  0.51401  0.70783  1.0000
  C   C3870     1.0  0.87796  0.51803  0.70713  1.0000
  C   C3871     1.0  0.86368  0.50651  0.69608  1.0000
  C   C3872     1.0  0.84355  0.44911  0.63148  1.0000
  C   C3873     1.0  0.84773  0.44217  0.60387  1.0000
  C   C3874     1.0  0.85714  0.45228  0.57970  1.0000
  C   C3875     1.0  0.86251  0.46939  0.58322  1.0000
  C   C3876     1.0  0.85852  0.47638  0.61098  1.0000
  C   C3877     1.0  0.83519  0.46015  0.70153  1.0000
  C   C3878     1.0  0.84352  0.45897  0.72861  1.0000
  C   C3879     1.0  0.83623  0.44702  0.75188  1.0000
  C   C3880     1.0  0.82060  0.43619  0.74828  1.0000
  C   C3881     1.0  0.81220  0.43734  0.72147  1.0000
  C   C3882     1.0  0.81944  0.44931  0.69822  1.0000
  H   H3082     1.0  0.81549  0.49993  0.60273  1.0000
  H   H3083     1.0  0.80298  0.50871  0.64942  1.0000
  H   H3084     1.0  0.80793  0.50245  0.70499  1.0000
  H   H3085     1.0  0.82531  0.48748  0.71423  1.0000
  H   H3086     1.0  0.83309  0.48525  0.61144  1.0000
  H   H3087     1.0  0.87543  0.47477  0.67872  1.0000
  H   H3088     1.0  0.90047  0.49517  0.69858  1.0000
  H   H3089     1.0  0.90214  0.52283  0.71739  1.0000
  H   H3090     1.0  0.87862  0.52994  0.71616  1.0000
  H   H3091     1.0  0.85358  0.50996  0.69636  1.0000
  H   H3092     1.0  0.83647  0.44096  0.64997  1.0000
  H   H3093     1.0  0.84395  0.42889  0.60148  1.0000
  H   H3094     1.0  0.86048  0.44679  0.55856  1.0000
  H   H3095     1.0  0.86998  0.47721  0.56463  1.0000
  H   H3096     1.0  0.86299  0.48967  0.61364  1.0000
  H   H3097     1.0  0.85561  0.46724  0.73197  1.0000
  H   H3098     1.0  0.84268  0.44621  0.77283  1.0000
  H   H3099     1.0  0.81499  0.42694  0.76636  1.0000
  H   H3100     1.0  0.80006  0.42896  0.71874  1.0000
  H   H3101     1.0  0.81277  0.45009  0.67759  1.0000
  C   C3883     1.0  0.95621  0.51874  0.84722  1.0000
  C   C3884     1.0  0.94424  0.43470  0.72527  1.0000
  C   C3885     1.0  0.89976  0.45618  0.58580  1.0000
  C   C3886     1.0  0.92469  0.48576  0.90067  1.0000
  C   C3887     1.0  0.93279  0.47518  0.90102  1.0000
  S   S529      1.0  0.72453  0.57172  0.99419  1.0000
  C   C3888     1.0  0.71558  0.63761  0.71813  1.0000
  C   C3889     1.0  0.86510  0.42925  0.81357  1.0000
  P   P131      1.0  0.94166  0.49238  0.55624  1.0000
  P   P132      1.0  0.79596  0.62792  0.57061  1.0000
  H   H3102     1.0  0.94808  0.52449  0.52508  1.0000
  C   C3890     1.0  0.81953  0.60081  0.60625  1.0000
  C   C3891     1.0  0.92684  0.39661  0.86609  1.0000
  C   C3892     1.0  0.86993  0.41980  0.83417  1.0000
  C   C3893     1.0  0.81114  0.60637  0.93454  1.0000
  C   C3894     1.0  0.95190  0.53106  0.86122  1.0000
  C   C3895     1.0  0.88397  0.42776  0.77313  1.0000
  C   C3896     1.0  0.94601  0.45121  0.72620  1.0000
  C   C3897     1.0  0.83866  0.56709  0.97101  1.0000
  C   C3898     1.0  0.88571  0.37983  0.76326  1.0000
  C   C3899     1.0  0.91706  0.48923  0.60069  1.0000
  H   H3103     1.0  0.78037  0.57021  0.98181  1.0000
  H   H3104     1.0  0.94641  0.50395  0.71108  1.0000
  C   C3900     1.0  0.78462  0.59246  0.95577  1.0000
  H   H3105     1.0  0.76204  0.61501  0.96288  1.0000
  C   C3901     1.0  0.79362  0.63778  0.95081  1.0000
  C   C3902     1.0  0.92657  0.43266  0.97481  1.0000
  C   C3903     1.0  0.93800  0.47406  0.65349  1.0000
  C   C3904     1.0  0.92100  0.42765  0.76009  1.0000
  H   H3106     1.0  0.92752  0.46309  0.88989  1.0000
  C   C3905     1.0  0.94766  0.48028  0.91512  1.0000
  C   C3906     1.0  0.93338  0.44553  0.95320  1.0000
  C   C3907     1.0  0.75238  0.62721  0.81110  1.0000
  H   H3107     1.0  0.86442  0.41667  0.85784  1.0000
  H   H3108     1.0  0.83617  0.33235  0.52874  1.0000
  H   H3109     1.0  0.91476  0.42684  0.84417  1.0000
  H   H3110     1.0  0.85606  0.43364  0.82157  1.0000
  H   H3111     1.0  0.90146  0.41139  0.71030  1.0000
  H   H3112     1.0  0.89874  0.48674  0.63601  1.0000
  H   H3113     1.0  0.80908  0.53055  0.98894  1.0000
  H   H3114     1.0  0.95185  0.51935  0.93690  1.0000
  C   C3908     1.0  0.91030  0.46890  0.98192  1.0000
  C   C3909     1.0  0.83765  0.32081  0.53133  1.0000
  C   C3910     1.0  0.91385  0.46473  0.56904  1.0000
  C   C3911     1.0  0.82712  0.63064  0.57439  1.0000
  H   H3115     1.0  0.72444  0.58982  0.89902  1.0000
  C   C3912     1.0  0.82814  0.55435  0.98961  1.0000
  H   H3116     1.0  0.87918  0.31706  0.99208  1.0000
  C   C3913     1.0  0.78056  0.61832  0.63002  1.0000
  C   C3914     1.0  0.81552  0.59426  0.94769  1.0000
  H   H3117     1.0  0.92804  0.46538  0.64068  1.0000
  H   H3118     1.0  0.81397  0.61456  0.81670  1.0000
  H   H3119     1.0  0.81202  0.63314  0.97539  1.0000
  H   H3120     1.0  0.84736  0.57769  0.98273  1.0000
  H   H3121     1.0  0.73766  0.57881  0.69412  1.0000
  H   H3122     1.0  0.88364  0.45735  0.62340  1.0000
  H   H3123     1.0  0.91523  0.38473  0.78928  1.0000
  C   C3915     1.0  0.73688  0.59664  0.90264  1.0000
  C   C3916     1.0  0.92390  0.38730  0.83748  1.0000
  C   C3917     1.0  0.74219  0.60273  0.93322  1.0000
  H   H3124     1.0  0.77288  0.59772  0.54123  1.0000
  H   H3125     1.0  0.76856  0.62796  0.77181  1.0000
  S   S530      1.0  0.71320  0.54913  0.90562  1.0000
  H   H3126     1.0  0.88738  0.44938  0.98467  1.0000
  C   C3918     1.0  0.93578  0.48486  0.67643  1.0000
  H   H3127     1.0  0.73883  0.60759  0.59572  1.0000
  H   H3128     1.0  0.86806  0.33664  0.97282  1.0000
  H   H3129     1.0  0.79211  0.62118  0.63999  1.0000
  C   C3919     1.0  0.91708  0.41565  0.84218  1.0000
  H   H3130     1.0  0.73382  0.60081  0.95298  1.0000
  C   C3920     1.0  0.94695  0.41555  0.59056  1.0000
  C   C3921     1.0  0.73767  0.63672  0.74753  1.0000
  C   C3922     1.0  0.87742  0.36738  0.74131  1.0000
  C   C3923     1.0  0.91728  0.39198  0.81136  1.0000
  S   S531      1.0  0.73042  0.56826  0.50776  1.0000
  C   C3924     1.0  0.95563  0.48290  0.56416  1.0000
  C   C3925     1.0  0.77963  0.60573  0.52211  1.0000
  C   C3926     1.0  0.77881  0.61997  0.59687  1.0000
  H   H3131     1.0  0.71443  0.62147  0.83456  1.0000
  C   C3927     1.0  0.75237  0.59202  0.78113  1.0000
  H   H3132     1.0  0.92534  0.50993  0.91292  1.0000
  H   H3133     1.0  0.76202  0.61868  0.55989  1.0000
  H   H3134     1.0  0.74364  0.59300  0.85420  1.0000
  H   H3135     1.0  0.80773  0.57173  0.97458  1.0000
  C   C3928     1.0  0.94635  0.50685  0.92770  1.0000
  C   C3929     1.0  0.75225  0.60835  0.63813  1.0000
  C   C3930     1.0  0.94861  0.49590  0.69326  1.0000
  H   H3136     1.0  0.83302  0.63399  0.64572  1.0000
  C   C3931     1.0  0.80133  0.62884  0.88475  1.0000
  C   C3932     1.0  0.72761  0.62271  0.76402  1.0000
  H   H3137     1.0  0.86203  0.58982  0.80000  1.0000
  H   H3138     1.0  0.92665  0.37637  0.83562  1.0000
  H   H3139     1.0  0.74195  0.60322  0.65369  1.0000
  H   H3140     1.0  0.77259  0.59144  0.95934  1.0000
  H   H3141     1.0  0.93169  0.39281  0.88655  1.0000
  H   H3142     1.0  0.75016  0.64192  0.75201  1.0000
  C   C3933     1.0  0.93179  0.42295  0.74213  1.0000
  H   H3143     1.0  0.78795  0.62889  0.73064  1.0000
  P   P133      1.0  0.73546  0.61212  0.79125  1.0000
  H   H3144     1.0  0.95224  0.50704  0.61964  1.0000
  C   C3934     1.0  0.81228  0.62330  0.83384  1.0000
  C   C3935     1.0  0.95773  0.54291  0.56167  1.0000
  C   C3936     1.0  0.92352  0.41082  0.86837  1.0000
  C   C3937     1.0  0.85285  0.31947  0.93846  1.0000
  H   H3145     1.0  0.86814  0.44011  0.76649  1.0000
  C   C3938     1.0  0.81129  0.62104  0.58188  1.0000
  C   C3939     1.0  0.95176  0.46607  0.55771  1.0000
  H   H3146     1.0  0.92795  0.42032  0.61407  1.0000
  H   H3147     1.0  0.79554  0.59811  0.60284  1.0000
  H   H3148     1.0  0.72201  0.57698  0.80985  1.0000
  C   C3940     1.0  0.84493  0.63134  0.72157  1.0000
  C   C3941     1.0  0.88957  0.41917  0.79436  1.0000
  H   H3149     1.0  0.81652  0.58934  0.61907  1.0000
  C   C3942     1.0  0.87798  0.37078  0.70841  1.0000
  C   C3943     1.0  0.92293  0.48130  0.57684  1.0000
  H   H3150     1.0  0.92583  0.41804  0.89057  1.0000
  C   C3944     1.0  0.79560  0.60549  0.93822  1.0000
  C   C3945     1.0  0.89446  0.46406  0.61021  1.0000
  C   C3946     1.0  0.71953  0.62458  0.94480  1.0000
  C   C3947     1.0  0.76730  0.61230  0.65046  1.0000
  H   H3151     1.0  0.88688  0.38940  0.67201  1.0000
  C   C3948     1.0  0.71598  0.58355  0.82339  1.0000
  C   C3949     1.0  0.80494  0.64051  0.97469  1.0000
  H   H3152     1.0  0.95478  0.46575  0.63004  1.0000
  C   C3950     1.0  0.75826  0.61078  0.93863  1.0000
  H   H3153     1.0  0.71783  0.63404  0.89804  1.0000
  H   H3154     1.0  0.84452  0.60672  0.60677  1.0000
  C   C3951     1.0  0.74172  0.58260  0.71844  1.0000
  C   C3952     1.0  0.75102  0.63374  0.84176  1.0000
  H   H3155     1.0  0.76486  0.57590  0.77439  1.0000
  C   C3953     1.0  0.72408  0.63654  0.92049  1.0000
  C   C3954     1.0  0.88675  0.38665  0.69744  1.0000
  H   H3156     1.0  0.74003  0.62956  0.85523  1.0000
  C   C3955     1.0  0.76715  0.63290  0.79523  1.0000
  H   H3157     1.0  0.92403  0.48447  0.68153  1.0000
  C   C3956     1.0  0.76383  0.60661  0.88248  1.0000
  H   H3158     1.0  0.89288  0.44336  0.58004  1.0000
  C   C3957     1.0  0.79160  0.62105  0.52923  1.0000
  C   C3958     1.0  0.74770  0.59858  0.87732  1.0000
  H   H3159     1.0  0.86314  0.41614  0.96545  1.0000
  H   H3160     1.0  0.82752  0.59503  0.94484  1.0000
  H   H3161     1.0  0.87144  0.36120  0.69139  1.0000
  C   C3959     1.0  0.94884  0.44944  0.94155  1.0000
  C   C3960     1.0  0.94954  0.51354  0.57074  1.0000
  C   C3961     1.0  0.89511  0.39908  0.71927  1.0000
  C   C3962     1.0  0.95307  0.47430  0.64736  1.0000
  H   H3162     1.0  0.88898  0.43043  0.74908  1.0000
  H   H3163     1.0  0.93045  0.41017  0.74075  1.0000
  H   H3164     1.0  0.76869  0.61010  0.67558  1.0000
  H   H3165     1.0  0.75676  0.59550  0.80526  1.0000
  C   C3963     1.0  0.80378  0.61770  0.86256  1.0000
  H   H3166     1.0  0.94486  0.43850  0.65636  1.0000
  C   C3964     1.0  0.72006  0.60055  0.81956  1.0000
  C   C3965     1.0  0.83527  0.61055  0.59923  1.0000
  H   H3167     1.0  0.90857  0.47233  0.95784  1.0000
  H   H3168     1.0  0.91729  0.45839  0.54960  1.0000
  H   H3169     1.0  0.93678  0.46881  0.74526  1.0000
  C   C3966     1.0  0.91341  0.40594  0.81388  1.0000
  H   H3170     1.0  0.88478  0.37716  0.78878  1.0000
  C   C3967     1.0  0.93550  0.45603  0.74452  1.0000
  C   C3968     1.0  0.89490  0.39567  0.75229  1.0000
  S   S532      1.0  0.71593  0.54395  0.59113  1.0000
  H   H3171     1.0  0.91517  0.44830  0.77571  1.0000
  H   H3172     1.0  0.94075  0.45851  0.54703  1.0000
  H   H3173     1.0  0.91377  0.48089  0.51366  1.0000
  C   C3969     1.0  0.80759  0.60593  0.59730  1.0000
  H   H3174     1.0  0.77192  0.60735  0.86265  1.0000
  C   C3970     1.0  0.73664  0.59345  0.73616  1.0000
  C   C3971     1.0  0.87197  0.43302  0.78283  1.0000
  C   C3972     1.0  0.81856  0.64011  0.82714  1.0000
  H   H3175     1.0  0.93348  0.48758  0.98586  1.0000
  H   H3176     1.0  0.81686  0.63768  0.73024  1.0000
  C   C3973     1.0  0.92440  0.48569  0.49899  1.0000
  C   C3974     1.0  0.95732  0.44015  0.95187  1.0000
  H   H3177     1.0  0.85127  0.63318  0.57836  1.0000
  H   H3178     1.0  0.95246  0.43099  0.71117  1.0000
  H   H3179     1.0  0.95552  0.46019  0.71264  1.0000
  C   C3975     1.0  0.95844  0.45938  0.87345  1.0000
  C   C3976     1.0  0.79529  0.64146  0.72449  1.0000
  H   H3180     1.0  0.91465  0.42977  0.98377  1.0000
  C   C3977     1.0  0.95143  0.52666  0.55010  1.0000
  C   C3978     1.0  0.71176  0.60846  0.83754  1.0000
  C   C3979     1.0  0.71146  0.61622  0.75720  1.0000
  H   H3181     1.0  0.81043  0.64213  0.50872  1.0000
  H   H3182     1.0  0.95692  0.41998  0.98123  1.0000
  H   H3183     1.0  0.70982  0.61294  0.94103  1.0000
  P   P134      1.0  0.95811  0.46653  0.91457  1.0000
  H   H3184     1.0  0.83031  0.64230  0.56233  1.0000
  C   C3980     1.0  0.80072  0.63061  0.50382  1.0000
  C   C3981     1.0  0.95446  0.49626  0.92825  1.0000
  H   H3185     1.0  0.95477  0.53470  0.78820  1.0000
  H   H3186     1.0  0.95832  0.48166  0.85223  1.0000
  S   S533      1.0  0.73102  0.89382  0.09051  1.0000
  P   P135      1.0  0.88018  0.74290  0.44480  1.0000
  C   C3982     1.0  0.88274  0.73702  0.37842  1.0000
  S   S534      1.0  0.74216  0.94145  0.10837  1.0000
  Fe  Fe268     1.0  0.71815  0.88635  0.04349  1.0000
  H   H3187     1.0  0.89465  0.74610  0.37919  1.0000
  Fe  Fe269     1.0  0.87434  0.72484  0.17665  1.0000
  S   S535      1.0  0.88899  0.70929  0.17709  1.0000
  S   S536      1.0  0.86688  0.73380  0.22406  1.0000
  Fe  Fe270     1.0  0.87421  0.72544  0.10293  1.0000
  S   S537      1.0  0.88854  0.70972  0.09834  1.0000
  S   S538      1.0  0.86790  0.73616  0.05797  1.0000
  Fe  Fe271     1.0  0.87282  0.69465  0.13819  1.0000
  S   S539      1.0  0.86185  0.66669  0.13291  1.0000
  Fe  Fe272     1.0  0.90390  0.72576  0.13746  1.0000
  S   S540      1.0  0.93070  0.73153  0.13274  1.0000
  S   S541      1.0  0.85731  0.70924  0.13984  1.0000
  S   S542      1.0  0.89039  0.74246  0.13992  1.0000
  Fe  Fe273     1.0  0.79179  0.70893  0.34226  1.0000
  S   S543      1.0  0.80079  0.72990  0.37790  1.0000
  S   S544      1.0  0.79822  0.70704  0.28926  1.0000
  Fe  Fe274     1.0  0.76711  0.68712  0.39081  1.0000
  S   S545      1.0  0.77398  0.70661  0.43003  1.0000
  S   S546      1.0  0.74878  0.66095  0.39088  1.0000
  Fe  Fe275     1.0  0.77506  0.72430  0.39000  1.0000
  S   S547      1.0  0.76742  0.74632  0.39427  1.0000
  Fe  Fe276     1.0  0.79894  0.71074  0.41487  1.0000
  S   S548      1.0  0.81941  0.71027  0.44432  1.0000
  S   S549      1.0  0.76631  0.70440  0.35222  1.0000
  S   S550      1.0  0.79182  0.69019  0.37784  1.0000
  H   H3188     1.0  0.91197  0.80209  0.42826  1.0000
  C   C3983     1.0  0.82790  0.68216  0.28906  1.0000
  C   C3984     1.0  0.74475  0.82146  0.06832  1.0000
  H   H3189     1.0  0.76061  0.81473  0.32408  1.0000
  H   H3190     1.0  0.79970  0.67190  0.01619  1.0000
  H   H3191     1.0  0.77550  0.71158  0.09101  1.0000
  C   C3985     1.0  0.75119  0.74893  0.37588  1.0000
  C   C3986     1.0  0.75063  0.76472  0.37560  1.0000
  C   C3987     1.0  0.73770  0.76725  0.36245  1.0000
  C   C3988     1.0  0.72500  0.75399  0.35000  1.0000
  C   C3989     1.0  0.72567  0.73825  0.34980  1.0000
  C   C3990     1.0  0.73867  0.73573  0.36259  1.0000
  H   H3192     1.0  0.76021  0.77504  0.38583  1.0000
  H   H3193     1.0  0.73732  0.77936  0.36236  1.0000
  C   C3991     1.0  0.81534  0.68287  0.12364  1.0000
  H   H3194     1.0  0.73884  0.72350  0.36277  1.0000
  C   C3992     1.0  0.73903  0.83835  0.01706  1.0000
  H   H3195     1.0  0.75710  0.66748  0.45865  1.0000
  C   C3993     1.0  0.94745  0.74391  0.05173  1.0000
  C   C3994     1.0  0.84951  0.72694  0.03872  1.0000
  C   C3995     1.0  0.83790  0.71251  0.05043  1.0000
  C   C3996     1.0  0.82314  0.70580  0.03563  1.0000
  Fe  Fe277     1.0  0.72441  0.91626  0.08965  1.0000
  C   C3997     1.0  0.80530  0.66786  0.44298  1.0000
  C   C3998     1.0  0.75077  0.65437  0.45528  1.0000
  H   H3196     1.0  0.84027  0.70680  0.07138  1.0000
  H   H3197     1.0  0.81408  0.69501  0.04571  1.0000
  C   C3999     1.0  0.87885  0.70164  0.49161  1.0000
  H   H3198     1.0  0.82602  0.74723  0.06133  1.0000
  C   C4000     1.0  0.84774  0.72598  0.24204  1.0000
  C   C4001     1.0  0.83494  0.71404  0.22667  1.0000
  C   C4002     1.0  0.81984  0.70853  0.24136  1.0000
  C   C4003     1.0  0.81744  0.71456  0.27189  1.0000
  C   C4004     1.0  0.83029  0.72624  0.28760  1.0000
  C   C4005     1.0  0.84533  0.73201  0.27259  1.0000
  H   H3199     1.0  0.83672  0.70900  0.20359  1.0000
  H   H3200     1.0  0.81003  0.69926  0.22941  1.0000
  H   H3201     1.0  0.82864  0.73092  0.31117  1.0000
  H   H3202     1.0  0.85518  0.74119  0.28472  1.0000
  C   C4006     1.0  0.85491  0.65340  0.16619  1.0000
  C   C4007     1.0  0.85812  0.65907  0.19801  1.0000
  H   H3203     1.0  0.86520  0.67191  0.20276  1.0000
  H   H3204     1.0  0.78631  0.66636  0.27222  1.0000
  C   C4008     1.0  0.71788  0.84075  0.23767  1.0000
  H   H3205     1.0  0.73128  0.86196  0.31307  1.0000
  H   H3206     1.0  0.94074  0.76786  0.13312  1.0000
  H   H3207     1.0  0.82969  0.68055  0.42975  1.0000
  C   C4009     1.0  0.80356  0.68531  0.14266  1.0000
  C   C4010     1.0  0.79975  0.67799  0.17310  1.0000
  H   H3208     1.0  0.72316  0.88406  0.29466  1.0000
  H   H3209     1.0  0.73169  0.78569  0.29326  1.0000
  C   C4011     1.0  0.77459  0.69982  0.08073  1.0000
  H   H3210     1.0  0.80283  0.72260  0.07376  1.0000
  C   C4012     1.0  0.76392  0.67851  0.04009  1.0000
  H   H3211     1.0  0.74689  0.81490  0.08828  1.0000
  C   C4013     1.0  0.93841  0.75354  0.05459  1.0000
  C   C4014     1.0  0.78289  0.69104  0.09406  1.0000
  C   C4015     1.0  0.77622  0.66257  0.25655  1.0000
  H   H3212     1.0  0.75686  0.67390  0.01886  1.0000
  C   C4016     1.0  0.74940  0.96315  0.10040  1.0000
  C   C4017     1.0  0.76041  0.79617  0.47872  1.0000
  H   H3213     1.0  0.85469  0.75071  0.41691  1.0000
  H   H3214     1.0  0.76867  0.91427  0.00043  1.0000
  H   H3215     1.0  0.78710  0.66837  0.09073  1.0000
  C   C4018     1.0  0.71191  0.85225  0.34701  1.0000
  H   H3216     1.0  0.73508  0.96157  0.05932  1.0000
  C   C4019     1.0  0.72821  0.85397  0.21942  1.0000
  H   H3217     1.0  0.74341  0.84202  0.41472  1.0000
  H   H3218     1.0  0.73138  0.85901  0.44866  1.0000
  C   C4020     1.0  0.75536  0.81432  0.37509  1.0000
  H   H3219     1.0  0.73074  0.87041  0.17951  1.0000
  H   H3220     1.0  0.89728  0.73821  0.02138  1.0000
  H   H3221     1.0  0.77032  0.65749  0.04354  1.0000
  H   H3222     1.0  0.88400  0.73346  0.32688  1.0000
  H   H3223     1.0  0.74055  0.85934  0.22534  1.0000
  H   H3224     1.0  0.71528  0.84236  0.35447  1.0000
  H   H3225     1.0  0.72745  0.95681  0.17004  1.0000
  C   C4021     1.0  0.80709  0.65275  0.99830  1.0000
  C   C4022     1.0  0.75520  0.84199  0.47416  1.0000
  C   C4023     1.0  0.74245  0.64879  0.10846  1.0000
  H   H3226     1.0  0.93738  0.79835  0.42468  1.0000
  C   C4024     1.0  0.89808  0.77633  0.43547  1.0000
  H   H3227     1.0  0.88711  0.77822  0.43688  1.0000
  C   C4025     1.0  0.91268  0.75849  0.43613  1.0000
  H   H3228     1.0  0.73660  0.84498  0.99760  1.0000
  C   C4026     1.0  0.77059  0.64340  0.33407  1.0000
  C   C4027     1.0  0.79070  0.65634  0.43350  1.0000
  C   C4028     1.0  0.82344  0.67355  0.13507  1.0000
  P   P136      1.0  0.79488  0.69927  0.12912  1.0000
  H   H3229     1.0  0.82653  0.65988  0.17482  1.0000
  C   C4029     1.0  0.92648  0.78781  0.42844  1.0000
  C   C4030     1.0  0.89826  0.76054  0.43854  1.0000
  H   H3230     1.0  0.74599  0.64559  0.00148  1.0000
  C   C4031     1.0  0.82472  0.71479  0.48529  1.0000
  H   H3231     1.0  0.91305  0.74637  0.43804  1.0000
  C   C4032     1.0  0.76419  0.70555  0.21420  1.0000
  C   C4033     1.0  0.78056  0.71327  0.21514  1.0000
  C   C4034     1.0  0.78983  0.71202  0.18879  1.0000
  C   C4035     1.0  0.81131  0.71831  0.11985  1.0000
  C   C4036     1.0  0.82529  0.74104  0.08398  1.0000
  C   C4037     1.0  0.83807  0.74652  0.10469  1.0000
  C   C4038     1.0  0.83752  0.73804  0.13301  1.0000
  C   C4039     1.0  0.82425  0.72399  0.14048  1.0000
  C   C4040     1.0  0.81997  0.66678  0.16577  1.0000
  H   H3232     1.0  0.75709  0.70647  0.23483  1.0000
  H   H3233     1.0  0.78615  0.71996  0.23661  1.0000
  H   H3234     1.0  0.80247  0.71789  0.19054  1.0000
  H   H3235     1.0  0.84865  0.75696  0.09820  1.0000
  H   H3236     1.0  0.84761  0.74201  0.14870  1.0000
  H   H3237     1.0  0.82440  0.71728  0.16188  1.0000
  C   C4041     1.0  0.78279  0.70280  0.16127  1.0000
  C   C4042     1.0  0.92673  0.77210  0.43121  1.0000
  S   S551      1.0  0.71483  0.80493  0.34810  1.0000
  H   H3238     1.0  0.76048  0.68737  0.14028  1.0000
  H   H3239     1.0  0.74018  0.77661  0.43411  1.0000
  H   H3240     1.0  0.83485  0.76009  0.44114  1.0000
  H   H3241     1.0  0.76534  0.96931  0.14020  1.0000
  C   C4043     1.0  0.72268  0.86028  0.19340  1.0000
  H   H3242     1.0  0.75941  0.70075  0.04268  1.0000
  C   C4044     1.0  0.86548  0.74976  0.46239  1.0000
  H   H3243     1.0  0.75731  0.65813  0.14933  1.0000
  C   C4045     1.0  0.75047  0.82187  0.40103  1.0000
  C   C4046     1.0  0.74095  0.83523  0.07441  1.0000
  C   C4047     1.0  0.78957  0.80836  0.44636  1.0000
  H   H3244     1.0  0.78057  0.65338  0.44962  1.0000
  C   C4048     1.0  0.81179  0.65545  0.31073  1.0000
  H   H3245     1.0  0.91924  0.73050  0.00151  1.0000
  C   C4049     1.0  0.82306  0.65761  0.25661  1.0000
  H   H3246     1.0  0.83969  0.70523  0.37291  1.0000
  H   H3247     1.0  0.76703  0.67958  0.27820  1.0000
  H   H3248     1.0  0.83763  0.68209  0.24121  1.0000
  C   C4050     1.0  0.81690  0.66384  0.39202  1.0000
  H   H3249     1.0  0.85028  0.71758  0.42548  1.0000
  C   C4051     1.0  0.76629  0.69492  0.16067  1.0000
  H   H3250     1.0  0.74676  0.85344  0.36021  1.0000
  H   H3251     1.0  0.85480  0.65254  0.24831  1.0000
  C   C4052     1.0  0.84331  0.76142  0.48947  1.0000
  C   C4053     1.0  0.77166  0.66939  0.05384  1.0000
  C   C4054     1.0  0.74276  0.82449  0.01065  1.0000
  H   H3252     1.0  0.80644  0.67413  0.46615  1.0000
  C   C4055     1.0  0.74747  0.83609  0.39544  1.0000
  C   C4056     1.0  0.72920  0.77839  0.43298  1.0000
  C   C4057     1.0  0.76534  0.69367  0.05360  1.0000
  C   C4058     1.0  0.81835  0.67267  0.31384  1.0000
  C   C4059     1.0  0.75403  0.83491  0.33871  1.0000
  C   C4060     1.0  0.77252  0.79137  0.48801  1.0000
  H   H3253     1.0  0.79075  0.67962  0.18845  1.0000
  C   C4061     1.0  0.77747  0.81316  0.43697  1.0000
  P   P137      1.0  0.74667  0.81228  0.44014  1.0000
  H   H3254     1.0  0.86860  0.70652  0.44939  1.0000
  H   H3255     1.0  0.82724  0.66664  0.37654  1.0000
  C   C4062     1.0  0.73441  0.73456  0.25417  1.0000
  H   H3256     1.0  0.82466  0.65173  0.23436  1.0000
  C   C4063     1.0  0.77402  0.65014  0.23334  1.0000
  C   C4064     1.0  0.76266  0.80675  0.45257  1.0000
  C   C4065     1.0  0.74398  0.96975  0.07506  1.0000
  C   C4066     1.0  0.95113  0.76494  0.13117  1.0000
  C   C4067     1.0  0.75715  0.82082  0.34408  1.0000
  H   H3257     1.0  0.71619  0.83559  0.41238  1.0000
  C   C4068     1.0  0.71539  0.76463  0.42740  1.0000
  H   H3258     1.0  0.81584  0.65484  0.01670  1.0000
  C   C4069     1.0  0.91216  0.78991  0.43050  1.0000
  H   H3259     1.0  0.73942  0.70222  0.31011  1.0000
  C   C4070     1.0  0.94411  0.76938  0.04189  1.0000
  C   C4071     1.0  0.74924  0.73753  0.26716  1.0000
  C   C4072     1.0  0.75100  0.72563  0.28702  1.0000
  P   P138      1.0  0.76581  0.75633  0.25775  1.0000
  C   C4073     1.0  0.78034  0.76033  0.28874  1.0000
  C   C4074     1.0  0.77446  0.75419  0.21907  1.0000
  C   C4075     1.0  0.79052  0.76328  0.21255  1.0000
  C   C4076     1.0  0.79745  0.76098  0.18340  1.0000
  C   C4077     1.0  0.78838  0.74982  0.16026  1.0000
  C   C4078     1.0  0.77231  0.74107  0.16616  1.0000
  C   C4079     1.0  0.76536  0.74324  0.19541  1.0000
  C   C4080     1.0  0.79122  0.75264  0.28713  1.0000
  C   C4081     1.0  0.80229  0.75542  0.31128  1.0000
  C   C4082     1.0  0.80250  0.76579  0.33743  1.0000
  C   C4083     1.0  0.79163  0.77337  0.33940  1.0000
  C   C4084     1.0  0.78055  0.77064  0.31522  1.0000
  C   C4085     1.0  0.75917  0.77324  0.25722  1.0000
  C   C4086     1.0  0.74674  0.77313  0.27774  1.0000
  C   C4087     1.0  0.74145  0.78606  0.27754  1.0000
  C   C4088     1.0  0.74859  0.79932  0.25695  1.0000
  C   C4089     1.0  0.76113  0.79968  0.23671  1.0000
  C   C4090     1.0  0.76643  0.78670  0.23683  1.0000
  C   C4091     1.0  0.85780  0.72095  0.40421  1.0000
  C   C4092     1.0  0.74415  0.82575  0.47139  1.0000
  C   C4093     1.0  0.94951  0.74843  0.13093  1.0000
  H   H3260     1.0  0.73272  0.74355  0.23884  1.0000
  H   H3261     1.0  0.76220  0.72755  0.29766  1.0000
  H   H3262     1.0  0.79775  0.77201  0.23016  1.0000
  H   H3263     1.0  0.80991  0.76779  0.17882  1.0000
  H   H3264     1.0  0.79382  0.74796  0.13781  1.0000
  H   H3265     1.0  0.76527  0.73243  0.14821  1.0000
  H   H3266     1.0  0.75295  0.73619  0.19957  1.0000
  H   H3267     1.0  0.79103  0.74424  0.26756  1.0000
  H   H3268     1.0  0.81047  0.74921  0.31008  1.0000
  H   H3269     1.0  0.81077  0.76757  0.35665  1.0000
  H   H3270     1.0  0.79136  0.78082  0.36038  1.0000
  H   H3271     1.0  0.77197  0.77625  0.31780  1.0000
  H   H3272     1.0  0.74105  0.76298  0.29383  1.0000
  H   H3273     1.0  0.83339  0.69539  0.29189  1.0000
  H   H3274     1.0  0.74435  0.80928  0.25666  1.0000
  H   H3275     1.0  0.76667  0.81001  0.22081  1.0000
  H   H3276     1.0  0.77615  0.78722  0.22101  1.0000
  C   C4094     1.0  0.80212  0.65280  0.38173  1.0000
  C   C4095     1.0  0.78706  0.79736  0.47168  1.0000
  C   C4096     1.0  0.72333  0.70848  0.28165  1.0000
  C   C4097     1.0  0.85224  0.64806  0.22377  1.0000
  H   H3277     1.0  0.94312  0.73179  0.06239  1.0000
  H   H3278     1.0  0.75760  0.80328  0.37879  1.0000
  H   H3279     1.0  0.71589  0.75255  0.42435  1.0000
  C   C4098     1.0  0.75704  0.69648  0.18687  1.0000
  C   C4099     1.0  0.72150  0.72017  0.26164  1.0000
  H   H3280     1.0  0.93783  0.77046  0.42957  1.0000
  H   H3281     1.0  0.71379  0.80802  0.43298  1.0000
  C   C4100     1.0  0.81200  0.72696  0.09135  1.0000
  C   C4101     1.0  0.74571  0.64800  0.42453  1.0000
  C   C4102     1.0  0.80808  0.66892  0.18465  1.0000
  H   H3282     1.0  0.81856  0.68853  0.10031  1.0000
  H   H3283     1.0  0.74433  0.69037  0.18626  1.0000
  H   H3284     1.0  0.75495  0.83968  0.31451  1.0000
  C   C4103     1.0  0.88371  0.72919  0.47273  1.0000
  H   H3285     1.0  0.77464  0.65482  0.34788  1.0000
  H   H3286     1.0  0.73509  0.85434  0.05336  1.0000
  C   C4104     1.0  0.85469  0.75282  0.44271  1.0000
  C   C4105     1.0  0.78118  0.67564  0.08065  1.0000
  C   C4106     1.0  0.74564  0.81607  0.03656  1.0000
  C   C4107     1.0  0.72880  0.79419  0.43539  1.0000
  S   S552      1.0  0.72761  0.87555  0.00125  1.0000
  H   H3287     1.0  0.80090  0.81313  0.43393  1.0000
  H   H3288     1.0  0.83276  0.67197  0.12054  1.0000
  C   C4108     1.0  0.72304  0.96534  0.15945  1.0000
  C   C4109     1.0  0.81993  0.71313  0.00836  1.0000
  C   C4110     1.0  0.81842  0.67150  0.42236  1.0000
  S   S553      1.0  0.72524  0.83287  0.26988  1.0000
  C   C4111     1.0  0.85180  0.71392  0.37440  1.0000
  C   C4112     1.0  0.87325  0.73266  0.40652  1.0000
  H   H3289     1.0  0.74761  0.64386  0.32780  1.0000
  H   H3290     1.0  0.74411  0.66088  0.09977  1.0000
  C   C4113     1.0  0.71891  0.85236  0.45291  1.0000
  C   C4114     1.0  0.75013  0.65286  0.21647  1.0000
  H   H3291     1.0  0.93714  0.77688  0.04450  1.0000
  H   H3292     1.0  0.74846  0.80532  0.03241  1.0000
  C   C4115     1.0  0.73184  0.81991  0.49438  1.0000
  H   H3293     1.0  0.85661  0.71319  0.32332  1.0000
  C   C4116     1.0  0.86127  0.71842  0.34657  1.0000
  C   C4117     1.0  0.87674  0.72990  0.34860  1.0000
  H   H3294     1.0  0.81616  0.67883  0.33518  1.0000
  H   H3295     1.0  0.74987  0.92815  0.00673  1.0000
  S   S554      1.0  0.71341  0.90965  0.04064  1.0000
  H   H3296     1.0  0.80554  0.66380  0.20850  1.0000
  C   C4118     1.0  0.74932  0.84261  0.36444  1.0000
  H   H3297     1.0  0.77975  0.82186  0.41760  1.0000
  C   C4119     1.0  0.83027  0.67467  0.26045  1.0000
  H   H3298     1.0  0.92717  0.74883  0.06747  1.0000
  C   C4120     1.0  0.73808  0.71116  0.29413  1.0000
  C   C4121     1.0  0.84352  0.75840  0.45630  1.0000
  H   H3299     1.0  0.70998  0.71826  0.25248  1.0000
  H   H3300     1.0  0.74359  0.67064  0.24339  1.0000
  C   C4122     1.0  0.87637  0.71201  0.46916  1.0000
  C   C4123     1.0  0.73812  0.84368  0.04876  1.0000
  C   C4124     1.0  0.71437  0.79595  0.43200  1.0000
  C   C4125     1.0  0.76532  0.67004  0.25996  1.0000
  C   C4126     1.0  0.71139  0.85708  0.47894  1.0000
  H   H3301     1.0  0.71600  0.72790  0.33993  1.0000
  C   C4127     1.0  0.75219  0.66505  0.24019  1.0000
  C   C4128     1.0  0.71630  0.87573  0.31324  1.0000
  H   H3302     1.0  0.84274  0.70478  0.48114  1.0000
  C   C4129     1.0  0.71038  0.83912  0.43238  1.0000
  H   H3303     1.0  0.74919  0.79142  0.49157  1.0000
  H   H3304     1.0  0.74012  0.83934  0.09901  1.0000
  H   H3305     1.0  0.79638  0.79349  0.47868  1.0000
  H   H3306     1.0  0.87299  0.68840  0.48899  1.0000
  H   H3307     1.0  0.85512  0.74570  0.00253  1.0000
  C   C4130     1.0  0.72092  0.86329  0.32368  1.0000
  C   C4131     1.0  0.84630  0.73439  0.01155  1.0000
  H   H3308     1.0  0.72350  0.80728  0.49368  1.0000
  C   C4132     1.0  0.74734  0.64378  0.48186  1.0000
  H   H3309     1.0  0.73977  0.64902  0.20167  1.0000
  H   H3310     1.0  0.71125  0.94845  0.12133  1.0000
  C   C4133     1.0  0.81396  0.64801  0.28167  1.0000
  C   C4134     1.0  0.79798  0.66232  0.99818  1.0000
  C   C4135     1.0  0.71387  0.96059  0.13190  1.0000
  H   H3311     1.0  0.76505  0.84662  0.45729  1.0000
  C   C4136     1.0  0.78912  0.64871  0.40314  1.0000
  C   C4137     1.0  0.74969  0.64718  0.13676  1.0000
  C   C4138     1.0  0.76120  0.64549  0.21244  1.0000
  H   H3312     1.0  0.71325  0.69750  0.28798  1.0000
  C   C4139     1.0  0.76098  0.97417  0.12058  1.0000
  H   H3313     1.0  0.78235  0.64420  0.23206  1.0000
  C   C4140     1.0  0.86530  0.75307  0.49566  1.0000
  S   S555      1.0  0.72699  0.89773  0.58753  1.0000
  C   C4141     1.0  0.91028  0.73048  0.98499  1.0000
  H   H3314     1.0  0.88515  0.72415  0.78243  1.0000
  S   S556      1.0  0.73663  0.94606  0.57039  1.0000
  H   H3315     1.0  0.74728  0.89196  0.91170  1.0000
  C   C4142     1.0  0.71038  0.80810  0.97146  1.0000
  Fe  Fe278     1.0  0.87056  0.72459  0.68633  1.0000
  S   S557      1.0  0.88614  0.71051  0.67464  1.0000
  S   S558      1.0  0.86733  0.73463  0.73611  1.0000
  Fe  Fe279     1.0  0.86055  0.72382  0.61602  1.0000
  S   S559      1.0  0.87547  0.71001  0.59936  1.0000
  S   S560      1.0  0.84307  0.73090  0.58781  1.0000
  Fe  Fe280     1.0  0.86620  0.69468  0.64357  1.0000
  S   S561      1.0  0.85515  0.66696  0.63709  1.0000
  Fe  Fe281     1.0  0.89463  0.72723  0.63142  1.0000
  S   S562      1.0  0.91969  0.73674  0.60807  1.0000
  S   S563      1.0  0.85017  0.70747  0.65841  1.0000
  S   S564      1.0  0.88013  0.74223  0.64504  1.0000
  Fe  Fe282     1.0  0.79606  0.70583  0.86817  1.0000
  S   S565      1.0  0.80380  0.72734  0.90334  1.0000
  S   S566      1.0  0.80768  0.69682  0.82662  1.0000
  Fe  Fe283     1.0  0.76379  0.68966  0.90167  1.0000
  S   S567      1.0  0.76875  0.70977  0.93914  1.0000
  S   S568      1.0  0.74154  0.66690  0.89504  1.0000
  Fe  Fe284     1.0  0.77913  0.72723  0.89804  1.0000
  S   S569      1.0  0.77586  0.75180  0.89366  1.0000
  Fe  Fe285     1.0  0.79277  0.70851  0.94206  1.0000
  C   C4143     1.0  0.76560  0.67813  0.78535  1.0000
  S   S570      1.0  0.77242  0.70707  0.86023  1.0000
  S   S571      1.0  0.78680  0.68709  0.90731  1.0000
  H   H3316     1.0  0.93922  0.66755  0.80549  1.0000
  H   H3317     1.0  0.71361  0.90890  0.83976  1.0000
  C   C4144     1.0  0.79662  0.73366  0.80166  1.0000
  S   S572      1.0  0.72656  0.83835  0.76452  1.0000
  H   H3318     1.0  0.88525  0.78840  0.94520  1.0000
  C   C4145     1.0  0.77539  0.73667  0.70803  1.0000
  C   C4146     1.0  0.75893  0.75532  0.88138  1.0000
  C   C4147     1.0  0.76000  0.77161  0.87740  1.0000
  C   C4148     1.0  0.74687  0.77497  0.86787  1.0000
  C   C4149     1.0  0.73246  0.76201  0.86194  1.0000
  C   C4150     1.0  0.73139  0.74575  0.86615  1.0000
  C   C4151     1.0  0.74449  0.74242  0.87574  1.0000
  H   H3319     1.0  0.77110  0.78172  0.88158  1.0000
  H   H3320     1.0  0.74798  0.78753  0.86460  1.0000
  H   H3321     1.0  0.76543  0.79201  0.70615  1.0000
  H   H3322     1.0  0.74340  0.72985  0.87884  1.0000
  H   H3323     1.0  0.82113  0.73662  0.75165  1.0000
  H   H3324     1.0  0.80064  0.70865  0.75042  1.0000
  P   P139      1.0  0.72206  0.90488  0.90564  1.0000
  C   C4152     1.0  0.83576  0.72374  0.54882  1.0000
  C   C4153     1.0  0.84263  0.71535  0.52850  1.0000
  C   C4154     1.0  0.81742  0.72257  0.50604  1.0000
  C   C4155     1.0  0.76976  0.81054  0.95275  1.0000
  C   C4156     1.0  0.88356  0.74049  0.82063  1.0000
  C   C4157     1.0  0.74780  0.78102  0.77973  1.0000
  H   H3325     1.0  0.85244  0.71266  0.53679  1.0000
  C   C4158     1.0  0.73811  0.91830  0.96217  1.0000
  C   C4159     1.0  0.81354  0.71093  0.67220  1.0000
  H   H3326     1.0  0.83716  0.74825  0.70271  1.0000
  C   C4160     1.0  0.85079  0.72403  0.76138  1.0000
  C   C4161     1.0  0.84140  0.70745  0.75595  1.0000
  C   C4162     1.0  0.82842  0.69931  0.77653  1.0000
  C   C4163     1.0  0.82458  0.70767  0.80256  1.0000
  C   C4164     1.0  0.83406  0.72421  0.80832  1.0000
  C   C4165     1.0  0.84714  0.73232  0.78786  1.0000
  H   H3327     1.0  0.84426  0.70087  0.73604  1.0000
  H   H3328     1.0  0.82126  0.68647  0.77213  1.0000
  H   H3329     1.0  0.83133  0.73075  0.82845  1.0000
  H   H3330     1.0  0.85439  0.74513  0.79238  1.0000
  C   C4166     1.0  0.80328  0.74745  0.82167  1.0000
  C   C4167     1.0  0.85935  0.65863  0.69922  1.0000
  H   H3331     1.0  0.86811  0.67099  0.70177  1.0000
  C   C4168     1.0  0.71511  0.85998  0.83904  1.0000
  C   C4169     1.0  0.93971  0.74972  0.61726  1.0000
  C   C4170     1.0  0.72229  0.86653  0.69069  1.0000
  H   H3332     1.0  0.75404  0.66672  0.95842  1.0000
  H   H3333     1.0  0.93455  0.76111  0.66009  1.0000
  H   H3334     1.0  0.72034  0.73563  0.86165  1.0000
  C   C4171     1.0  0.74698  0.72277  0.70701  1.0000
  H   H3335     1.0  0.73467  0.86050  0.94412  1.0000
  H   H3336     1.0  0.80152  0.72425  0.80079  1.0000
  C   C4172     1.0  0.81283  0.68420  0.58384  1.0000
  H   H3337     1.0  0.78303  0.70389  0.65068  1.0000
  H   H3338     1.0  0.74429  0.68189  0.79691  1.0000
  H   H3339     1.0  0.76386  0.94555  0.62169  1.0000
  C   C4173     1.0  0.81453  0.67353  0.70681  1.0000
  C   C4174     1.0  0.72850  0.85913  0.71379  1.0000
  H   H3340     1.0  0.73012  0.87620  0.67549  1.0000
  H   H3341     1.0  0.74112  0.86317  0.71606  1.0000
  C   C4175     1.0  0.74384  0.96601  0.58944  1.0000
  C   C4176     1.0  0.78197  0.96483  0.64778  1.0000
  H   H3342     1.0  0.76718  0.67510  0.80990  1.0000
  C   C4177     1.0  0.78678  0.65978  0.97441  1.0000
  C   C4178     1.0  0.82507  0.72690  0.67316  1.0000
  H   H3343     1.0  0.74978  0.96383  0.87858  1.0000
  H   H3344     1.0  0.73667  0.95779  0.63785  1.0000
  C   C4179     1.0  0.88876  0.70831  0.51764  1.0000
  C   C4180     1.0  0.92755  0.72882  0.75839  1.0000
  H   H3345     1.0  0.74955  0.84605  0.86581  1.0000
  C   C4181     1.0  0.81255  0.65793  0.60085  1.0000
  P   P140      1.0  0.74310  0.81728  0.96953  1.0000
  H   H3346     1.0  0.77587  0.64888  0.71811  1.0000
  C   C4182     1.0  0.92492  0.67946  0.78573  1.0000
  H   H3347     1.0  0.94915  0.74130  0.57557  1.0000
  C   C4183     1.0  0.74809  0.71741  0.67539  1.0000
  H   H3348     1.0  0.71345  0.84954  0.82307  1.0000
  C   C4184     1.0  0.75432  0.80432  0.96549  1.0000
  C   C4185     1.0  0.78338  0.73174  0.78362  1.0000
  C   C4186     1.0  0.71848  0.84672  0.73419  1.0000
  H   H3349     1.0  0.77880  0.87414  0.94261  1.0000
  C   C4187     1.0  0.71386  0.71673  0.79666  1.0000
  C   C4188     1.0  0.89621  0.72536  0.52127  1.0000
  C   C4189     1.0  0.74084  0.84675  0.52049  1.0000
  H   H3350     1.0  0.91307  0.70039  0.59862  1.0000
  H   H3351     1.0  0.82924  0.73329  0.97553  1.0000
  C   C4190     1.0  0.82774  0.73616  0.70172  1.0000
  C   C4191     1.0  0.85428  0.75889  0.50908  1.0000
  H   H3352     1.0  0.77994  0.66745  0.97422  1.0000
  H   H3353     1.0  0.78971  0.80484  0.93723  1.0000
  S   S573      1.0  0.71788  0.81329  0.84742  1.0000
  H   H3354     1.0  0.74259  0.94009  0.91442  1.0000
  C   C4192     1.0  0.86045  0.77616  0.93629  1.0000
  H   H3355     1.0  0.72980  0.92424  0.96572  1.0000
  C   C4193     1.0  0.82298  0.72708  0.53762  1.0000
  H   H3356     1.0  0.76360  0.71792  0.63526  1.0000
  H   H3357     1.0  0.73555  0.78259  0.98412  1.0000
  H   H3358     1.0  0.76263  0.66952  0.57365  1.0000
  H   H3359     1.0  0.72110  0.93289  0.80409  1.0000
  Fe  Fe286     1.0  0.71262  0.88550  0.54398  1.0000
  C   C4194     1.0  0.72844  0.87442  0.83536  1.0000
  H   H3360     1.0  0.84202  0.73602  0.91454  1.0000
  C   C4195     1.0  0.73061  0.88793  0.85589  1.0000
  H   H3361     1.0  0.77700  0.77529  0.95085  1.0000
  C   C4196     1.0  0.81869  0.72958  0.72929  1.0000
  C   C4197     1.0  0.76332  0.84938  0.95428  1.0000
  C   C4198     1.0  0.73648  0.65183  0.92539  1.0000
  H   H3362     1.0  0.83285  0.68643  0.98303  1.0000
  C   C4199     1.0  0.78855  0.65275  0.71710  1.0000
  C   C4200     1.0  0.78016  0.64522  0.80922  1.0000
  S   S574      1.0  0.72268  0.87355  0.50461  1.0000
  C   C4201     1.0  0.75561  0.77727  0.96897  1.0000
  H   H3363     1.0  0.73545  0.71962  0.71817  1.0000
  C   C4202     1.0  0.72155  0.92080  0.84851  1.0000
  Fe  Fe287     1.0  0.71956  0.91909  0.57865  1.0000
  C   C4203     1.0  0.95368  0.72176  0.69075  1.0000
  H   H3364     1.0  0.88033  0.75368  0.86249  1.0000
  C   C4204     1.0  0.76985  0.86283  0.93377  1.0000
  C   C4205     1.0  0.75343  0.84701  0.89051  1.0000
  H   H3365     1.0  0.74128  0.69012  0.74136  1.0000
  H   H3366     1.0  0.77593  0.64590  0.93234  1.0000
  C   C4206     1.0  0.76410  0.64594  0.85579  1.0000
  C   C4207     1.0  0.77663  0.74363  0.78564  1.0000
  C   C4208     1.0  0.71945  0.88703  0.88038  1.0000
  C   C4209     1.0  0.79815  0.66889  0.70814  1.0000
  H   H3367     1.0  0.83390  0.66619  0.71470  1.0000
  H   H3368     1.0  0.80582  0.65454  0.89428  1.0000
  C   C4210     1.0  0.75109  0.68671  0.74675  1.0000
  C   C4211     1.0  0.92383  0.69003  0.76206  1.0000
  P   P141      1.0  0.75917  0.74077  0.76318  1.0000
  H   H3369     1.0  0.77673  0.65288  0.65902  1.0000
  H   H3370     1.0  0.78790  0.73478  0.66448  1.0000
  C   C4212     1.0  0.74202  0.72696  0.78490  1.0000
  S   S575      1.0  0.80095  0.70424  0.99137  1.0000
  C   C4213     1.0  0.75734  0.76039  0.75884  1.0000
  C   C4214     1.0  0.80274  0.64998  0.57515  1.0000
  H   H3371     1.0  0.78852  0.66173  0.84985  1.0000
  H   H3372     1.0  0.77178  0.69792  0.59623  1.0000
  C   C4215     1.0  0.80286  0.67637  0.55849  1.0000
  H   H3373     1.0  0.74556  0.75920  0.80492  1.0000
  H   H3374     1.0  0.73150  0.69722  0.84229  1.0000
  C   C4216     1.0  0.74344  0.71589  0.80728  1.0000
  C   C4217     1.0  0.74743  0.78766  0.97419  1.0000
  C   C4218     1.0  0.84835  0.76137  0.92755  1.0000
  C   C4219     1.0  0.82123  0.66237  0.71515  1.0000
  C   C4220     1.0  0.77415  0.95694  0.61998  1.0000
  C   C4221     1.0  0.77646  0.73130  0.67642  1.0000
  H   H3375     1.0  0.77308  0.95785  0.56840  1.0000
  H   H3376     1.0  0.83636  0.76071  0.92616  1.0000
  C   C4222     1.0  0.73778  0.93824  0.89049  1.0000
  H   H3377     1.0  0.82548  0.68100  0.62447  1.0000
  C   C4223     1.0  0.85117  0.65371  0.67036  1.0000
  H   H3378     1.0  0.93304  0.72329  0.77468  1.0000
  H   H3379     1.0  0.73827  0.82224  0.90161  1.0000
  H   H3380     1.0  0.72995  0.79105  0.92058  1.0000
  H   H3381     1.0  0.82223  0.68581  0.69980  1.0000
  H   H3382     1.0  0.81759  0.73355  0.55319  1.0000
  H   H3383     1.0  0.92178  0.74285  0.79640  1.0000
  C   C4224     1.0  0.91097  0.72600  0.95262  1.0000
  P   P142      1.0  0.78947  0.68352  0.69885  1.0000
  C   C4225     1.0  0.74989  0.76622  0.78325  1.0000
  C   C4226     1.0  0.73021  0.70541  0.82436  1.0000
  S   S576      1.0  0.71575  0.76514  0.84708  1.0000
  H   H3384     1.0  0.88560  0.75067  0.80450  1.0000
  C   C4227     1.0  0.77901  0.69144  0.64128  1.0000
  H   H3385     1.0  0.76980  0.87213  0.88612  1.0000
  C   C4228     1.0  0.75336  0.79029  0.75191  1.0000
  C   C4229     1.0  0.92285  0.70405  0.64611  1.0000
  H   H3386     1.0  0.81215  0.70375  0.65011  1.0000
  H   H3387     1.0  0.91324  0.69265  0.76107  1.0000
  C   C4230     1.0  0.72207  0.85501  0.94812  1.0000
  C   C4231     1.0  0.83574  0.69159  0.95913  1.0000
  C   C4232     1.0  0.82494  0.68553  0.93436  1.0000
  C   C4233     1.0  0.82839  0.69256  0.90388  1.0000
  C   C4234     1.0  0.84261  0.70574  0.89815  1.0000
  C   C4235     1.0  0.85363  0.71187  0.92288  1.0000
  C   C4236     1.0  0.85002  0.70476  0.95353  1.0000
  P   P143      1.0  0.87138  0.72979  0.91576  1.0000
  C   C4237     1.0  0.87713  0.72864  0.87404  1.0000
  C   C4238     1.0  0.86708  0.74797  0.92330  1.0000
  C   C4239     1.0  0.87921  0.76293  0.93172  1.0000
  C   C4240     1.0  0.87588  0.77695  0.93829  1.0000
  C   C4241     1.0  0.89795  0.73487  0.99618  1.0000
  H   H3388     1.0  0.75111  0.64881  0.50564  1.0000
  C   C4242     1.0  0.85163  0.74733  0.92098  1.0000
  C   C4243     1.0  0.88049  0.74209  0.85350  1.0000
  C   C4244     1.0  0.75164  0.83468  0.94311  1.0000
  C   C4245     1.0  0.88328  0.72550  0.80810  1.0000
  C   C4246     1.0  0.88009  0.71211  0.82841  1.0000
  C   C4247     1.0  0.87702  0.71365  0.86125  1.0000
  C   C4248     1.0  0.88675  0.73006  0.94256  1.0000
  C   C4249     1.0  0.76309  0.76987  0.73108  1.0000
  C   C4250     1.0  0.76062  0.73247  0.72357  1.0000
  C   C4251     1.0  0.77857  0.65188  0.83933  1.0000
  H   H3389     1.0  0.95332  0.70208  0.65799  1.0000
  H   H3390     1.0  0.76732  0.89628  0.95280  1.0000
  C   C4252     1.0  0.73590  0.94987  0.83907  1.0000
  C   C4253     1.0  0.81627  0.65132  0.84913  1.0000
  H   H3391     1.0  0.81988  0.68807  0.88484  1.0000
  H   H3392     1.0  0.84478  0.71134  0.87457  1.0000
  H   H3393     1.0  0.85794  0.70949  0.97343  1.0000
  H   H3394     1.0  0.89122  0.76373  0.93351  1.0000
  C   C4254     1.0  0.77084  0.78347  0.95566  1.0000
  H   H3395     1.0  0.75163  0.80172  0.74916  1.0000
  C   C4255     1.0  0.72572  0.93437  0.82825  1.0000
  C   C4256     1.0  0.77795  0.80012  0.94781  1.0000
  C   C4257     1.0  0.76751  0.67214  0.59763  1.0000
  H   H3396     1.0  0.83235  0.73193  0.65200  1.0000
  C   C4258     1.0  0.73015  0.83043  0.51866  1.0000
  H   H3397     1.0  0.87958  0.70042  0.81847  1.0000
  H   H3398     1.0  0.87415  0.70303  0.87656  1.0000
  H   H3399     1.0  0.72563  0.73566  0.76251  1.0000
  H   H3400     1.0  0.78608  0.74446  0.71999  1.0000
  C   C4259     1.0  0.74451  0.65497  0.95450  1.0000
  H   H3401     1.0  0.79925  0.68361  0.54200  1.0000
  C   C4260     1.0  0.95199  0.74940  0.59647  1.0000
  C   C4261     1.0  0.77261  0.68810  0.61044  1.0000
  C   C4262     1.0  0.77551  0.66286  0.64620  1.0000
  H   H3402     1.0  0.73914  0.96039  0.82334  1.0000
  H   H3403     1.0  0.76067  0.69070  0.69850  1.0000
  H   H3404     1.0  0.92055  0.72259  0.94403  1.0000
  C   C4263     1.0  0.79664  0.75932  0.82381  1.0000
  C   C4264     1.0  0.78329  0.75739  0.80610  1.0000
  H   H3405     1.0  0.78674  0.67575  0.76777  1.0000
  H   H3406     1.0  0.81692  0.69743  0.58701  1.0000
  H   H3407     1.0  0.89949  0.74895  0.50246  1.0000
  H   H3408     1.0  0.81335  0.74876  0.83613  1.0000
  H   H3409     1.0  0.80142  0.76970  0.84030  1.0000
  H   H3410     1.0  0.77805  0.76645  0.80917  1.0000
  C   C4265     1.0  0.89825  0.67441  0.66139  1.0000
  C   C4266     1.0  0.89971  0.68059  0.63026  1.0000
  C   C4267     1.0  0.80705  0.71369  0.72841  1.0000
  C   C4268     1.0  0.71525  0.86032  0.97453  1.0000
  C   C4269     1.0  0.92138  0.69809  0.67764  1.0000
  C   C4270     1.0  0.90894  0.68314  0.68508  1.0000
  P   P144      1.0  0.93451  0.71037  0.70859  1.0000
  C   C4271     1.0  0.93620  0.69701  0.73960  1.0000
  C   C4272     1.0  0.80421  0.70429  0.69971  1.0000
  C   C4273     1.0  0.76482  0.86169  0.90196  1.0000
  H   H3411     1.0  0.77785  0.95941  0.67113  1.0000
  C   C4274     1.0  0.76281  0.72177  0.66002  1.0000
  C   C4275     1.0  0.81762  0.67497  0.60503  1.0000
  H   H3412     1.0  0.85785  0.78699  0.94163  1.0000
  H   H3413     1.0  0.79147  0.64973  0.79667  1.0000
  H   H3414     1.0  0.75005  0.76430  0.97454  1.0000
  H   H3415     1.0  0.76738  0.85048  0.97883  1.0000
  C   C4276     1.0  0.76014  0.91281  0.98188  1.0000
  H   H3416     1.0  0.89056  0.70029  0.53523  1.0000
  C   C4277     1.0  0.92675  0.72498  0.72523  1.0000
  C   C4278     1.0  0.92049  0.73325  0.70462  1.0000
  C   C4279     1.0  0.91424  0.74442  0.71706  1.0000
  C   C4280     1.0  0.91456  0.74774  0.75014  1.0000
  C   C4281     1.0  0.92135  0.74007  0.77079  1.0000
  C   C4282     1.0  0.72033  0.79322  0.93274  1.0000
  H   H3417     1.0  0.88857  0.66299  0.66727  1.0000
  H   H3418     1.0  0.89106  0.67407  0.61232  1.0000
  H   H3419     1.0  0.91526  0.67398  0.80274  1.0000
  H   H3420     1.0  0.81374  0.67567  0.93894  1.0000
  H   H3421     1.0  0.90721  0.67820  0.70905  1.0000
  C   C4283     1.0  0.74698  0.83352  0.91093  1.0000
  C   C4284     1.0  0.91206  0.69536  0.62258  1.0000
  C   C4285     1.0  0.73724  0.90814  0.93501  1.0000
  H   H3422     1.0  0.90379  0.73054  0.54170  1.0000
  H   H3423     1.0  0.78962  0.65333  0.53506  1.0000
  C   C4286     1.0  0.94372  0.76037  0.64411  1.0000
  C   C4287     1.0  0.75937  0.90269  0.95499  1.0000
  C   C4288     1.0  0.74190  0.95180  0.87018  1.0000
  H   H3424     1.0  0.93210  0.71568  0.63977  1.0000
  H   H3425     1.0  0.71213  0.81767  0.98948  1.0000
  H   H3426     1.0  0.92034  0.73106  0.67884  1.0000
  H   H3427     1.0  0.90907  0.75044  0.70095  1.0000
  H   H3428     1.0  0.90955  0.75630  0.75962  1.0000
  H   H3429     1.0  0.82101  0.66435  0.84373  1.0000
  C   C4289     1.0  0.85625  0.64744  0.72472  1.0000
  C   C4290     1.0  0.74268  0.96832  0.62278  1.0000
  C   C4291     1.0  0.79763  0.65926  0.55437  1.0000
  H   H3430     1.0  0.73701  0.87509  0.81641  1.0000
  H   H3431     1.0  0.73750  0.71014  0.66255  1.0000
  H   H3432     1.0  0.77541  0.82331  0.94596  1.0000
  C   C4292     1.0  0.88630  0.73475  0.97507  1.0000
  H   H3433     1.0  0.74097  0.89910  0.85261  1.0000
  C   C4293     1.0  0.89927  0.72577  0.93144  1.0000
  H   H3434     1.0  0.75476  0.71553  0.81222  1.0000
  C   C4294     1.0  0.78466  0.64765  0.95062  1.0000
  C   C4295     1.0  0.76893  0.65954  0.61554  1.0000
  H   H3435     1.0  0.76903  0.76582  0.71196  1.0000
  C   C4296     1.0  0.83163  0.72742  0.99622  1.0000
  C   C4297     1.0  0.75278  0.68214  0.77807  1.0000
  C   C4298     1.0  0.74794  0.90028  0.93167  1.0000
  C   C4299     1.0  0.72707  0.72716  0.77946  1.0000
  C   C4300     1.0  0.77476  0.68249  0.72947  1.0000
  H   H3436     1.0  0.74172  0.78520  0.79853  1.0000
  C   C4301     1.0  0.72761  0.92259  0.87977  1.0000
  C   C4302     1.0  0.80767  0.64572  0.87783  1.0000
  H   H3437     1.0  0.77820  0.72078  0.76875  1.0000
  H   H3438     1.0  0.90008  0.72225  0.90656  1.0000
  C   C4303     1.0  0.76109  0.78477  0.72767  1.0000
  C   C4304     1.0  0.76207  0.68695  0.72251  1.0000
  C   C4305     1.0  0.77659  0.67836  0.76125  1.0000
  C   C4306     1.0  0.78059  0.67888  0.65944  1.0000
  C   C4307     1.0  0.72318  0.80538  0.95704  1.0000
  H   H3439     1.0  0.73928  0.85504  0.53878  1.0000
  Fe  Fe288     1.0  0.71110  0.81748  0.79713  1.0000
  C   C4308     1.0  0.71543  0.70586  0.81913  1.0000
  H   H3440     1.0  0.76291  0.65096  0.87936  1.0000
  C   C4309     1.0  0.81164  0.64635  0.72396  1.0000
  H   H3441     1.0  0.71806  0.83854  0.90679  1.0000
  C   C4310     1.0  0.71270  0.84255  0.92699  1.0000
  H   H3442     1.0  0.95798  0.74394  0.71951  1.0000
  H   H3443     1.0  0.76511  0.64723  0.60540  1.0000
  C   C4311     1.0  0.94973  0.69329  0.74134  1.0000
  C   C4312     1.0  0.93841  0.67581  0.78725  1.0000
  C   C4313     1.0  0.73166  0.64406  0.72455  1.0000
  H   H3444     1.0  0.71094  0.64329  0.70028  1.0000
  H   H3445     1.0  0.72046  0.82601  0.53591  1.0000
  H   H3446     1.0  0.86263  0.65125  0.74694  1.0000
  H   H3447     1.0  0.81646  0.65104  0.61760  1.0000
  C   C4314     1.0  0.89373  0.73576  0.49894  1.0000
  C   C4315     1.0  0.95080  0.68275  0.76511  1.0000
  C   C4316     1.0  0.74952  0.92062  0.98545  1.0000
  C   C4317     1.0  0.77935  0.96393  0.58983  1.0000
  H   H3448     1.0  0.87343  0.75094  0.51157  1.0000
  H   H3449     1.0  0.73950  0.65466  0.71148  1.0000
  H   H3450     1.0  0.87684  0.73816  0.98436  1.0000
  H   H3451     1.0  0.85392  0.76088  0.53494  1.0000
  C   C4318     1.0  0.73987  0.64308  0.97888  1.0000
  H   H3452     1.0  0.82517  0.64438  0.80483  1.0000
  H   H3453     1.0  0.77059  0.78289  0.50771  1.0000
  H   H3454     1.0  0.80786  0.72559  0.49741  1.0000
  H   H3455     1.0  0.83446  0.76541  0.50010  1.0000
  C   C4319     1.0  0.83714  0.71095  0.49688  1.0000
  H   H3456     1.0  0.76157  0.86523  0.49975  1.0000
  C   C4320     1.0  0.75340  0.85251  0.49836  1.0000
