data_image0
_chemical_formula_structural       FeSHFeSCFeSFeS3FeS2FeSHFeSFeS3C2H3C6H4C2H2C3H4CHC2H4CHCHSCH4C3HC2H2CHC3H2C5H2CH2C2H4CHC2HC2H3C2HC3H2C7H2PC2HCHC4HSHCHP2C4HCHC2HCHCH3C2HC3H2CH4C2H2CHSC3PH2CHSHCHC4HC2HCH3FeS2HFeHFeCS2C2HC2HC3HC3HPC4H2C2HC3HCHCHCHCH2CHC5HCHC3PC3HC4H2CH3C6HCSC2PHC2HCH2C2H3CHC6H4C2H2CH2C3H3CH2SCHFeHCHCH3CSC3HC2HC3FeSHFeS2FeSFeS3C3H5C2HCH2CH2C2H3C2HCH2C4HC4H5C8H5C3HC2H2CHCHCH4C6PC10H2CH6C2H2C2H2C4H2S2H3CH3CH2CH2C3H2FeHSFeCSFeS2FeSHFeSFeS3C3HC4H2C6H4CH2C2HCHCH7C6HCHCHCH4C7PC4HC6HC2HC4H3C2HCH5CHCHC2HCH3C7SHFeHCSC2HCH3CH2C2HCHCHC2H2C3H3C4HPH2S2FeHSCH6Fe2S2FeCSCSFeSCFeSFeS3C4H2CH2C6H4CH2CHCHC3PC4HCHC2HCH2C2H2C5HCFeC5H5CHC6PC15HC2H16C2H3CHSC2H4CHCH2C3H2C4H3C4H2C3H2CH2C2HPH2C2H3FeS3CHCH2C2H4CHCHCH2C2HCHC3HC2HC2HCHSC2HCH2C3HC7HC6HSCPC7HC2HC2H5C2HC2HC2H2CH2CHPH2C2SH3PHCHCHCH4CH2C4HCHC4HCHCSCH2FeS2FeS2FeHFeS3HC2SHC3H2C2H2CH2C2H3C2HCH2C3HC8PC8HC3H2C2H2PCHCHC2HCH2C2HCHCHC3HC7HCH5CH3SHCH2C3H2CHCHC4HC2H2CHCH4C3H3CHFeS2FeSHFeSHSHC5H4CHC3HC7HSCH2C2HC2H3C4HCHCHPHC6HCHC2H2C2HCH5C8SC2HCH2CHC2H2C2HFeCHSH2CH3C5HC4H4CH3FeS2FeS2FeHFeHS2FeS2FeS2FeCFePS2HCH3C2HC2H2C4SH2SC6H4C2H3CH3C6H2C3H3C2HCHCPHCSC4PC18H18SC3SHC6H3C3HC2HC2HCHC5H2CHCH2CHCHCH3CHSH3FeCSC2HC3HC2H2C3HCHCPCH7C2PH2C3PC13H4SHCH10CH3CH2CHC2HC2H3CHC2HC2HC7SCH3C5HCH2C3HFeS2FeS2CFeHS2FeS2FeCSCFeH4C9H5C2HCFeS2FeS2HCHC2HC3HCSHC2H2CHC2HC3HCHCHC5HC2H2PC5H3CHC2PC5HCH2PC2HCHC2H2C3HCH4CHCH2C2H2CSCH4CH2CHC5H3CHCHPC2HC3HC2HC3HCH3CHFeS2FeS2FeSFeHS2FeCSFeCSH4CH4C13H4C3H2CHCHCPC4H2C4H2CHCH6CHC2HC2H3CHC2HC10HCH3C5HCHC2H2CPCHCHC2H4C3HCHCHCHC5H2C2H4CHCH2CHCHSCH2CPHC2H2CHC4HSH2CHFeH
_chemical_formula_sum              "Fe64 S128 H768 C960 P32"
_cell_length_a       37.5748
_cell_length_b       37.5285
_cell_length_c       46.9419
_cell_angle_alpha    89.6761
_cell_angle_beta     89.9646
_cell_angle_gamma    90.2266

_space_group_name_H-M_alt    "P 1"
_space_group_IT_number       1

loop_
  _space_group_symop_operation_xyz
  'x, y, z'

loop_
  _atom_site_type_symbol
  _atom_site_label
  _atom_site_symmetry_multiplicity
  _atom_site_fract_x
  _atom_site_fract_y
  _atom_site_fract_z
  _atom_site_occupancy
  Fe  Fe1       1.0  0.18164  0.43485  0.20547  1.0000
  S   S1        1.0  0.17086  0.37983  0.18953  1.0000
  H   H1        1.0  0.44318  0.33238  0.07690  1.0000
  Fe  Fe2       1.0  0.16836  0.41469  0.26815  1.0000
  S   S2        1.0  0.15663  0.35758  0.25580  1.0000
  C   C1        1.0  0.26600  0.49796  0.03132  1.0000
  Fe  Fe3       1.0  0.20431  0.36122  0.22633  1.0000
  S   S3        1.0  0.24428  0.31456  0.22545  1.0000
  Fe  Fe4       1.0  0.12449  0.38088  0.22003  1.0000
  S   S4        1.0  0.07048  0.36409  0.20268  1.0000
  S   S5        1.0  0.21813  0.41693  0.24107  1.0000
  S   S6        1.0  0.13328  0.43729  0.23363  1.0000
  Fe  Fe5       1.0  0.42800  0.15148  0.08487  1.0000
  S   S7        1.0  0.37087  0.14345  0.09908  1.0000
  S   S8        1.0  0.43664  0.14605  0.03640  1.0000
  Fe  Fe6       1.0  0.45242  0.15767  0.14736  1.0000
  S   S9        1.0  0.39739  0.15083  0.16506  1.0000
  H   H2        1.0  0.49161  0.43526  0.23083  1.0000
  Fe  Fe7       1.0  0.39334  0.10667  0.13266  1.0000
  S   S10       1.0  0.37460  0.05234  0.14888  1.0000
  Fe  Fe8       1.0  0.37996  0.18849  0.13020  1.0000
  S   S11       1.0  0.34323  0.23798  0.13206  1.0000
  S   S12       1.0  0.44931  0.11188  0.11679  1.0000
  S   S13       1.0  0.43606  0.19836  0.11419  1.0000
  C   C2        1.0  0.14420  0.36611  0.03967  1.0000
  C   C3        1.0  0.00613  0.37202  0.11679  1.0000
  H   H3        1.0  0.38944  0.29147  0.15068  1.0000
  H   H4        1.0  0.45699  0.03479  0.15250  1.0000
  H   H5        1.0  0.40019  0.03764  0.09124  1.0000
  C   C4        1.0  0.27232  0.29420  0.19932  1.0000
  C   C5        1.0  0.27902  0.30975  0.17269  1.0000
  C   C6        1.0  0.30161  0.29275  0.15289  1.0000
  C   C7        1.0  0.31708  0.25935  0.15895  1.0000
  C   C8        1.0  0.31054  0.24388  0.18565  1.0000
  C   C9        1.0  0.28858  0.26131  0.20570  1.0000
  H   H6        1.0  0.26683  0.33492  0.16745  1.0000
  H   H7        1.0  0.30687  0.30548  0.13260  1.0000
  H   H8        1.0  0.32218  0.21832  0.19079  1.0000
  H   H9        1.0  0.28376  0.24894  0.22622  1.0000
  C   C10       1.0  0.03058  0.36926  0.22229  1.0000
  C   C11       1.0  0.03081  0.37530  0.25166  1.0000
  H   H10       1.0  0.04016  0.35438  0.08289  1.0000
  H   H11       1.0  0.05589  0.37710  0.26289  1.0000
  C   C12       1.0  0.16703  0.32114  0.07236  1.0000
  C   C13       1.0  0.17338  0.44327  0.09569  1.0000
  C   C14       1.0  0.17786  0.44520  0.12539  1.0000
  H   H12       1.0  0.27067  0.26809  0.10384  1.0000
  H   H13       1.0  0.16953  0.41769  0.08580  1.0000
  H   H14       1.0  0.17717  0.42122  0.13809  1.0000
  H   H15       1.0  0.19699  0.36683  0.05661  1.0000
  C   C15       1.0  0.47119  0.15464  0.01094  1.0000
  H   H16       1.0  0.47325  0.37800  0.10664  1.0000
  C   C16       1.0  0.46716  0.14907  0.22672  1.0000
  C   C17       1.0  0.46544  0.14890  0.25668  1.0000
  H   H17       1.0  0.44368  0.14299  0.21442  1.0000
  H   H18       1.0  0.44047  0.14303  0.26722  1.0000
  H   H19       1.0  0.24836  0.41373  0.13973  1.0000
  H   H20       1.0  0.22867  0.25780  0.14122  1.0000
  C   C18       1.0  0.35202  0.36835  0.18259  1.0000
  H   H21       1.0  0.40123  0.28912  0.09930  1.0000
  C   C19       1.0  0.40919  0.29041  0.20792  1.0000
  H   H22       1.0  0.44272  0.01072  0.99360  1.0000
  S   S14       1.0  0.49186  0.15932  0.31050  1.0000
  C   C20       1.0  0.45420  0.35465  0.21526  1.0000
  H   H23       1.0  0.09014  0.35891  0.02564  1.0000
  H   H24       1.0  0.11196  0.37998  0.09813  1.0000
  H   H25       1.0  0.29183  0.41536  0.22118  1.0000
  H   H26       1.0  0.25084  0.45667  0.06096  1.0000
  C   C21       1.0  0.44866  0.36021  0.14580  1.0000
  C   C22       1.0  0.08124  0.42722  0.08978  1.0000
  C   C23       1.0  0.19117  0.26190  0.17517  1.0000
  H   H27       1.0  0.35492  0.35722  0.16151  1.0000
  C   C24       1.0  0.06262  0.45561  0.10180  1.0000
  C   C25       1.0  0.06192  0.46002  0.13151  1.0000
  H   H28       1.0  0.02217  0.36009  0.13351  1.0000
  H   H29       1.0  0.14811  0.39072  0.02775  1.0000
  C   C26       1.0  0.39878  0.21938  0.22504  1.0000
  H   H30       1.0  0.47637  0.23784  0.27909  1.0000
  C   C27       1.0  0.22242  0.26530  0.07874  1.0000
  C   C28       1.0  0.34134  0.39502  0.23746  1.0000
  C   C29       1.0  0.22012  0.21551  0.04574  1.0000
  H   H31       1.0  0.20670  0.24525  0.18941  1.0000
  H   H32       1.0  0.33659  0.40447  0.25890  1.0000
  C   C30       1.0  0.26172  0.48331  0.05852  1.0000
  C   C31       1.0  0.32144  0.38794  0.18882  1.0000
  C   C32       1.0  0.09514  0.40503  0.13692  1.0000
  C   C33       1.0  0.15301  0.30775  0.13955  1.0000
  C   C34       1.0  0.37659  0.24609  0.23553  1.0000
  H   H33       1.0  0.13855  0.32682  0.12676  1.0000
  H   H34       1.0  0.04946  0.47443  0.08784  1.0000
  C   C35       1.0  0.25360  0.20422  0.05498  1.0000
  H   H35       1.0  0.27034  0.48092  0.18992  1.0000
  H   H36       1.0  0.36349  0.30152  0.23480  1.0000
  C   C36       1.0  0.45926  0.39176  0.21565  1.0000
  C   C37       1.0  0.37215  0.37576  0.23126  1.0000
  H   H37       1.0  0.45248  0.26949  0.18266  1.0000
  H   H38       1.0  0.43006  0.05757  0.28520  1.0000
  H   H39       1.0  0.37610  0.01761  0.21162  1.0000
  H   H40       1.0  0.15040  0.27198  0.20632  1.0000
  C   C38       1.0  0.37784  0.36250  0.20371  1.0000
  H   H41       1.0  0.10733  0.38523  0.15060  1.0000
  C   C39       1.0  0.27162  0.22341  0.07591  1.0000
  C   C40       1.0  0.45501  0.35913  0.11641  1.0000
  H   H42       1.0  0.47510  0.03561  0.10177  1.0000
  C   C41       1.0  0.42520  0.33561  0.15854  1.0000
  C   C42       1.0  0.31603  0.40111  0.21623  1.0000
  H   H43       1.0  0.48052  0.08321  0.30889  1.0000
  H   H44       1.0  0.31139  0.37269  0.07092  1.0000
  H   H45       1.0  0.30113  0.41845  0.10805  1.0000
  C   C43       1.0  0.20363  0.26928  0.14768  1.0000
  C   C44       1.0  0.11149  0.34832  0.03864  1.0000
  H   H46       1.0  0.08116  0.30298  0.05345  1.0000
  C   C45       1.0  0.17195  0.35247  0.05626  1.0000
  C   C46       1.0  0.15953  0.27708  0.18476  1.0000
  C   C47       1.0  0.49570  0.15679  0.27302  1.0000
  H   H47       1.0  0.00962  0.45445  0.19382  1.0000
  H   H48       1.0  0.39460  0.19185  0.23136  1.0000
  C   C48       1.0  0.43131  0.26339  0.19753  1.0000
  C   C49       1.0  0.23492  0.33913  0.09989  1.0000
  C   C50       1.0  0.26452  0.34223  0.08174  1.0000
  C   C51       1.0  0.28851  0.37057  0.08489  1.0000
  C   C52       1.0  0.28279  0.39630  0.10581  1.0000
  C   C53       1.0  0.25316  0.39360  0.12369  1.0000
  C   C54       1.0  0.22938  0.36510  0.12078  1.0000
  H   H49       1.0  0.26895  0.32302  0.06499  1.0000
  H   H50       1.0  0.20655  0.36348  0.13474  1.0000
  P   P1        1.0  0.49339  0.01087  0.28858  1.0000
  C   C55       1.0  0.46582  0.01886  0.00570  1.0000
  C   C56       1.0  0.47793  0.33273  0.23037  1.0000
  H   H51       1.0  0.05936  0.44589  0.26456  1.0000
  C   C57       1.0  0.40795  0.31040  0.14139  1.0000
  H   H52       1.0  0.17865  0.25390  0.04997  1.0000
  C   C58       1.0  0.25618  0.25380  0.08765  1.0000
  C   C59       1.0  0.48785  0.40662  0.23060  1.0000
  C   C60       1.0  0.18392  0.47799  0.13844  1.0000
  C   C61       1.0  0.07747  0.43397  0.14901  1.0000
  H   H53       1.0  0.44379  0.07071  0.01471  1.0000
  S   S15       1.0  0.19332  0.48100  0.17534  1.0000
  H   H54       1.0  0.29757  0.21463  0.08326  1.0000
  C   C62       1.0  0.42819  0.03758  0.26881  1.0000
  H   H55       1.0  0.11609  0.31200  0.17462  1.0000
  P   P2        1.0  0.41664  0.33583  0.19646  1.0000
  P   P3        1.0  0.20234  0.30418  0.09486  1.0000
  C   C63       1.0  0.20455  0.24590  0.05752  1.0000
  C   C64       1.0  0.48503  0.01496  0.11590  1.0000
  C   C65       1.0  0.49549  0.06430  0.03357  1.0000
  C   C66       1.0  0.09742  0.40188  0.10737  1.0000
  H   H56       1.0  0.44098  0.40918  0.20450  1.0000
  C   C67       1.0  0.43806  0.33351  0.09961  1.0000
  H   H57       1.0  0.39110  0.37048  0.24814  1.0000
  C   C68       1.0  0.45405  0.01082  0.26619  1.0000
  C   C69       1.0  0.41449  0.30918  0.11213  1.0000
  H   H58       1.0  0.12972  0.27913  0.08336  1.0000
  C   C70       1.0  0.18451  0.29205  0.12947  1.0000
  H   H59       1.0  0.30129  0.39188  0.17267  1.0000
  C   C71       1.0  0.14029  0.29973  0.16687  1.0000
  H   H60       1.0  0.07614  0.43595  0.17202  1.0000
  H   H61       1.0  0.38081  0.06108  0.25096  1.0000
  H   H62       1.0  0.44283  0.20752  0.19729  1.0000
  C   C72       1.0  0.10645  0.31692  0.05433  1.0000
  C   C73       1.0  0.38222  0.01232  0.12993  1.0000
  H   H63       1.0  0.08333  0.42502  0.06684  1.0000
  C   C74       1.0  0.38159  0.28151  0.22691  1.0000
  C   C75       1.0  0.47487  0.01447  0.14451  1.0000
  C   C76       1.0  0.17377  0.47420  0.07877  1.0000
  H   H64       1.0  0.49564  0.09081  0.04268  1.0000
  H   H65       1.0  0.46221  0.38007  0.15837  1.0000
  C   C77       1.0  0.40009  0.03977  0.24933  1.0000
  H   H66       1.0  0.35497  0.23924  0.24986  1.0000
  H   H67       1.0  0.33439  0.47748  0.20272  1.0000
  H   H68       1.0  0.10382  0.48600  0.28675  1.0000
  H   H69       1.0  0.26563  0.18057  0.04603  1.0000
  C   C78       1.0  0.46620  0.05290  0.01770  1.0000
  C   C79       1.0  0.05063  0.46690  0.27867  1.0000
  H   H70       1.0  0.47456  0.30412  0.23086  1.0000
  H   H71       1.0  0.99884  0.38177  0.28951  1.0000
  C   C80       1.0  0.42602  0.22811  0.20596  1.0000
  H   H72       1.0  0.20617  0.20055  0.02950  1.0000
  S   S16       1.0  0.16864  0.47022  0.04136  1.0000
  C   C81       1.0  0.13405  0.30341  0.07118  1.0000
  C   C82       1.0  0.39739  0.01524  0.22716  1.0000
  C   C83       1.0  0.39457  0.01253  0.10180  1.0000
  P   P4        1.0  0.03917  0.49742  0.14714  1.0000
  H   H73       1.0  0.25870  0.48254  0.01276  1.0000
  H   H74       1.0  0.00122  0.47261  0.04292  1.0000
  C   C84       1.0  0.01622  0.36884  0.08824  1.0000
  H   H75       1.0  0.19463  0.49683  0.31005  1.0000
  S   S17       1.0  0.15859  0.42712  0.31557  1.0000
  H   H76       1.0  0.00514  0.38347  0.04495  1.0000
  C   C85       1.0  0.07566  0.48969  0.29101  1.0000
  H   H77       1.0  0.26454  0.49209  0.10334  1.0000
  C   C86       1.0  0.32594  0.49437  0.18521  1.0000
  C   C87       1.0  0.28993  0.49629  0.17804  1.0000
  C   C88       1.0  0.01448  0.47054  0.28510  1.0000
  C   C89       1.0  0.00288  0.49758  0.30345  1.0000
  H   H78       1.0  0.03158  0.49801  0.48200  1.0000
  C   C90       1.0  0.03509  0.46554  0.61505  1.0000
  C   C91       1.0  0.16900  0.46184  0.34019  1.0000
  H   H79       1.0  0.47494  0.04519  0.57156  1.0000
  C   C92       1.0  0.20654  0.34656  0.60008  1.0000
  H   H80       1.0  0.45062  0.09354  0.49081  1.0000
  H   H81       1.0  0.32789  0.07476  0.61116  1.0000
  H   H82       1.0  0.43488  0.18126  0.47284  1.0000
  Fe  Fe9       1.0  0.42302  0.16253  0.58164  1.0000
  S   S18       1.0  0.37016  0.14025  0.59647  1.0000
  S   S19       1.0  0.42787  0.17178  0.53342  1.0000
  H   H83       1.0  0.47447  0.00289  0.39304  1.0000
  Fe  Fe10      1.0  0.40241  0.10329  0.62382  1.0000
  H   H84       1.0  0.21821  0.38483  0.46341  1.0000
  Fe  Fe11      1.0  0.37285  0.17994  0.63237  1.0000
  C   C93       1.0  0.23309  0.11033  0.62647  1.0000
  S   S20       1.0  0.45477  0.12291  0.60704  1.0000
  S   S21       1.0  0.42357  0.20513  0.61578  1.0000
  C   C94       1.0  0.02105  0.49366  0.59867  1.0000
  C   C95       1.0  0.20562  0.05478  0.50595  1.0000
  H   H85       1.0  0.17417  0.38159  0.57393  1.0000
  C   C96       1.0  0.31298  0.31919  0.58420  1.0000
  C   C97       1.0  0.28710  0.42338  0.63916  1.0000
  H   H86       1.0  0.20883  0.43106  0.50039  1.0000
  C   C98       1.0  0.20761  0.46810  0.60236  1.0000
  C   C99       1.0  0.19961  0.46922  0.63156  1.0000
  C   C100      1.0  0.17881  0.03135  0.51493  1.0000
  H   H87       1.0  0.22160  0.44551  0.59403  1.0000
  C   C101      1.0  0.23567  0.34494  0.49354  1.0000
  C   C102      1.0  0.46054  0.17272  0.48070  1.0000
  C   C103      1.0  0.46503  0.16635  0.51010  1.0000
  H   H88       1.0  0.15944  0.48025  0.41144  1.0000
  P   P5        1.0  0.04142  0.47510  0.42238  1.0000
  C   C104      1.0  0.32003  0.25513  0.58706  1.0000
  C   C105      1.0  0.34093  0.04378  0.53333  1.0000
  C   C106      1.0  0.07311  0.47360  0.50600  1.0000
  C   C107      1.0  0.22503  0.39691  0.53497  1.0000
  H   H89       1.0  0.32510  0.34537  0.58365  1.0000
  H   H90       1.0  0.30490  0.01414  0.62448  1.0000
  C   C108      1.0  0.33495  0.28926  0.58619  1.0000
  C   C109      1.0  0.31566  0.06441  0.54779  1.0000
  H   H91       1.0  0.44625  0.09331  0.54350  1.0000
  C   C110      1.0  0.26967  0.39477  0.62625  1.0000
  C   C111      1.0  0.30517  0.44856  0.62248  1.0000
  C   C112      1.0  0.29595  0.10868  0.63739  1.0000
  H   H92       1.0  0.38938  0.11039  0.50213  1.0000
  C   C113      1.0  0.27580  0.31513  0.58319  1.0000
  H   H93       1.0  0.14549  0.43356  0.37567  1.0000
  C   C114      1.0  0.47081  0.07914  0.35379  1.0000
  H   H94       1.0  0.25246  0.31093  0.52777  1.0000
  C   C115      1.0  0.04934  0.40534  0.40337  1.0000
  H   H95       1.0  0.20678  0.12081  0.63062  1.0000
  C   C116      1.0  0.30123  0.08427  0.61544  1.0000
  H   H96       1.0  0.32028  0.46424  0.57992  1.0000
  H   H97       1.0  0.23255  0.27679  0.58208  1.0000
  C   C117      1.0  0.06542  0.46578  0.45500  1.0000
  H   H98       1.0  0.08370  0.43262  0.32854  1.0000
  C   C118      1.0  0.39758  0.00924  0.58646  1.0000
  C   C119      1.0  0.10346  0.45227  0.50547  1.0000
  C   C120      1.0  0.11520  0.43802  0.47970  1.0000
  C   C121      1.0  0.09651  0.44501  0.45451  1.0000
  C   C122      1.0  0.15898  0.45771  0.36899  1.0000
  H   H99       1.0  0.22082  0.41745  0.55062  1.0000
  C   C123      1.0  0.05252  0.44167  0.39631  1.0000
  H   H100      1.0  0.11957  0.37262  0.60201  1.0000
  C   C124      1.0  0.06481  0.45141  0.36912  1.0000
  C   C125      1.0  0.05420  0.48043  0.48095  1.0000
  C   C126      1.0  0.31679  0.10170  0.54485  1.0000
  P   P6        1.0  0.28072  0.04381  0.56877  1.0000
  C   C127      1.0  0.27035  0.39084  0.59655  1.0000
  C   C128      1.0  0.07337  0.42517  0.34926  1.0000
  C   C129      1.0  0.47822  0.06516  0.32692  1.0000
  H   H101      1.0  0.29755  0.11830  0.55565  1.0000
  C   C130      1.0  0.49602  0.01848  0.53458  1.0000
  C   C131      1.0  0.34326  0.11804  0.52835  1.0000
  C   C132      1.0  0.46259  0.07213  0.50301  1.0000
  C   C133      1.0  0.21805  0.40467  0.50637  1.0000
  H   H102      1.0  0.11859  0.44791  0.52484  1.0000
  H   H103      1.0  0.13936  0.42239  0.47913  1.0000
  C   C134      1.0  0.46045  0.07216  0.53272  1.0000
  H   H104      1.0  0.05585  0.35123  0.38899  1.0000
  H   H105      1.0  0.27172  0.22430  0.58688  1.0000
  H   H106      1.0  0.39532  0.03476  0.57585  1.0000
  C   C135      1.0  0.17492  0.36385  0.59210  1.0000
  C   C136      1.0  0.23765  0.36321  0.54317  1.0000
  C   C137      1.0  0.22338  0.37870  0.48563  1.0000
  C   C138      1.0  0.47691  0.04521  0.54849  1.0000
  C   C139      1.0  0.26107  0.28065  0.58335  1.0000
  C   C140      1.0  0.14375  0.35886  0.60800  1.0000
  H   H107      1.0  0.34478  0.14687  0.52683  1.0000
  C   C141      1.0  0.28313  0.25083  0.58567  1.0000
  S   S22       1.0  0.39180  0.04595  0.63732  1.0000
  C   C142      1.0  0.46940  0.05673  0.37761  1.0000
  C   C143      1.0  0.07002  0.38916  0.35634  1.0000
  P   P7        1.0  0.24739  0.35377  0.58024  1.0000
  H   H108      1.0  0.06854  0.47909  0.36332  1.0000
  C   C144      1.0  0.30643  0.44465  0.59290  1.0000
  C   C145      1.0  0.28956  0.41562  0.57998  1.0000
  H   H109      1.0  0.46479  0.06792  0.39851  1.0000
  C   C146      1.0  0.48080  0.04498  0.48900  1.0000
  H   H110      1.0  0.33704  0.23199  0.58927  1.0000
  H   H111      1.0  0.23991  0.32484  0.47742  1.0000
  C   C147      1.0  0.20646  0.32475  0.62453  1.0000
  C   C148      1.0  0.36861  0.09737  0.51446  1.0000
  H   H112      1.0  0.25556  0.37586  0.63957  1.0000
  H   H113      1.0  0.29126  0.41289  0.55708  1.0000
  H   H114      1.0  0.36358  0.29246  0.58739  1.0000
  C   C149      1.0  0.17523  0.31970  0.64028  1.0000
  H   H115      1.0  0.25696  0.07708  0.51478  1.0000
  C   C150      1.0  0.18298  0.01180  0.54013  1.0000
  C   C151      1.0  0.24279  0.33717  0.52219  1.0000
  C   C152      1.0  0.16678  0.48422  0.38938  1.0000
  C   C153      1.0  0.23827  0.08578  0.60450  1.0000
  C   C154      1.0  0.24103  0.03907  0.54744  1.0000
  C   C155      1.0  0.27251  0.07265  0.59877  1.0000
  H   H116      1.0  0.38734  0.04424  0.50631  1.0000
  H   H117      1.0  0.21563  0.07774  0.59184  1.0000
  H   H118      1.0  0.20799  0.44774  0.64537  1.0000
  H   H119      1.0  0.23070  0.31217  0.63180  1.0000
  C   C156      1.0  0.48160  0.00595  0.34750  1.0000
  C   C157      1.0  0.05799  0.37921  0.38341  1.0000
  H   H120      1.0  0.48517  0.17384  0.43888  1.0000
  H   H121      1.0  0.06482  0.48598  0.52565  1.0000
  C   C158      1.0  0.14385  0.33668  0.63201  1.0000
  H   H122      1.0  0.04043  0.39728  0.42440  1.0000
  H   H123      1.0  0.48216  0.04540  0.46593  1.0000
  C   C159      1.0  0.21395  0.01563  0.55636  1.0000
  C   C160      1.0  0.23663  0.05871  0.52213  1.0000
  C   C161      1.0  0.39842  0.00770  0.61622  1.0000
  H   H124      1.0  0.01806  0.44901  0.62826  1.0000
  H   H125      1.0  0.20234  0.07002  0.48644  1.0000
  H   H126      1.0  0.12268  0.47349  0.59748  1.0000
  C   C162      1.0  0.36742  0.06025  0.51687  1.0000
  H   H127      1.0  0.46729  0.10766  0.35617  1.0000
  H   H128      1.0  0.31820  0.47105  0.63245  1.0000
  S   S23       1.0  0.32004  0.20232  0.64955  1.0000
  C   C163      1.0  0.47482  0.02014  0.37448  1.0000
  H   H129      1.0  0.08228  0.43679  0.62746  1.0000
  Fe  Fe12      1.0  0.45164  0.16327  0.64232  1.0000
  H   H130      1.0  0.10690  0.43479  0.43466  1.0000
  C   C164      1.0  0.07160  0.45837  0.61460  1.0000
  H   H131      1.0  0.34082  0.01508  0.53509  1.0000
  C   C165      1.0  0.09441  0.47911  0.59778  1.0000
  H   H132      1.0  0.11986  0.33346  0.64472  1.0000
  H   H133      1.0  0.07746  0.36906  0.34093  1.0000
  H   H134      1.0  0.15477  0.02842  0.50238  1.0000
  C   C166      1.0  0.48319  0.02841  0.32344  1.0000
  S   S24       1.0  0.20898  0.49327  0.54744  1.0000
  C   C167      1.0  0.18668  0.49315  0.33201  1.0000
  C   C168      1.0  0.26197  0.12194  0.64278  1.0000
  C   C169      1.0  0.48903  0.16848  0.46133  1.0000
  H   H135      1.0  0.31841  0.11799  0.64984  1.0000
  C   C170      1.0  0.19783  0.49604  0.58406  1.0000
  C   C171      1.0  0.18167  0.49846  0.64286  1.0000
  H   H136      1.0  0.21674  0.00045  0.57594  1.0000
  C   C172      1.0  0.49814  0.01820  0.50466  1.0000
  C   C173      1.0  0.49843  0.15528  0.51985  1.0000
  C   C174      1.0  0.29379  0.99975  0.58057  1.0000
  Fe  Fe13      1.0  0.17476  0.44916  0.70389  1.0000
  S   S25       1.0  0.17030  0.39724  0.68134  1.0000
  H   H137      1.0  0.48057  0.22621  0.82841  1.0000
  Fe  Fe14      1.0  0.17632  0.41436  0.76308  1.0000
  S   S26       1.0  0.17157  0.35899  0.74431  1.0000
  S   S27       1.0  0.18299  0.41947  0.81154  1.0000
  Fe  Fe15      1.0  0.21208  0.37688  0.71156  1.0000
  S   S28       1.0  0.26536  0.35281  0.69685  1.0000
  Fe  Fe16      1.0  0.13019  0.38392  0.71545  1.0000
  S   S29       1.0  0.07757  0.36285  0.69869  1.0000
  S   S30       1.0  0.21926  0.43079  0.73206  1.0000
  S   S31       1.0  0.13235  0.43734  0.73640  1.0000
  C   C175      1.0  0.34051  0.29636  0.79592  1.0000
  C   C176      1.0  0.30862  0.47022  0.76772  1.0000
  C   C177      1.0  0.27902  0.31112  0.68227  1.0000
  H   H138      1.0  0.35261  0.14198  0.79840  1.0000
  H   H139      1.0  0.44034  0.16708  0.70869  1.0000
  H   H140      1.0  0.46638  0.24964  0.67654  1.0000
  H   H141      1.0  0.28622  0.42590  0.66214  1.0000
  H   H142      1.0  0.49581  0.28864  0.84016  1.0000
  C   C178      1.0  0.30771  0.31110  0.80355  1.0000
  C   C179      1.0  0.06687  0.45318  0.80074  1.0000
  H   H143      1.0  0.46426  0.33839  0.81598  1.0000
  C   C180      1.0  0.03723  0.37400  0.71604  1.0000
  H   H144      1.0  0.00465  0.40155  0.77991  1.0000
  H   H145      1.0  0.06638  0.39497  0.85651  1.0000
  C   C181      1.0  0.05773  0.41649  0.84270  1.0000
  H   H146      1.0  0.06189  0.39044  0.75520  1.0000
  H   H147      1.0  0.41165  0.07066  0.69272  1.0000
  C   C182      1.0  0.18324  0.44919  0.86513  1.0000
  C   C183      1.0  0.17302  0.45380  0.83648  1.0000
  H   H148      1.0  0.07985  0.48403  0.67380  1.0000
  H   H149      1.0  0.18406  0.47138  0.90767  1.0000
  H   H150      1.0  0.19688  0.42508  0.87144  1.0000
  C   C184      1.0  0.46452  0.16434  0.72086  1.0000
  C   C185      1.0  0.36769  0.19321  0.78124  1.0000
  H   H151      1.0  0.08311  0.45988  0.78246  1.0000
  C   C186      1.0  0.27949  0.31107  0.78418  1.0000
  H   H152      1.0  0.37162  0.20474  0.80211  1.0000
  H   H153      1.0  0.43719  0.16153  0.76118  1.0000
  C   C187      1.0  0.27561  0.41044  0.79195  1.0000
  C   C188      1.0  0.29675  0.40667  0.76766  1.0000
  C   C189      1.0  0.15531  0.48514  0.82875  1.0000
  C   C190      1.0  0.49398  0.15914  0.76707  1.0000
  H   H154      1.0  0.33069  0.33140  0.67065  1.0000
  C   C191      1.0  0.27095  0.44400  0.80413  1.0000
  C   C192      1.0  0.44198  0.07864  0.73101  1.0000
  C   C193      1.0  0.31373  0.30809  0.67125  1.0000
  C   C194      1.0  0.49191  0.15136  0.96123  1.0000
  H   H155      1.0  0.32910  0.43361  0.73644  1.0000
  H   H156      1.0  0.00454  0.35897  0.68030  1.0000
  H   H157      1.0  0.34089  0.11534  0.75098  1.0000
  H   H158      1.0  0.45930  0.03794  0.66812  1.0000
  H   H159      1.0  0.02383  0.45381  0.68900  1.0000
  C   C195      1.0  0.03548  0.47196  0.80658  1.0000
  C   C196      1.0  0.07787  0.42553  0.81870  1.0000
  C   C197      1.0  0.03701  0.47248  0.70310  1.0000
  C   C198      1.0  0.31333  0.43654  0.75562  1.0000
  C   C199      1.0  0.47444  0.07293  0.74469  1.0000
  C   C200      1.0  0.00463  0.36889  0.70189  1.0000
  C   C201      1.0  0.35652  0.15771  0.77922  1.0000
  C   C202      1.0  0.17594  0.47541  0.88580  1.0000
  H   H160      1.0  0.30457  0.47121  0.90283  1.0000
  H   H161      1.0  0.44370  0.30399  0.65230  1.0000
  H   H162      1.0  0.10222  0.41121  0.81404  1.0000
  H   H163      1.0  0.26159  0.38767  0.80082  1.0000
  H   H164      1.0  0.29938  0.38082  0.75764  1.0000
  C   C203      1.0  0.01568  0.46313  0.83104  1.0000
  C   C204      1.0  0.02291  0.47888  0.73017  1.0000
  C   C205      1.0  0.46281  0.16170  0.75073  1.0000
  H   H165      1.0  0.25345  0.44647  0.82236  1.0000
  C   C206      1.0  0.43659  0.06567  0.70355  1.0000
  C   C207      1.0  0.46362  0.04700  0.68974  1.0000
  H   H166      1.0  0.25389  0.32206  0.79010  1.0000
  H   H167      1.0  0.34807  0.15213  0.70722  1.0000
  C   C208      1.0  0.25718  0.28082  0.68251  1.0000
  H   H168      1.0  0.30394  0.32200  0.82465  1.0000
  C   C209      1.0  0.35430  0.16327  0.72789  1.0000
  H   H169      1.0  0.23048  0.28251  0.69099  1.0000
  C   C210      1.0  0.36604  0.19857  0.72979  1.0000
  H   H170      1.0  0.42139  0.09400  0.74138  1.0000
  H   H171      1.0  0.31197  0.47437  0.85061  1.0000
  H   H172      1.0  0.36150  0.29547  0.81166  1.0000
  H   H173      1.0  0.44064  0.13285  0.97625  1.0000
  C   C211      1.0  0.46632  0.24790  0.81824  1.0000
  C   C212      1.0  0.47496  0.28313  0.82480  1.0000
  C   C213      1.0  0.45716  0.31106  0.81120  1.0000
  C   C214      1.0  0.43033  0.30373  0.79138  1.0000
  C   C215      1.0  0.42089  0.26835  0.78517  1.0000
  C   C216      1.0  0.43987  0.24049  0.79814  1.0000
  P   P8        1.0  0.38638  0.25993  0.75918  1.0000
  C   C217      1.0  0.37362  0.21360  0.75650  1.0000
  C   C218      1.0  0.34548  0.28206  0.76859  1.0000
  C   C219      1.0  0.28410  0.29648  0.75715  1.0000
  C   C220      1.0  0.31688  0.28195  0.74935  1.0000
  C   C221      1.0  0.40441  0.27486  0.72554  1.0000
  C   C222      1.0  0.43198  0.25539  0.71295  1.0000
  C   C223      1.0  0.44583  0.26560  0.68650  1.0000
  C   C224      1.0  0.06850  0.48936  0.69457  1.0000
  C   C225      1.0  0.40649  0.31652  0.68578  1.0000
  C   C226      1.0  0.39204  0.30587  0.71201  1.0000
  H   H174      1.0  0.46933  0.01471  0.81543  1.0000
  H   H175      1.0  0.48702  0.14399  0.93934  1.0000
  C   C227      1.0  0.02663  0.43527  0.84888  1.0000
  H   H176      1.0  0.41687  0.32564  0.78088  1.0000
  H   H177      1.0  0.43483  0.21299  0.79280  1.0000
  H   H178      1.0  0.26207  0.29629  0.74227  1.0000
  H   H179      1.0  0.31974  0.27016  0.72844  1.0000
  H   H180      1.0  0.36835  0.21411  0.71034  1.0000
  H   H181      1.0  0.44250  0.23207  0.72354  1.0000
  C   C228      1.0  0.28878  0.48975  0.89045  1.0000
  C   C229      1.0  0.00450  0.39290  0.75798  1.0000
  H   H182      1.0  0.39666  0.34024  0.67521  1.0000
  H   H183      1.0  0.37115  0.32170  0.72145  1.0000
  C   C230      1.0  0.43305  0.29616  0.67287  1.0000
  C   C231      1.0  0.32681  0.27520  0.66114  1.0000
  H   H184      1.0  0.01102  0.42820  0.86748  1.0000
  H   H185      1.0  0.25825  0.14163  0.65934  1.0000
  C   C232      1.0  0.34995  0.14270  0.75255  1.0000
  C   C233      1.0  0.03703  0.38662  0.74402  1.0000
  C   C234      1.0  0.27016  0.24798  0.67223  1.0000
  C   C235      1.0  0.29266  0.49143  0.86082  1.0000
  H   H186      1.0  0.26215  0.48905  0.66968  1.0000
  H   H187      1.0  0.21765  0.48379  0.77670  1.0000
  S   S32       1.0  0.40142  0.14103  0.66073  1.0000
  S   S33       1.0  0.49043  0.15589  0.80462  1.0000
  H   H188      1.0  0.14681  0.48896  0.80697  1.0000
  H   H189      1.0  0.47893  0.08417  0.76557  1.0000
  H   H190      1.0  0.40658  0.00150  0.73123  1.0000
  C   C236      1.0  0.28747  0.47419  0.79221  1.0000
  H   H191      1.0  0.32112  0.49294  0.75760  1.0000
  H   H192      1.0  0.45620  0.00468  0.76490  1.0000
  H   H193      1.0  0.03267  0.48989  0.90180  1.0000
  C   C237      1.0  0.46560  0.14509  0.98227  1.0000
  H   H194      1.0  0.25305  0.22474  0.67274  1.0000
  H   H195      1.0  0.35360  0.27336  0.65289  1.0000
  C   C238      1.0  0.30513  0.24481  0.66168  1.0000
  H   H196      1.0  0.17554  0.30332  0.65937  1.0000
  H   H197      1.0  0.49359  0.07549  0.82229  1.0000
  C   C239      1.0  0.49634  0.02060  0.80877  1.0000
  C   C240      1.0  0.49746  0.16463  0.70699  1.0000
  C   C241      1.0  0.49612  0.04056  0.70355  1.0000
  H   H198      1.0  0.99871  0.46516  0.73646  1.0000
  H   H199      1.0  0.48432  0.87940  0.29853  1.0000
  Fe  Fe17      1.0  0.19840  0.59155  0.99813  1.0000
  H   H200      1.0  0.39565  0.88626  0.17443  1.0000
  S   S34       1.0  0.25119  0.62212  0.00483  1.0000
  Fe  Fe18      1.0  0.16467  0.51998  0.01359  1.0000
  C   C242      1.0  0.48103  0.90823  0.19192  1.0000
  S   S35       1.0  0.16001  0.57452  0.03243  1.0000
  Fe  Fe19      1.0  0.41725  0.79729  0.14531  1.0000
  S   S36       1.0  0.36454  0.81866  0.12932  1.0000
  S   S37       1.0  0.42340  0.79411  0.19416  1.0000
  Fe  Fe20      1.0  0.44407  0.78844  0.08397  1.0000
  S   S38       1.0  0.39360  0.80844  0.06475  1.0000
  H   H201      1.0  0.29138  0.76421  0.02264  1.0000
  Fe  Fe21      1.0  0.39697  0.85110  0.09815  1.0000
  S   S39       1.0  0.39400  0.90763  0.08020  1.0000
  Fe  Fe22      1.0  0.36555  0.77380  0.09709  1.0000
  S   S40       1.0  0.31371  0.74147  0.08973  1.0000
  S   S41       1.0  0.44915  0.83254  0.11591  1.0000
  S   S42       1.0  0.41642  0.75080  0.11479  1.0000
  C   C243      1.0  0.37913  0.94716  0.12852  1.0000
  C   C244      1.0  0.39085  0.94740  0.10026  1.0000
  C   C245      1.0  0.48473  0.80261  0.26590  1.0000
  H   H202      1.0  0.37201  0.92221  0.13857  1.0000
  C   C246      1.0  0.44314  0.71866  0.00308  1.0000
  C   C247      1.0  0.47117  0.81603  0.00999  1.0000
  C   C248      1.0  0.02173  0.55741  0.98554  1.0000
  C   C249      1.0  0.49491  0.99590  0.00957  1.0000
  H   H203      1.0  0.18852  0.53461  0.13148  1.0000
  H   H204      1.0  0.17993  0.53120  0.07927  1.0000
  C   C250      1.0  0.29709  0.70761  0.06625  1.0000
  C   C251      1.0  0.31891  0.68935  0.04709  1.0000
  C   C252      1.0  0.30440  0.66328  0.02878  1.0000
  C   C253      1.0  0.26785  0.65469  0.02931  1.0000
  C   C254      1.0  0.24608  0.67241  0.04883  1.0000
  C   C255      1.0  0.26061  0.69861  0.06711  1.0000
  H   H205      1.0  0.34709  0.69478  0.04670  1.0000
  H   H206      1.0  0.32170  0.64962  0.01406  1.0000
  H   H207      1.0  0.21795  0.66626  0.04964  1.0000
  H   H208      1.0  0.24336  0.71220  0.08192  1.0000
  C   C256      1.0  0.01502  0.56263  0.12568  1.0000
  H   H209      1.0  0.36819  0.91339  0.99445  1.0000
  H   H210      1.0  0.45023  0.71716  0.27552  1.0000
  C   C257      1.0  0.46116  0.79589  0.21729  1.0000
  C   C258      1.0  0.45583  0.80175  0.24663  1.0000
  H   H211      1.0  0.42909  0.80582  0.25443  1.0000
  C   C259      1.0  0.20544  0.61170  0.15291  1.0000
  H   H212      1.0  0.45254  0.82859  0.02430  1.0000
  C   C260      1.0  0.44848  0.88600  0.23306  1.0000
  H   H213      1.0  0.46777  0.70636  0.00992  1.0000
  H   H214      1.0  0.39670  0.67141  0.09196  1.0000
  H   H215      1.0  0.09222  0.52256  0.10515  1.0000
  H   H216      1.0  0.04553  0.61914  0.07397  1.0000
  H   H217      1.0  0.45980  0.94006  0.29139  1.0000
  H   H218      1.0  0.36080  0.84963  0.99513  1.0000
  H   H219      1.0  0.28053  0.54484  0.00713  1.0000
  C   C261      1.0  0.17900  0.50718  0.09193  1.0000
  C   C262      1.0  0.35063  0.74148  0.26687  1.0000
  C   C263      1.0  0.37150  0.73379  0.24306  1.0000
  C   C264      1.0  0.40717  0.72451  0.24654  1.0000
  C   C265      1.0  0.42223  0.72330  0.27375  1.0000
  C   C266      1.0  0.40161  0.73140  0.29786  1.0000
  H   H220      1.0  0.15750  0.63431  0.13538  1.0000
  C   C267      1.0  0.32637  0.80480  0.00483  1.0000
  H   H221      1.0  0.10877  0.54486  0.24789  1.0000
  C   C268      1.0  0.29047  0.81174  0.04757  1.0000
  H   H222      1.0  0.39397  0.87066  0.22554  1.0000
  C   C269      1.0  0.04123  0.52557  0.20210  1.0000
  H   H223      1.0  0.32303  0.74898  0.26403  1.0000
  H   H224      1.0  0.36037  0.73576  0.22179  1.0000
  H   H225      1.0  0.36486  0.97904  0.16488  1.0000
  H   H226      1.0  0.42141  0.72107  0.04547  1.0000
  C   C270      1.0  0.11538  0.52314  0.20590  1.0000
  C   C271      1.0  0.34752  0.65864  0.11319  1.0000
  C   C272      1.0  0.37640  0.65127  0.09547  1.0000
  C   C273      1.0  0.37868  0.61824  0.08201  1.0000
  C   C274      1.0  0.35207  0.59257  0.08629  1.0000
  C   C275      1.0  0.32251  0.60012  0.10357  1.0000
  C   C276      1.0  0.32060  0.63329  0.11717  1.0000
  P   P9        1.0  0.28925  0.56628  0.11064  1.0000
  C   C277      1.0  0.28182  0.53891  0.07961  1.0000
  C   C278      1.0  0.30376  0.53854  0.14007  1.0000
  C   C279      1.0  0.41799  0.88197  0.21639  1.0000
  C   C280      1.0  0.27892  0.51827  0.15560  1.0000
  H   H227      1.0  0.17504  0.62334  0.08526  1.0000
  C   C281      1.0  0.02289  0.58839  0.00189  1.0000
  C   C282      1.0  0.33995  0.53639  0.14737  1.0000
  C   C283      1.0  0.28587  0.55345  0.05216  1.0000
  C   C284      1.0  0.32948  0.85951  0.03233  1.0000
  C   C285      1.0  0.48013  0.89843  0.22082  1.0000
  C   C286      1.0  0.06448  0.51642  0.30955  1.0000
  H   H228      1.0  0.36625  0.75109  0.03048  1.0000
  C   C287      1.0  0.24758  0.58803  0.11858  1.0000
  C   C288      1.0  0.23792  0.59527  0.14688  1.0000
  H   H229      1.0  0.25095  0.51947  0.15034  1.0000
  C   C289      1.0  0.34050  0.83906  0.00909  1.0000
  C   C290      1.0  0.22480  0.59869  0.09640  1.0000
  C   C291      1.0  0.38111  0.75434  0.98606  1.0000
  C   C292      1.0  0.39868  0.98021  0.08701  1.0000
  H   H230      1.0  0.44790  0.87804  0.25521  1.0000
  H   H231      1.0  0.35453  0.56689  0.07610  1.0000
  H   H232      1.0  0.29828  0.63987  0.13071  1.0000
  C   C293      1.0  0.41710  0.72710  0.02315  1.0000
  C   C294      1.0  0.41894  0.89079  0.18750  1.0000
  H   H233      1.0  0.45045  0.91061  0.15272  1.0000
  C   C295      1.0  0.19245  0.61528  0.10251  1.0000
  H   H234      1.0  0.35979  0.55163  0.13583  1.0000
  H   H235      1.0  0.29372  0.58104  0.04920  1.0000
  H   H236      1.0  0.01024  0.53685  0.05173  1.0000
  H   H237      1.0  0.42356  0.71963  0.22793  1.0000
  H   H238      1.0  0.34938  0.74768  0.31227  1.0000
  C   C296      1.0  0.09836  0.51106  0.18126  1.0000
  H   H239      1.0  0.25537  0.58823  0.16435  1.0000
  C   C297      1.0  0.45021  0.90415  0.17528  1.0000
  H   H240      1.0  0.23185  0.59440  0.07432  1.0000
  C   C298      1.0  0.07161  0.57097  0.08747  1.0000
  C   C299      1.0  0.01662  0.59252  0.10776  1.0000
  H   H241      1.0  0.19793  0.61677  0.17479  1.0000
  C   C300      1.0  0.04125  0.53615  0.12407  1.0000
  H   H242      1.0  0.04290  0.54730  0.24451  1.0000
  H   H243      1.0  0.09347  0.57428  0.07257  1.0000
  H   H244      1.0  0.34555  0.68445  0.12334  1.0000
  C   C301      1.0  0.36560  0.74044  0.29415  1.0000
  C   C302      1.0  0.18415  0.50903  0.12160  1.0000
  C   C303      1.0  0.04459  0.59638  0.08833  1.0000
  C   C304      1.0  0.48692  0.98735  0.16258  1.0000
  C   C305      1.0  0.48824  0.93666  0.29368  1.0000
  C   C306      1.0  0.37479  0.97946  0.14326  1.0000
  C   C307      1.0  0.09542  0.53593  0.22874  1.0000
  S   S43       1.0  0.06398  0.60809  0.01188  1.0000
  H   H245      1.0  0.40101  0.61261  0.06819  1.0000
  Fe  Fe23      1.0  0.11654  0.58211  0.99980  1.0000
  H   H246      1.0  0.46610  0.94824  0.05308  1.0000
  C   C308      1.0  0.27821  0.53297  0.02816  1.0000
  S   S44       1.0  0.49045  0.77269  0.05568  1.0000
  C   C309      1.0  0.30156  0.79114  0.02450  1.0000
  C   C310      1.0  0.05835  0.53723  0.22682  1.0000
  H   H247      1.0  0.29678  0.86134  0.06995  1.0000
  C   C311      1.0  0.06110  0.51167  0.17935  1.0000
  H   H248      1.0  0.47430  0.90619  0.09276  1.0000
  H   H249      1.0  0.27195  0.80064  0.06300  1.0000
  H   H250      1.0  0.42070  0.96967  0.20705  1.0000
  C   C312      1.0  0.07038  0.54133  0.10564  1.0000
  H   H251      1.0  0.48012  0.80786  0.28819  1.0000
  H   H252      1.0  0.01257  0.52757  0.20077  1.0000
  C   C313      1.0  0.18265  0.62158  0.13073  1.0000
  C   C314      1.0  0.30449  0.84585  0.05154  1.0000
  H   H253      1.0  0.40759  0.86453  0.31680  1.0000
  C   C315      1.0  0.48439  0.92622  0.05050  1.0000
  H   H254      1.0  0.40739  0.98075  0.06505  1.0000
  C   C316      1.0  0.26951  0.50366  0.08259  1.0000
  H   H255      1.0  0.14415  0.52228  0.20736  1.0000
  C   C317      1.0  0.38608  0.74463  0.01463  1.0000
  C   C318      1.0  0.45124  0.98649  0.24364  1.0000
  H   H256      1.0  0.47177  0.96691  0.24023  1.0000
  H   H257      1.0  0.34121  0.88547  0.03618  1.0000
  C   C319      1.0  0.49305  0.78859  0.01999  1.0000
  C   C320      1.0  0.02827  0.52036  0.31581  1.0000
  C   C321      1.0  0.42271  0.98834  0.22453  1.0000
  H   H258      1.0  0.39901  0.80179  0.30462  1.0000
  H   H259      1.0  0.37885  0.51306  0.17552  1.0000
  H   H260      1.0  0.47847  0.98719  0.18456  1.0000
  C   C322      1.0  0.49589  0.79054  0.20756  1.0000
  C   C323      1.0  0.35094  0.51442  0.16989  1.0000
  C   C324      1.0  0.42355  0.92801  0.99459  1.0000
  C   C325      1.0  0.48915  0.90248  0.07320  1.0000
  H   H261      1.0  0.42652  0.92113  0.01688  1.0000
  P   P10       1.0  0.49457  0.95135  0.99514  1.0000
  H   H262      1.0  0.49274  0.75562  0.31262  1.0000
  H   H263      1.0  0.11436  0.50130  0.16376  1.0000
  S   S45       1.0  0.15157  0.52487  0.48297  1.0000
  S   S46       1.0  0.06926  0.57037  0.51389  1.0000
  Fe  Fe24      1.0  0.18455  0.55895  0.45355  1.0000
  H   H264      1.0  0.49775  0.88412  0.55262  1.0000
  S   S47       1.0  0.15673  0.60999  0.46605  1.0000
  C   C326      1.0  0.44900  0.79107  0.36460  1.0000
  H   H265      1.0  0.37017  0.57530  0.56944  1.0000
  H   H266      1.0  0.38895  0.70292  0.43216  1.0000
  H   H267      1.0  0.26716  0.53062  0.62911  1.0000
  H   H268      1.0  0.05451  0.60254  0.45808  1.0000
  H   H269      1.0  0.48642  0.97765  0.34575  1.0000
  H   H270      1.0  0.40270  0.93999  0.45794  1.0000
  Fe  Fe25      1.0  0.12615  0.57576  0.49738  1.0000
  Fe  Fe26      1.0  0.19955  0.61549  0.49990  1.0000
  S   S48       1.0  0.22879  0.56636  0.48583  1.0000
  S   S49       1.0  0.22493  0.67025  0.50996  1.0000
  Fe  Fe27      1.0  0.19253  0.53688  0.51642  1.0000
  C   C327      1.0  0.17917  0.64909  0.58096  1.0000
  S   S50       1.0  0.16603  0.58608  0.53208  1.0000
  C   C328      1.0  0.44221  0.92628  0.42661  1.0000
  S   S51       1.0  0.38107  0.81774  0.61735  1.0000
  Fe  Fe28      1.0  0.47055  0.80044  0.57911  1.0000
  S   S52       1.0  0.41949  0.80626  0.55529  1.0000
  C   C329      1.0  0.32390  0.59015  0.59370  1.0000
  Fe  Fe29      1.0  0.40972  0.85208  0.58496  1.0000
  S   S53       1.0  0.39476  0.90471  0.56418  1.0000
  Fe  Fe30      1.0  0.39558  0.77117  0.58922  1.0000
  S   S54       1.0  0.36493  0.71980  0.57810  1.0000
  S   S55       1.0  0.46242  0.84842  0.60679  1.0000
  S   S56       1.0  0.44820  0.76235  0.61186  1.0000
  C   C330      1.0  0.21330  0.63806  0.58871  1.0000
  C   C331      1.0  0.39959  0.94415  0.58430  1.0000
  C   C332      1.0  0.40266  0.94281  0.61398  1.0000
  C   C333      1.0  0.05462  0.51881  0.40981  1.0000
  H   H271      1.0  0.00549  0.63061  0.61194  1.0000
  H   H272      1.0  0.32278  0.90465  0.60435  1.0000
  C   C334      1.0  0.46715  0.67642  0.34217  1.0000
  H   H273      1.0  0.32434  0.65518  0.36724  1.0000
  H   H274      1.0  0.17147  0.54681  0.58176  1.0000
  C   C335      1.0  0.32592  0.70711  0.55879  1.0000
  C   C336      1.0  0.30080  0.73174  0.54899  1.0000
  C   C337      1.0  0.27014  0.71997  0.53421  1.0000
  C   C338      1.0  0.26408  0.68347  0.52897  1.0000
  C   C339      1.0  0.28937  0.65891  0.53862  1.0000
  C   C340      1.0  0.31982  0.67068  0.55357  1.0000
  H   H275      1.0  0.30486  0.75976  0.55299  1.0000
  H   H276      1.0  0.25095  0.73931  0.52679  1.0000
  H   H277      1.0  0.28543  0.63082  0.53459  1.0000
  H   H278      1.0  0.33917  0.65149  0.56084  1.0000
  C   C341      1.0  0.02943  0.58072  0.49556  1.0000
  H   H279      1.0  0.44478  0.97172  0.48893  1.0000
  H   H280      1.0  0.48563  0.83683  0.44142  1.0000
  C   C342      1.0  0.08877  0.53215  0.41564  1.0000
  H   H281      1.0  0.12394  0.65084  0.59289  1.0000
  C   C343      1.0  0.33059  0.70821  0.64973  1.0000
  H   H282      1.0  0.48099  0.93489  0.52193  1.0000
  C   C344      1.0  0.43785  0.85346  0.35473  1.0000
  C   C345      1.0  0.39781  0.97749  0.57056  1.0000
  C   C346      1.0  0.07430  0.58752  0.39161  1.0000
  P   P11       1.0  0.26406  0.60912  0.62545  1.0000
  C   C347      1.0  0.35374  0.67791  0.40206  1.0000
  C   C348      1.0  0.03068  0.53995  0.39418  1.0000
  C   C349      1.0  0.40227  0.71738  0.38898  1.0000
  C   C350      1.0  0.38220  0.69977  0.40986  1.0000
  H   H283      1.0  0.44199  0.88127  0.35989  1.0000
  C   C351      1.0  0.41376  0.80806  0.32367  1.0000
  H   H284      1.0  0.47026  0.74161  0.46924  1.0000
  C   C352      1.0  0.15618  0.62682  0.62577  1.0000
  C   C353      1.0  0.09853  0.56632  0.40649  1.0000
  H   H285      1.0  0.17491  0.66151  0.56031  1.0000
  C   C354      1.0  0.04423  0.51422  0.58166  1.0000
  H   H286      1.0  0.23873  0.56644  0.57706  1.0000
  H   H287      1.0  0.03422  0.53578  0.56849  1.0000
  C   C355      1.0  0.49417  0.72849  0.32029  1.0000
  C   C356      1.0  0.28662  0.58855  0.59581  1.0000
  H   H288      1.0  0.08186  0.61422  0.38505  1.0000
  H   H289      1.0  0.12491  0.57649  0.41114  1.0000
  C   C357      1.0  0.43040  0.94218  0.45173  1.0000
  C   C358      1.0  0.26739  0.56880  0.57565  1.0000
  C   C359      1.0  0.18476  0.51542  0.38124  1.0000
  C   C360      1.0  0.28509  0.55189  0.55331  1.0000
  C   C361      1.0  0.46424  0.71174  0.33232  1.0000
  H   H290      1.0  0.46854  0.83418  0.39030  1.0000
  C   C362      1.0  0.30370  0.93723  0.56972  1.0000
  Fe  Fe31      1.0  0.43547  0.81116  0.63786  1.0000
  C   C363      1.0  0.28176  0.68177  0.62350  1.0000
  C   C364      1.0  0.42863  0.78110  0.34090  1.0000
  C   C365      1.0  0.28911  0.64833  0.63570  1.0000
  C   C366      1.0  0.02950  0.59668  0.46856  1.0000
  C   C367      1.0  0.46835  0.86263  0.47970  1.0000
  H   H291      1.0  0.47202  0.75594  0.52097  1.0000
  H   H292      1.0  0.13390  0.62174  0.63987  1.0000
  H   H293      1.0  0.01542  0.56602  0.61773  1.0000
  H   H294      1.0  0.46293  0.77129  0.37710  1.0000
  H   H295      1.0  0.26101  0.68504  0.60780  1.0000
  C   C368      1.0  0.15052  0.64316  0.59935  1.0000
  H   H296      1.0  0.15713  0.54871  0.63317  1.0000
  C   C369      1.0  0.34939  0.85129  0.38235  1.0000
  C   C370      1.0  0.33893  0.82200  0.36607  1.0000
  C   C371      1.0  0.33459  0.78867  0.37902  1.0000
  C   C372      1.0  0.34048  0.78460  0.40827  1.0000
  C   C373      1.0  0.35099  0.81387  0.42482  1.0000
  C   C374      1.0  0.35548  0.84726  0.41158  1.0000
  P   P12       1.0  0.35962  0.80948  0.46261  1.0000
  C   C375      1.0  0.32461  0.82887  0.48375  1.0000
  C   C376      1.0  0.36224  0.76344  0.47389  1.0000
  C   C377      1.0  0.39323  0.75012  0.48671  1.0000
  C   C378      1.0  0.39444  0.71489  0.49650  1.0000
  C   C379      1.0  0.36476  0.69270  0.49354  1.0000
  C   C380      1.0  0.33358  0.70592  0.48129  1.0000
  C   C381      1.0  0.33206  0.74135  0.47204  1.0000
  C   C382      1.0  0.29836  0.85050  0.47134  1.0000
  C   C383      1.0  0.27124  0.86483  0.48818  1.0000
  C   C384      1.0  0.27013  0.85764  0.51743  1.0000
  C   C385      1.0  0.29612  0.83609  0.52989  1.0000
  C   C386      1.0  0.32312  0.82158  0.51313  1.0000
  C   C387      1.0  0.40170  0.83142  0.46905  1.0000
  C   C388      1.0  0.43038  0.82563  0.45044  1.0000
  C   C389      1.0  0.46338  0.84167  0.45557  1.0000
  H   H297      1.0  0.02140  0.59092  0.37425  1.0000
  C   C390      1.0  0.43991  0.86857  0.49824  1.0000
  C   C391      1.0  0.40660  0.85345  0.49279  1.0000
  H   H298      1.0  0.35283  0.87713  0.37228  1.0000
  H   H299      1.0  0.33425  0.82512  0.34342  1.0000
  H   H300      1.0  0.32656  0.76588  0.36645  1.0000
  H   H301      1.0  0.33698  0.75852  0.41761  1.0000
  H   H302      1.0  0.36370  0.87016  0.42394  1.0000
  H   H303      1.0  0.41614  0.76707  0.49007  1.0000
  H   H304      1.0  0.41809  0.70512  0.50717  1.0000
  H   H305      1.0  0.36544  0.66566  0.50174  1.0000
  H   H306      1.0  0.31012  0.68907  0.47998  1.0000
  H   H307      1.0  0.30715  0.75160  0.46383  1.0000
  H   H308      1.0  0.29844  0.85610  0.44874  1.0000
  H   H309      1.0  0.25088  0.88127  0.47850  1.0000
  H   H310      1.0  0.24902  0.86856  0.53043  1.0000
  H   H311      1.0  0.29532  0.83037  0.55255  1.0000
  H   H312      1.0  0.34294  0.80470  0.52314  1.0000
  H   H313      1.0  0.42755  0.80803  0.43237  1.0000
  C   C392      1.0  0.19050  0.61648  0.63384  1.0000
  C   C393      1.0  0.31358  0.95874  0.61752  1.0000
  H   H314      1.0  0.44364  0.88422  0.51730  1.0000
  H   H315      1.0  0.38529  0.85841  0.50772  1.0000
  H   H316      1.0  0.00432  0.53020  0.38912  1.0000
  C   C394      1.0  0.32207  0.55424  0.55102  1.0000
  H   H317      1.0  0.33950  0.60492  0.60899  1.0000
  S   S57       1.0  0.19636  0.54963  0.40600  1.0000
  C   C395      1.0  0.21942  0.62203  0.61531  1.0000
  C   C396      1.0  0.45270  0.82696  0.37191  1.0000
  H   H318      1.0  0.39577  0.97869  0.54761  1.0000
  H   H319      1.0  0.30505  0.91580  0.55440  1.0000
  H   H320      1.0  0.28591  0.97587  0.53912  1.0000
  H   H321      1.0  0.40413  0.91730  0.62476  1.0000
  C   C397      1.0  0.17159  0.52636  0.62466  1.0000
  H   H322      1.0  0.32230  0.95399  0.63920  1.0000
  C   C398      1.0  0.17958  0.52518  0.59539  1.0000
  H   H323      1.0  0.33815  0.66432  0.41832  1.0000
  H   H324      1.0  0.27006  0.53698  0.53768  1.0000
  C   C399      1.0  0.40165  0.97446  0.62987  1.0000
  C   C400      1.0  0.34149  0.57327  0.57127  1.0000
  C   C401      1.0  0.29342  0.97140  0.56112  1.0000
  H   H325      1.0  0.42458  0.73334  0.39581  1.0000
  H   H326      1.0  0.10792  0.51639  0.42736  1.0000
  C   C402      1.0  0.49110  0.75857  0.47748  1.0000
  C   C403      1.0  0.34590  0.67291  0.37328  1.0000
  C   C404      1.0  0.04036  0.57433  0.38545  1.0000
  C   C405      1.0  0.31368  0.93088  0.59793  1.0000
  H   H327      1.0  0.20849  0.54357  0.34582  1.0000
  H   H328      1.0  0.33558  0.54138  0.53349  1.0000
  H   H329      1.0  0.23492  0.64210  0.57388  1.0000
  C   C406      1.0  0.36630  0.69003  0.35228  1.0000
  C   C407      1.0  0.39416  0.71325  0.35992  1.0000
  C   C408      1.0  0.30229  0.71154  0.63065  1.0000
  C   C409      1.0  0.49202  0.76672  0.50673  1.0000
  H   H330      1.0  0.42372  0.91183  0.41325  1.0000
  H   H331      1.0  0.44449  0.66266  0.35135  1.0000
  C   C410      1.0  0.47809  0.92852  0.41901  1.0000
  C   C411      1.0  0.45447  0.96022  0.46930  1.0000
  C   C412      1.0  0.19450  0.51966  0.35240  1.0000
  H   H332      1.0  0.36063  0.68431  0.33019  1.0000
  H   H333      1.0  0.09846  0.52319  0.56824  1.0000
  C   C413      1.0  0.41862  0.84401  0.33047  1.0000
  H   H334      1.0  0.16213  0.99372  0.54714  1.0000
  H   H335      1.0  0.29734  0.73695  0.62034  1.0000
  C   C414      1.0  0.30388  0.99308  0.60892  1.0000
  C   C415      1.0  0.08076  0.50709  0.58139  1.0000
  H   H336      1.0  0.49441  0.87370  0.48417  1.0000
  P   P13       1.0  0.42182  0.73429  0.33285  1.0000
  H   H337      1.0  0.48770  0.91597  0.39971  1.0000
  H   H338      1.0  0.02052  0.54059  0.33080  1.0000
  C   C416      1.0  0.49070  0.96253  0.46191  1.0000
  C   C417      1.0  0.26451  0.54124  0.65041  1.0000
  H   H339      1.0  0.08408  0.53349  0.31964  1.0000
  H   H340      1.0  0.39244  0.61341  0.78188  1.0000
  H   H341      1.0  0.19403  0.60349  0.65424  1.0000
  Fe  Fe32      1.0  0.15838  0.54741  0.95140  1.0000
  S   S58       1.0  0.14926  0.54142  0.90300  1.0000
  S   S59       1.0  0.15440  0.60427  0.96686  1.0000
  S   S60       1.0  0.43884  0.82123  0.68632  1.0000
  C   C418      1.0  0.33818  0.67509  0.66195  1.0000
  H   H342      1.0  0.24801  0.57672  0.72667  1.0000
  C   C419      1.0  0.48543  0.95825  0.68251  1.0000
  H   H343      1.0  0.46398  0.97580  0.68833  1.0000
  H   H344      1.0  0.30176  0.79991  0.92367  1.0000
  C   C420      1.0  0.05370  0.54970  0.82771  1.0000
  C   C421      1.0  0.47105  0.81090  0.71323  1.0000
  H   H345      1.0  0.47191  0.89507  0.90458  1.0000
  H   H346      1.0  0.40934  0.95366  0.91518  1.0000
  H   H347      1.0  0.40238  0.97309  0.65288  1.0000
  H   H348      1.0  0.25252  0.51159  0.71839  1.0000
  C   C422      1.0  0.39026  0.92323  0.98185  1.0000
  H   H349      1.0  0.26423  0.78475  0.96854  1.0000
  C   C423      1.0  0.38522  0.93192  0.95317  1.0000
  H   H350      1.0  0.38692  0.58652  0.83007  1.0000
  C   C424      1.0  0.45206  0.94212  0.97870  1.0000
  H   H351      1.0  0.44762  0.86384  0.86247  1.0000
  H   H352      1.0  0.37679  0.86925  0.88207  1.0000
  C   C425      1.0  0.07115  0.61161  0.82267  1.0000
  C   C426      1.0  0.26443  0.51191  0.90412  1.0000
  H   H353      1.0  0.13489  0.53572  0.84301  1.0000
  C   C427      1.0  0.44673  0.97880  0.75858  1.0000
  H   H354      1.0  0.29906  0.55676  0.75500  1.0000
  C   C428      1.0  0.25624  0.53024  0.70092  1.0000
  C   C429      1.0  0.31793  0.56320  0.77159  1.0000
  C   C430      1.0  0.25226  0.69633  0.95658  1.0000
  H   H355      1.0  0.07254  0.53777  0.91909  1.0000
  C   C431      1.0  0.04619  0.54424  0.91119  1.0000
  C   C432      1.0  0.07264  0.51801  0.74059  1.0000
  H   H356      1.0  0.24975  0.59024  0.79995  1.0000
  C   C433      1.0  0.46199  0.88872  0.85968  1.0000
  C   C434      1.0  0.24394  0.53569  0.88817  1.0000
  H   H357      1.0  0.34202  0.70057  0.96363  1.0000
  C   C435      1.0  0.43795  0.72726  0.97439  1.0000
  H   H358      1.0  0.38449  0.94299  0.71436  1.0000
  S   S61       1.0  0.11863  0.52630  0.98329  1.0000
  C   C436      1.0  0.33968  0.55639  0.81987  1.0000
  C   C437      1.0  0.28770  0.68529  0.95735  1.0000
  H   H359      1.0  0.48202  0.81948  0.78562  1.0000
  C   C438      1.0  0.31492  0.71001  0.96223  1.0000
  H   H360      1.0  0.25378  0.61903  0.68654  1.0000
  H   H361      1.0  0.04609  0.54544  0.97828  1.0000
  C   C439      1.0  0.05821  0.61184  0.79476  1.0000
  C   C440      1.0  0.34591  0.58672  0.76550  1.0000
  C   C441      1.0  0.04315  0.58096  0.78323  1.0000
  H   H362      1.0  0.05209  0.60033  0.91905  1.0000
  C   C442      1.0  0.41334  0.94625  0.93729  1.0000
  C   C443      1.0  0.06901  0.58052  0.83905  1.0000
  C   C444      1.0  0.40682  0.74458  0.96580  1.0000
  C   C445      1.0  0.31452  0.54786  0.79882  1.0000
  C   C446      1.0  0.20189  0.58577  0.77519  1.0000
  C   C447      1.0  0.08610  0.51231  0.71324  1.0000
  C   C448      1.0  0.41847  0.97716  0.73923  1.0000
  H   H363      1.0  0.15570  0.57331  0.74975  1.0000
  C   C449      1.0  0.37075  0.59514  0.78658  1.0000
  C   C450      1.0  0.36764  0.57995  0.81373  1.0000
  C   C451      1.0  0.47380  0.82775  0.98150  1.0000
  C   C452      1.0  0.02363  0.51726  0.90148  1.0000
  C   C453      1.0  0.15846  0.50685  0.87805  1.0000
  C   C454      1.0  0.47578  0.90620  0.88346  1.0000
  H   H364      1.0  0.16661  0.50830  0.75043  1.0000
  S   S62       1.0  0.20508  0.53599  0.98023  1.0000
  C   C455      1.0  0.49778  0.81180  0.96249  1.0000
  P   P14       1.0  0.34133  0.77776  0.97536  1.0000
  C   C456      1.0  0.35196  0.80691  0.94569  1.0000
  C   C457      1.0  0.30681  0.74613  0.96632  1.0000
  C   C458      1.0  0.27113  0.75712  0.96502  1.0000
  C   C459      1.0  0.24398  0.73227  0.96023  1.0000
  C   C460      1.0  0.25353  0.56687  0.70555  1.0000
  C   C461      1.0  0.32755  0.81276  0.92353  1.0000
  C   C462      1.0  0.33645  0.83533  0.90073  1.0000
  H   H365      1.0  0.40434  0.82003  0.96156  1.0000
  C   C463      1.0  0.17857  0.56281  0.76101  1.0000
  C   C464      1.0  0.38519  0.82410  0.94469  1.0000
  H   H366      1.0  0.33786  0.54509  0.84107  1.0000
  C   C465      1.0  0.21409  0.51234  0.77595  1.0000
  C   C466      1.0  0.03470  0.57958  0.91098  1.0000
  H   H367      1.0  0.31757  0.83966  0.88363  1.0000
  H   H368      1.0  0.40329  0.75100  0.94347  1.0000
  H   H369      1.0  0.08328  0.63533  0.83154  1.0000
  H   H370      1.0  0.11081  0.52485  0.70675  1.0000
  H   H371      1.0  0.19694  0.61419  0.77514  1.0000
  C   C467      1.0  0.46839  0.90222  0.83227  1.0000
  C   C468      1.0  0.36977  0.85205  0.89984  1.0000
  H   H372      1.0  0.21643  0.74065  0.96008  1.0000
  C   C469      1.0  0.40597  0.94423  0.72974  1.0000
  C   C470      1.0  0.46375  0.81995  0.74175  1.0000
  H   H373      1.0  0.46215  0.88986  0.76596  1.0000
  C   C471      1.0  0.47760  0.92217  0.67819  1.0000
  C   C472      1.0  0.49590  0.93723  0.87987  1.0000
  H   H374      1.0  0.23034  0.55505  0.84673  1.0000
  H   H375      1.0  0.45057  0.91234  0.68053  1.0000
  C   C473      1.0  0.39416  0.84635  0.92182  1.0000
  H   H376      1.0  0.42022  0.85883  0.92119  1.0000
  H   H377      1.0  0.36064  0.67249  0.67626  1.0000
  C   C474      1.0  0.46264  0.94743  0.76891  1.0000
  H   H378      1.0  0.29384  0.65722  0.95534  1.0000
  P   P15       1.0  0.02256  0.50913  0.78426  1.0000
  H   H379      1.0  0.05293  0.52599  0.84090  1.0000
  H   H380      1.0  0.43858  0.83208  0.74691  1.0000
  C   C475      1.0  0.18470  0.52614  0.76139  1.0000
  C   C476      1.0  0.23176  0.57210  0.78924  1.0000
  S   S63       1.0  0.17266  0.50126  0.67967  1.0000
  H   H381      1.0  0.32453  0.61962  0.66403  1.0000
  H   H382      1.0  0.46755  0.96425  0.93784  1.0000
  H   H383      1.0  0.41251  0.88734  0.73174  1.0000
  P   P16       1.0  0.27785  0.51787  0.80639  1.0000
  H   H384      1.0  0.45863  0.88737  0.81426  1.0000
  C   C477      1.0  0.42164  0.91289  0.73969  1.0000
  H   H385      1.0  0.07992  0.58000  0.86046  1.0000
  C   C478      1.0  0.25664  0.59075  0.68272  1.0000
  H   H386      1.0  0.45717  0.84940  0.97421  1.0000
  C   C479      1.0  0.04079  0.54953  0.79957  1.0000
  H   H387      1.0  0.35937  0.92807  0.94342  1.0000
  H   H388      1.0  0.23119  0.67677  0.95392  1.0000
  H   H389      1.0  0.34839  0.59842  0.74442  1.0000
  H   H390      1.0  0.22483  0.55263  0.89880  1.0000
  C   C480      1.0  0.23825  0.53525  0.78950  1.0000
  H   H391      1.0  0.06032  0.63584  0.78193  1.0000
  H   H392      1.0  0.45844  0.72130  0.95890  1.0000
  C   C481      1.0  0.27176  0.51497  0.84458  1.0000
  C   C482      1.0  0.44645  0.95186  0.95012  1.0000
  C   C483      1.0  0.14830  0.51152  0.84936  1.0000
  C   C484      1.0  0.44968  0.91444  0.75926  1.0000
  H   H393      1.0  0.03422  0.58136  0.76130  1.0000
  C   C485      1.0  0.24724  0.53700  0.85851  1.0000
  H   H394      1.0  0.08773  0.53442  0.75512  1.0000
  C   C486      1.0  0.26188  0.51749  0.67340  1.0000
  C   C487      1.0  0.31758  0.64525  0.65498  1.0000
  C   C488      1.0  0.48858  0.93349  0.82844  1.0000
  C   C489      1.0  0.48829  0.81263  0.76385  1.0000
  H   H395      1.0  0.26112  0.51053  0.92704  1.0000
  C   C490      1.0  0.26213  0.57810  0.65496  1.0000
  H   H396      1.0  0.34726  0.73112  0.65433  1.0000
  C   C491      1.0  0.00073  0.58804  0.90086  1.0000
  S   S64       1.0  0.49764  0.82538  0.92616  1.0000
  C   C492      1.0  0.04051  0.50189  0.74906  1.0000
  H   H397      1.0  0.49832  0.87053  0.66759  1.0000
  H   H398      1.0  0.82861  0.48575  0.06326  1.0000
  Fe  Fe33      1.0  0.79249  0.36242  0.25025  1.0000
  S   S65       1.0  0.77367  0.41580  0.23344  1.0000
  S   S66       1.0  0.75937  0.31090  0.25525  1.0000
  Fe  Fe34      1.0  0.87087  0.38840  0.25388  1.0000
  S   S67       1.0  0.85733  0.44299  0.23786  1.0000
  S   S68       1.0  0.92579  0.37766  0.27243  1.0000
  Fe  Fe35      1.0  0.81014  0.43889  0.26713  1.0000
  H   H399      1.0  0.55486  0.18922  0.00323  1.0000
  Fe  Fe36      1.0  0.82268  0.41582  0.20534  1.0000
  S   S69       1.0  0.83107  0.42786  0.15759  1.0000
  S   S70       1.0  0.82560  0.38595  0.28529  1.0000
  S   S71       1.0  0.83935  0.36072  0.21990  1.0000
  H   H400      1.0  0.61433  0.22701  0.17850  1.0000
  C   C493      1.0  0.96566  0.37503  0.25246  1.0000
  C   C494      1.0  0.96545  0.36932  0.22305  1.0000
  S   S72       1.0  0.50154  0.16264  0.17534  1.0000
  H   H401      1.0  0.94036  0.36658  0.21195  1.0000
  C   C495      1.0  0.97553  0.39103  0.12385  1.0000
  C   C496      1.0  0.91718  0.49420  0.06392  1.0000
  C   C497      1.0  0.81496  0.46031  0.13283  1.0000
  H   H402      1.0  0.53131  0.34712  0.15870  1.0000
  H   H403      1.0  0.81294  0.43459  0.01788  1.0000
  C   C498      1.0  0.52479  0.25183  0.25696  1.0000
  C   C499      1.0  0.55257  0.26600  0.31096  1.0000
  H   H404      1.0  0.69487  0.37419  0.24068  1.0000
  H   H405      1.0  0.66060  0.27524  0.20504  1.0000
  C   C500      1.0  0.95489  0.38051  0.00216  1.0000
  H   H406      1.0  0.70595  0.32212  0.21008  1.0000
  H   H407      1.0  0.61578  0.21401  0.27001  1.0000
  C   C501      1.0  0.95504  0.40683  0.10243  1.0000
  C   C502      1.0  0.71075  0.31716  0.30030  1.0000
  H   H408      1.0  0.55130  0.17031  0.27142  1.0000
  H   H409      1.0  0.55451  0.17035  0.21882  1.0000
  H   H410      1.0  0.90912  0.48695  0.13026  1.0000
  C   C503      1.0  0.71430  0.25959  0.27789  1.0000
  C   C504      1.0  0.72599  0.29527  0.27960  1.0000
  H   H411      1.0  0.87663  0.45145  0.01605  1.0000
  C   C505      1.0  0.96599  0.49050  0.13683  1.0000
  H   H412      1.0  0.72563  0.24240  0.26186  1.0000
  H   H413      1.0  0.56958  0.33370  0.20000  1.0000
  C   C506      1.0  0.82980  0.46136  0.10529  1.0000
  C   C507      1.0  0.78778  0.48434  0.13939  1.0000
  C   C508      1.0  0.96492  0.40372  0.07371  1.0000
  H   H414      1.0  0.59316  0.10719  0.23815  1.0000
  C   C509      1.0  0.95238  0.41614  0.01087  1.0000
  C   C510      1.0  0.52197  0.25701  0.15998  1.0000
  C   C511      1.0  0.63935  0.17979  0.19458  1.0000
  C   C512      1.0  0.64904  0.16021  0.21875  1.0000
  C   C513      1.0  0.64034  0.17273  0.24583  1.0000
  C   C514      1.0  0.62171  0.20468  0.24877  1.0000
  C   C515      1.0  0.61127  0.22423  0.22459  1.0000
  C   C516      1.0  0.62089  0.21187  0.19746  1.0000
  P   P17       1.0  0.58874  0.26641  0.22863  1.0000
  C   C517      1.0  0.62208  0.30091  0.23249  1.0000
  C   C518      1.0  0.61550  0.33116  0.24919  1.0000
  C   C519      1.0  0.64163  0.35755  0.25214  1.0000
  C   C520      1.0  0.67414  0.35434  0.23792  1.0000
  C   C521      1.0  0.68044  0.32485  0.22067  1.0000
  C   C522      1.0  0.65468  0.29814  0.21807  1.0000
  C   C523      1.0  0.56127  0.27659  0.19800  1.0000
  C   C524      1.0  0.54357  0.24925  0.18340  1.0000
  H   H415      1.0  0.68043  0.21808  0.29559  1.0000
  C   C525      1.0  0.92486  0.46153  0.16940  1.0000
  C   C526      1.0  0.53472  0.31978  0.16562  1.0000
  C   C527      1.0  0.55653  0.31203  0.18901  1.0000
  H   H416      1.0  0.64636  0.17024  0.17358  1.0000
  H   H417      1.0  0.66359  0.13551  0.21654  1.0000
  C   C528      1.0  0.50333  0.24793  0.28113  1.0000
  C   C529      1.0  0.57469  0.08821  0.24744  1.0000
  H   H418      1.0  0.87199  0.32350  0.31371  1.0000
  H   H419      1.0  0.89908  0.37128  0.07995  1.0000
  P   P18       1.0  0.93893  0.42630  0.04681  1.0000
  C   C530      1.0  0.99606  0.38510  0.06676  1.0000
  H   H420      1.0  0.71897  0.34471  0.30169  1.0000
  C   C531      1.0  0.82029  0.39411  0.04993  1.0000
  H   H421      1.0  0.83556  0.35592  0.08203  1.0000
  C   C532      1.0  0.51130  0.38460  0.24558  1.0000
  C   C533      1.0  0.52133  0.05215  0.24375  1.0000
  H   H422      1.0  0.99550  0.45196  0.27601  1.0000
  C   C534      1.0  0.56036  0.26304  0.25963  1.0000
  H   H423      1.0  0.54171  0.08569  0.20999  1.0000
  H   H424      1.0  0.60191  0.27687  0.28975  1.0000
  C   C535      1.0  0.68851  0.24570  0.29695  1.0000
  C   C536      1.0  0.55448  0.05348  0.28802  1.0000
  H   H425      1.0  0.89113  0.48292  0.06755  1.0000
  C   C537      1.0  0.52448  0.04163  0.03756  1.0000
  H   H426      1.0  0.63701  0.38020  0.26580  1.0000
  C   C538      1.0  0.52547  0.04069  0.27216  1.0000
  H   H427      1.0  0.85090  0.44310  0.10003  1.0000
  C   C539      1.0  0.51754  0.29224  0.15105  1.0000
  C   C540      1.0  0.57915  0.07680  0.27557  1.0000
  C   C541      1.0  0.57416  0.26976  0.28688  1.0000
  H   H428      1.0  0.95025  0.35902  0.01723  1.0000
  C   C542      1.0  0.52789  0.16399  0.25916  1.0000
  C   C543      1.0  0.98793  0.46231  0.17993  1.0000
  C   C544      1.0  0.54574  0.07596  0.23156  1.0000
  C   C545      1.0  0.95318  0.45232  0.18718  1.0000
  C   C546      1.0  0.52952  0.16451  0.22924  1.0000
  C   C547      1.0  0.83199  0.42078  0.03124  1.0000
  C   C548      1.0  0.89256  0.41348  0.04849  1.0000
  H   H429      1.0  0.59048  0.33419  0.26026  1.0000
  C   C549      1.0  0.93123  0.48046  0.14418  1.0000
  H   H430      1.0  0.64825  0.15786  0.26465  1.0000
  H   H431      1.0  0.54634  0.22182  0.19011  1.0000
  H   H432      1.0  0.95283  0.47114  0.99629  1.0000
  H   H433      1.0  0.50080  0.29802  0.13284  1.0000
  H   H434      1.0  0.93130  0.42139  0.10827  1.0000
  C   C550      1.0  0.86800  0.43038  0.03042  1.0000
  H   H435      1.0  0.60142  0.08650  0.28802  1.0000
  H   H436      1.0  0.89797  0.45375  0.17513  1.0000
  H   H437      1.0  0.79223  0.38747  0.05116  1.0000
  S   S73       1.0  0.79757  0.48652  0.29511  1.0000
  H   H438      1.0  0.77603  0.48395  0.16043  1.0000
  C   C551      1.0  0.84472  0.37640  0.06734  1.0000
  H   H439      1.0  0.54719  0.05067  0.04980  1.0000
  H   H440      1.0  0.94805  0.43754  0.20667  1.0000
  C   C552      1.0  0.94530  0.47305  0.05413  1.0000
  C   C553      1.0  0.88080  0.38568  0.06640  1.0000
  C   C554      1.0  0.50619  0.34772  0.24558  1.0000
  H   H441      1.0  0.51372  0.24479  0.23649  1.0000
  H   H442      1.0  0.84309  0.27451  0.28705  1.0000
  C   C555      1.0  0.49900  0.15792  0.21286  1.0000
  H   H443      1.0  0.50857  0.23551  0.14885  1.0000
  C   C556      1.0  0.67355  0.26748  0.31785  1.0000
  H   H444      1.0  0.99741  0.36101  0.18550  1.0000
  C   C557      1.0  0.51723  0.25491  0.30812  1.0000
  C   C558      1.0  0.52412  0.00746  0.02578  1.0000
  C   C559      1.0  0.52996  0.17681  0.99724  1.0000
  C   C560      1.0  0.50371  0.17038  0.01831  1.0000
  H   H445      1.0  0.52388  0.33068  0.25766  1.0000
  C   C561      1.0  0.81735  0.48554  0.08442  1.0000
  C   C562      1.0  0.97912  0.48846  0.05042  1.0000
  H   H446      1.0  0.53321  0.39611  0.25745  1.0000
  H   H447      1.0  0.65717  0.48140  0.27202  1.0000
  C   C563      1.0  0.95646  0.44349  0.99055  1.0000
  H   H448      1.0  0.55791  0.04586  0.31015  1.0000
  C   C564      1.0  0.99779  0.36623  0.20810  1.0000
  H   H449      1.0  0.59049  0.01189  0.23179  1.0000
  H   H450      1.0  0.96764  0.39358  0.14596  1.0000
  H   H451      1.0  0.72110  0.48974  0.28337  1.0000
  H   H452      1.0  0.50857  0.17784  0.04019  1.0000
  C   C565      1.0  0.83141  0.28388  0.30674  1.0000
  C   C566      1.0  0.99445  0.48253  0.15515  1.0000
  C   C567      1.0  0.99847  0.37780  0.26670  1.0000
  H   H453      1.0  0.83675  0.35782  0.99138  1.0000
  H   H454      1.0  0.78632  0.24851  0.30427  1.0000
  H   H455      1.0  0.88746  0.46069  0.31655  1.0000
  C   C568      1.0  0.79939  0.26920  0.31649  1.0000
  H   H456      1.0  0.49898  0.04358  0.23099  1.0000
  Fe  Fe37      1.0  0.60598  0.11581  0.35286  1.0000
  S   S74       1.0  0.55018  0.11623  0.36933  1.0000
  S   S75       1.0  0.63367  0.06356  0.34227  1.0000
  Fe  Fe38      1.0  0.61173  0.19820  0.35152  1.0000
  S   S76       1.0  0.55561  0.20339  0.36882  1.0000
  H   H457      1.0  0.90068  0.47780  0.59001  1.0000
  Fe  Fe39      1.0  0.56852  0.15879  0.39949  1.0000
  S   S77       1.0  0.55989  0.15268  0.44793  1.0000
  H   H458      1.0  0.86978  0.45648  0.54726  1.0000
  S   S78       1.0  0.62580  0.15632  0.38451  1.0000
  H   H459      1.0  0.90218  0.45108  0.50142  1.0000
  C   C569      1.0  0.81119  0.34452  0.41194  1.0000
  C   C570      1.0  0.99392  0.47589  0.42887  1.0000
  C   C571      1.0  0.81257  0.45269  0.34619  1.0000
  C   C572      1.0  0.81663  0.45163  0.37595  1.0000
  C   C573      1.0  0.84761  0.31153  0.32180  1.0000
  H   H460      1.0  0.82123  0.42642  0.38644  1.0000
  H   H461      1.0  0.68050  0.41622  0.39917  1.0000
  H   H462      1.0  0.69058  0.44527  0.35215  1.0000
  H   H463      1.0  0.78228  0.39161  0.42524  1.0000
  C   C574      1.0  0.74950  0.36527  0.37574  1.0000
  H   H464      1.0  0.54726  0.05788  0.47397  1.0000
  C   C575      1.0  0.81422  0.48287  0.39211  1.0000
  C   C576      1.0  0.61534  0.02165  0.35225  1.0000
  C   C577      1.0  0.97143  0.44850  0.41913  1.0000
  H   H465      1.0  0.60332  0.22175  0.61358  1.0000
  C   C578      1.0  0.52690  0.15102  0.50048  1.0000
  C   C579      1.0  0.53265  0.07788  0.64965  1.0000
  C   C580      1.0  0.94345  0.45709  0.32768  1.0000
  C   C581      1.0  0.80540  0.45725  0.60221  1.0000
  C   C582      1.0  0.81670  0.46065  0.63071  1.0000
  C   C583      1.0  0.53759  0.09605  0.62388  1.0000
  C   C584      1.0  0.91626  0.45946  0.52038  1.0000
  H   H466      1.0  0.79160  0.43325  0.59580  1.0000
  S   S79       1.0  0.81668  0.47988  0.42975  1.0000
  C   C585      1.0  0.86899  0.33708  0.43457  1.0000
  H   H467      1.0  0.71798  0.36564  0.41436  1.0000
  H   H468      1.0  0.55264  0.14270  0.50832  1.0000
  C   C586      1.0  0.58272  0.01900  0.36645  1.0000
  C   C587      1.0  0.72580  0.49420  0.41513  1.0000
  H   H469      1.0  0.84710  0.30059  0.40414  1.0000
  C   C588      1.0  0.55986  0.00203  0.46641  1.0000
  C   C589      1.0  0.54651  0.07737  0.59926  1.0000
  H   H470      1.0  0.73736  0.46788  0.41349  1.0000
  H   H471      1.0  0.84364  0.34725  0.35711  1.0000
  H   H472      1.0  0.99662  0.44416  0.34226  1.0000
  C   C590      1.0  0.89801  0.46242  0.54620  1.0000
  C   C591      1.0  0.61576  0.03008  0.43304  1.0000
  C   C592      1.0  0.91996  0.47989  0.43703  1.0000
  C   C593      1.0  0.60537  0.16730  0.62816  1.0000
  H   H473      1.0  0.75389  0.23315  0.45813  1.0000
  C   C594      1.0  0.91578  0.47430  0.57054  1.0000
  H   H474      1.0  0.98024  0.38517  0.36118  1.0000
  C   C595      1.0  0.75456  0.38150  0.34902  1.0000
  H   H475      1.0  0.50095  0.25048  0.32690  1.0000
  P   P19       1.0  0.77766  0.32892  0.38721  1.0000
  H   H476      1.0  0.91720  0.42976  0.41520  1.0000
  C   C596      1.0  0.70676  0.42283  0.35866  1.0000
  C   C597      1.0  0.72244  0.37784  0.39368  1.0000
  C   C598      1.0  0.55087  0.04043  0.60050  1.0000
  C   C599      1.0  0.69529  0.26168  0.40793  1.0000
  C   C600      1.0  0.95211  0.48330  0.56928  1.0000
  C   C601      1.0  0.92473  0.39033  0.35075  1.0000
  H   H477      1.0  0.79088  0.27954  0.43546  1.0000
  C   C602      1.0  0.70889  0.24190  0.43068  1.0000
  H   H478      1.0  0.63649  0.04088  0.41934  1.0000
  C   C603      1.0  0.93458  0.45056  0.42318  1.0000
  C   C604      1.0  0.56467  0.03914  0.46361  1.0000
  H   H479      1.0  0.89141  0.48178  0.43988  1.0000
  H   H480      1.0  0.66865  0.25625  0.40015  1.0000
  C   C605      1.0  0.83236  0.38768  0.44653  1.0000
  C   C606      1.0  0.53711  0.04073  0.65117  1.0000
  H   H481      1.0  0.80181  0.48184  0.56040  1.0000
  C   C607      1.0  0.78331  0.28226  0.34117  1.0000
  H   H482      1.0  0.77488  0.37220  0.33458  1.0000
  H   H483      1.0  0.69270  0.22125  0.44054  1.0000
  H   H484      1.0  0.91760  0.36417  0.35882  1.0000
  H   H485      1.0  0.81354  0.42839  0.33417  1.0000
  H   H486      1.0  0.60917  0.11604  0.64869  1.0000
  C   C608      1.0  0.95239  0.46824  0.51893  1.0000
  C   C609      1.0  0.94392  0.45121  0.63539  1.0000
  C   C610      1.0  0.89880  0.41191  0.33830  1.0000
  C   C611      1.0  0.95996  0.40213  0.35202  1.0000
  C   C612      1.0  0.86381  0.36842  0.44993  1.0000
  C   C613      1.0  0.61212  0.14457  0.65119  1.0000
  C   C614      1.0  0.80606  0.48493  0.33220  1.0000
  C   C615      1.0  0.83461  0.49188  0.63860  1.0000
  S   S80       1.0  0.59684  0.15732  0.31867  1.0000
  C   C616      1.0  0.71610  0.28811  0.39491  1.0000
  C   C617      1.0  0.83151  0.32482  0.34640  1.0000
  H   H487      1.0  0.75790  0.27120  0.34767  1.0000
  C   C618      1.0  0.81119  0.48478  0.58203  1.0000
  H   H488      1.0  0.94339  0.43398  0.61697  1.0000
  H   H489      1.0  0.82833  0.41207  0.45837  1.0000
  C   C619      1.0  0.97024  0.48026  0.54321  1.0000
  H   H490      1.0  0.70517  0.30274  0.37706  1.0000
  C   C620      1.0  0.90803  0.44506  0.32665  1.0000
  C   C621      1.0  0.96922  0.43553  0.34090  1.0000
  H   H491      1.0  0.88405  0.37780  0.46455  1.0000
  H   H492      1.0  0.55772  0.02595  0.58137  1.0000
  C   C622      1.0  0.54616  0.02212  0.62631  1.0000
  C   C623      1.0  0.75077  0.29508  0.40460  1.0000
  H   H493      1.0  0.53380  0.12470  0.62303  1.0000
  Fe  Fe40      1.0  0.54203  0.16028  0.33736  1.0000
  C   C624      1.0  0.80611  0.37582  0.42767  1.0000
  H   H494      1.0  0.98190  0.42579  0.40802  1.0000
  S   S81       1.0  0.64136  0.25146  0.34306  1.0000
  H   H495      1.0  0.89326  0.32196  0.43736  1.0000
  H   H496      1.0  0.96640  0.46652  0.49882  1.0000
  C   C625      1.0  0.70116  0.40650  0.38514  1.0000
  H   H497      1.0  0.59715  0.15643  0.60784  1.0000
  H   H498      1.0  0.59516  0.08160  0.44417  1.0000
  H   H499      1.0  0.56787  0.04273  0.37131  1.0000
  C   C626      1.0  0.74335  0.24860  0.44051  1.0000
  C   C627      1.0  0.79949  0.30993  0.35654  1.0000
  C   C628      1.0  0.52254  0.15781  0.47112  1.0000
  C   C629      1.0  0.59229  0.05298  0.44683  1.0000
  C   C630      1.0  0.60890  0.20412  0.63138  1.0000
  H   H500      1.0  0.54967  0.09151  0.57919  1.0000
  C   C631      1.0  0.84278  0.32509  0.41572  1.0000
  C   C632      1.0  0.73341  0.41028  0.34060  1.0000
  C   C633      1.0  0.76427  0.27504  0.42753  1.0000
  C   C634      1.0  0.95607  0.48657  0.63309  1.0000
  H   H501      1.0  0.67280  0.32083  0.33473  1.0000
  H   H502      1.0  0.72535  0.49352  0.46098  1.0000
  H   H503      1.0  0.56373  0.27054  0.33194  1.0000
  H   H504      1.0  0.87169  0.40246  0.33678  1.0000
  C   C635      1.0  0.68454  0.30343  0.31906  1.0000
  H   H505      1.0  0.99785  0.48808  0.54129  1.0000
  H   H506      1.0  0.50238  0.15011  0.54231  1.0000
  H   H507      1.0  0.73808  0.42310  0.32016  1.0000
  Fe  Fe41      1.0  0.60424  0.11904  0.85139  1.0000
  S   S82       1.0  0.54831  0.11944  0.86821  1.0000
  S   S83       1.0  0.63679  0.07021  0.83938  1.0000
  Fe  Fe42      1.0  0.60863  0.20135  0.84491  1.0000
  S   S84       1.0  0.55217  0.20678  0.86101  1.0000
  S   S85       1.0  0.63586  0.25483  0.83347  1.0000
  Fe  Fe43      1.0  0.56597  0.16626  0.89491  1.0000
  H   H508      1.0  0.74219  0.16018  0.76280  1.0000
  Fe  Fe44      1.0  0.53929  0.15983  0.83311  1.0000
  H   H509      1.0  0.51291  0.25576  0.71993  1.0000
  S   S86       1.0  0.62335  0.16322  0.88023  1.0000
  S   S87       1.0  0.59420  0.15717  0.81498  1.0000
  Fe  Fe45      1.0  0.79857  0.36437  0.75234  1.0000
  S   S88       1.0  0.77291  0.41488  0.73599  1.0000
  S   S89       1.0  0.77179  0.31025  0.76238  1.0000
  Fe  Fe46      1.0  0.87445  0.39729  0.74772  1.0000
  S   S90       1.0  0.85352  0.44937  0.73105  1.0000
  S   S91       1.0  0.93194  0.39441  0.76316  1.0000
  Fe  Fe47      1.0  0.81166  0.44321  0.76507  1.0000
  C   C636      1.0  0.96404  0.43536  0.96217  1.0000
  Fe  Fe48      1.0  0.81735  0.41699  0.70329  1.0000
  P   P20       1.0  0.53127  0.01767  0.68486  1.0000
  S   S92       1.0  0.83434  0.39300  0.78330  1.0000
  S   S93       1.0  0.84093  0.36457  0.71792  1.0000
  H   H510      1.0  0.85642  0.47751  0.92112  1.0000
  C   C637      1.0  0.97189  0.38743  0.74396  1.0000
  H   H511      1.0  0.52519  0.09305  0.66832  1.0000
  H   H512      1.0  0.94712  0.37113  0.70484  1.0000
  H   H513      1.0  0.81779  0.40846  0.96064  1.0000
  C   C638      1.0  0.71379  0.15831  0.75909  1.0000
  C   C639      1.0  0.51000  0.05489  0.81293  1.0000
  H   H514      1.0  0.73649  0.27904  0.66753  1.0000
  C   C640      1.0  0.78415  0.45670  0.84188  1.0000
  C   C641      1.0  0.77645  0.45507  0.87121  1.0000
  H   H515      1.0  0.78195  0.43301  0.82896  1.0000
  H   H516      1.0  0.76848  0.43000  0.88059  1.0000
  C   C642      1.0  0.66002  0.18180  0.73724  1.0000
  C   C643      1.0  0.69703  0.18323  0.74138  1.0000
  C   C644      1.0  0.86874  0.46671  0.87717  1.0000
  C   C645      1.0  0.71618  0.28001  0.68390  1.0000
  S   S94       1.0  0.80361  0.49239  0.79241  1.0000
  H   H517      1.0  0.88431  0.46348  0.83325  1.0000
  H   H518      1.0  0.57903  0.02101  0.86028  1.0000
  S   S95       1.0  0.76966  0.48205  0.92532  1.0000
  C   C646      1.0  0.67382  0.26937  0.81347  1.0000
  C   C647      1.0  0.69633  0.24575  0.79926  1.0000
  C   C648      1.0  0.72600  0.25880  0.78377  1.0000
  C   C649      1.0  0.73376  0.29557  0.78229  1.0000
  C   C650      1.0  0.71121  0.31918  0.79649  1.0000
  C   C651      1.0  0.68144  0.30614  0.81185  1.0000
  H   H519      1.0  0.69096  0.21744  0.80030  1.0000
  H   H520      1.0  0.74326  0.24027  0.77297  1.0000
  H   H521      1.0  0.71668  0.34747  0.79554  1.0000
  H   H522      1.0  0.66415  0.32471  0.82259  1.0000
  C   C652      1.0  0.63352  0.02346  0.84585  1.0000
  C   C653      1.0  0.52430  0.16746  0.96853  1.0000
  H   H523      1.0  0.68410  0.45859  0.91863  1.0000
  H   H524      1.0  0.64639  0.28332  0.74473  1.0000
  H   H525      1.0  0.55557  0.08933  0.80831  1.0000
  C   C654      1.0  0.97206  0.37584  0.71571  1.0000
  H   H526      1.0  0.68749  0.33363  0.73719  1.0000
  H   H527      1.0  0.55416  0.16088  0.71268  1.0000
  H   H528      1.0  0.56641  0.23603  0.69479  1.0000
  C   C655      1.0  0.59804  0.22929  0.73315  1.0000
  C   C656      1.0  0.56733  0.23837  0.71771  1.0000
  C   C657      1.0  0.79428  0.48904  0.82929  1.0000
  C   C658      1.0  0.87045  0.48656  0.90220  1.0000
  C   C659      1.0  0.56707  0.24360  0.77709  1.0000
  C   C660      1.0  0.59771  0.23220  0.76296  1.0000
  H   H529      1.0  0.71302  0.20401  0.73163  1.0000
  H   H530      1.0  0.62694  0.14060  0.69505  1.0000
  C   C661      1.0  0.69384  0.13159  0.77256  1.0000
  C   C662      1.0  0.96270  0.37243  0.97376  1.0000
  C   C663      1.0  0.68838  0.31092  0.72306  1.0000
  H   H531      1.0  0.90020  0.45974  0.78266  1.0000
  H   H532      1.0  0.56708  0.24566  0.80012  1.0000
  H   H533      1.0  0.62118  0.22585  0.77537  1.0000
  C   C664      1.0  0.71405  0.30976  0.70156  1.0000
  C   C665      1.0  0.66509  0.28220  0.72723  1.0000
  H   H534      1.0  0.52637  0.05008  0.74215  1.0000
  C   C666      1.0  0.81622  0.35392  0.97548  1.0000
  H   H535      1.0  0.70539  0.40063  0.93622  1.0000
  C   C667      1.0  0.65716  0.12955  0.76812  1.0000
  P   P21       1.0  0.63774  0.21443  0.71509  1.0000
  H   H536      1.0  0.96470  0.45618  0.79010  1.0000
  C   C668      1.0  0.80557  0.38241  0.95823  1.0000
  S   S96       1.0  0.80741  0.42520  0.65530  1.0000
  C   C669      1.0  0.54497  0.06282  0.80506  1.0000
  C   C670      1.0  0.77432  0.31527  0.95127  1.0000
  C   C671      1.0  0.76266  0.34400  0.93445  1.0000
  C   C672      1.0  0.77926  0.37740  0.93758  1.0000
  P   P22       1.0  0.72983  0.33648  0.90693  1.0000
  C   C673      1.0  0.75356  0.31459  0.87855  1.0000
  C   C674      1.0  0.69255  0.31028  0.91971  1.0000
  C   C675      1.0  0.68576  0.30645  0.94902  1.0000
  C   C676      1.0  0.65723  0.28538  0.95852  1.0000
  C   C677      1.0  0.63497  0.26848  0.93888  1.0000
  C   C678      1.0  0.64081  0.27327  0.90973  1.0000
  C   C679      1.0  0.66921  0.29437  0.90015  1.0000
  C   C680      1.0  0.74926  0.27793  0.87358  1.0000
  C   C681      1.0  0.76764  0.26159  0.85132  1.0000
  C   C682      1.0  0.79086  0.28151  0.83422  1.0000
  C   C683      1.0  0.79592  0.31776  0.83945  1.0000
  C   C684      1.0  0.77761  0.33423  0.86168  1.0000
  C   C685      1.0  0.71089  0.37776  0.89421  1.0000
  C   C686      1.0  0.70501  0.38337  0.86497  1.0000
  C   C687      1.0  0.69221  0.41615  0.85514  1.0000
  C   C688      1.0  0.68475  0.44335  0.87443  1.0000
  C   C689      1.0  0.68919  0.43742  0.90363  1.0000
  C   C690      1.0  0.70172  0.40459  0.91354  1.0000
  H   H537      1.0  0.58192  0.07689  0.69269  1.0000
  H   H538      1.0  0.76304  0.28891  0.94834  1.0000
  H   H539      1.0  0.77224  0.39972  0.92411  1.0000
  H   H540      1.0  0.70231  0.31968  0.96459  1.0000
  H   H541      1.0  0.99187  0.47781  0.83636  1.0000
  H   H542      1.0  0.61310  0.25171  0.94615  1.0000
  H   H543      1.0  0.62338  0.26036  0.89450  1.0000
  H   H544      1.0  0.67323  0.29779  0.87743  1.0000
  H   H545      1.0  0.73159  0.26185  0.88658  1.0000
  H   H546      1.0  0.76331  0.23360  0.84690  1.0000
  H   H547      1.0  0.80425  0.26914  0.81637  1.0000
  H   H548      1.0  0.81347  0.33318  0.82577  1.0000
  H   H549      1.0  0.78174  0.36242  0.86536  1.0000
  H   H550      1.0  0.71075  0.36273  0.84968  1.0000
  H   H551      1.0  0.68882  0.42064  0.83248  1.0000
  H   H552      1.0  0.63767  0.08239  0.71995  1.0000
  H   H553      1.0  0.85335  0.44224  0.87661  1.0000
  H   H554      1.0  0.64173  0.10908  0.77899  1.0000
  S   S97       1.0  0.55837  0.17703  0.94287  1.0000
  C   C691      1.0  0.77934  0.48549  0.88838  1.0000
  C   C692      1.0  0.50139  0.05377  0.73117  1.0000
  C   C693      1.0  0.56662  0.03631  0.79376  1.0000
  S   S98       1.0  0.50072  0.17152  0.66974  1.0000
  H   H555      1.0  0.59426  0.04223  0.78901  1.0000
  C   C694      1.0  0.66374  0.00324  0.83976  1.0000
  C   C695      1.0  0.52687  0.15835  0.75314  1.0000
  C   C696      1.0  0.57237  0.02182  0.70482  1.0000
  C   C697      1.0  0.69273  0.25135  0.68780  1.0000
  C   C698      1.0  0.62304  0.05747  0.72017  1.0000
  C   C699      1.0  0.66691  0.25226  0.70948  1.0000
  H   H556      1.0  0.96664  0.45672  0.94665  1.0000
  H   H557      1.0  0.96456  0.34490  0.96711  1.0000
  H   H558      1.0  0.92660  0.44765  0.70655  1.0000
  C   C700      1.0  0.62227  0.15865  0.67751  1.0000
  C   C701      1.0  0.55317  0.00191  0.78980  1.0000
  C   C702      1.0  0.53672  0.24966  0.73192  1.0000
  H   H559      1.0  0.73287  0.33157  0.69911  1.0000
  C   C703      1.0  0.60270  0.00576  0.85572  1.0000
  C   C704      1.0  0.52859  0.16096  0.72323  1.0000
  H   H560      1.0  0.97289  0.39359  0.93172  1.0000
  C   C705      1.0  0.62590  0.19564  0.68095  1.0000
  C   C706      1.0  0.64027  0.15458  0.75059  1.0000
  H   H561      1.0  0.61170  0.15309  0.74782  1.0000
  C   C707      1.0  0.93447  0.45868  0.68606  1.0000
  H   H562      1.0  0.68761  0.01636  0.83208  1.0000
  C   C708      1.0  0.53655  0.25220  0.76157  1.0000
  C   C709      1.0  0.61917  0.21827  0.65763  1.0000
  C   C710      1.0  0.95325  0.48159  0.78422  1.0000
  C   C711      1.0  0.91657  0.48330  0.77955  1.0000
  C   C712      1.0  0.63571  0.02879  0.73625  1.0000
  H   H563      1.0  0.70664  0.11275  0.78682  1.0000
  H   H564      1.0  0.55098  0.15606  0.76539  1.0000
  C   C713      1.0  0.96734  0.39985  0.95379  1.0000
  H   H565      1.0  0.84374  0.49489  0.66030  1.0000
  C   C714      1.0  0.59150  0.05410  0.70456  1.0000
  H   H566      1.0  0.65997  0.03155  0.74859  1.0000
  H   H567      1.0  0.67602  0.46913  0.86673  1.0000
  C   C715      1.0  0.88624  0.47880  0.85268  1.0000
  H   H568      1.0  0.62132  0.24692  0.65987  1.0000
  C   C716      1.0  0.94634  0.49392  0.68398  1.0000
  H   H569      1.0  0.69519  0.22824  0.67426  1.0000
  C   C717      1.0  0.93291  0.43748  0.66174  1.0000
  H   H570      1.0  0.92328  0.41026  0.66338  1.0000
  H   H571      1.0  0.51273  0.26062  0.77249  1.0000
  H   H572      1.0  0.65233  0.28199  0.98113  1.0000
  C   C718      1.0  0.80072  0.32032  0.97190  1.0000
  H   H573      1.0  0.80934  0.29808  0.98496  1.0000
  S   S99       1.0  0.55698  0.79425  0.27961  1.0000
  H   H574      1.0  0.54565  0.99467  0.19619  1.0000
  H   H575      1.0  0.51194  0.69690  0.07600  1.0000
  H   H576      1.0  0.61832  0.86962  0.11913  1.0000
  Fe  Fe49      1.0  0.79279  0.54771  0.01893  1.0000
  C   C719      1.0  0.51945  0.96123  0.12342  1.0000
  S   S100      1.0  0.83000  0.59326  0.00843  1.0000
  C   C720      1.0  0.57594  0.89305  0.14360  1.0000
  C   C721      1.0  0.55338  0.93775  0.20200  1.0000
  H   H577      1.0  0.86992  0.53899  0.21776  1.0000
  C   C722      1.0  0.54236  0.82672  0.13918  1.0000
  C   C723      1.0  0.57557  0.83228  0.12647  1.0000
  C   C724      1.0  0.60477  0.95800  0.24231  1.0000
  H   H578      1.0  0.99128  0.62787  0.02334  1.0000
  C   C725      1.0  0.52472  0.79065  0.22690  1.0000
  C   C726      1.0  0.87257  0.53235  0.26328  1.0000
  H   H579      1.0  0.97054  0.50438  0.11692  1.0000
  H   H580      1.0  0.55135  0.78580  0.21908  1.0000
  C   C727      1.0  0.50926  0.96044  0.15220  1.0000
  C   C728      1.0  0.50211  0.92086  0.02452  1.0000
  C   C729      1.0  0.59241  0.86541  0.12876  1.0000
  H   H581      1.0  0.51516  0.85461  0.08759  1.0000
  C   C730      1.0  0.58545  0.98396  0.22761  1.0000
  H   H582      1.0  0.54726  0.84520  0.04243  1.0000
  C   C731      1.0  0.51781  0.77336  0.00123  1.0000
  P   P23       1.0  0.95615  0.49998  0.31295  1.0000
  C   C732      1.0  0.57281  0.91182  0.21703  1.0000
  H   H583      1.0  0.99335  0.56028  0.14079  1.0000
  H   H584      1.0  0.84504  0.53977  0.26669  1.0000
  H   H585      1.0  0.54666  0.99004  0.02923  1.0000
  H   H586      1.0  0.93307  0.60005  0.01062  1.0000
  H   H587      1.0  0.75445  0.62962  0.01504  1.0000
  H   H588      1.0  0.61131  0.51448  0.29922  1.0000
  H   H589      1.0  0.53463  0.75203  0.00879  1.0000
  C   C733      1.0  0.56119  0.92682  0.30173  1.0000
  C   C734      1.0  0.55985  0.97398  0.20749  1.0000
  P   P24       1.0  0.52160  0.92378  0.17534  1.0000
  H   H590      1.0  0.96601  0.57685  0.31003  1.0000
  H   H591      1.0  0.64628  0.60695  0.99423  1.0000
  C   C735      1.0  0.68181  0.73900  0.99161  1.0000
  C   C736      1.0  0.64627  0.72762  0.99404  1.0000
  C   C737      1.0  0.99068  0.60386  0.01070  1.0000
  P   P25       1.0  0.63505  0.68305  0.00618  1.0000
  C   C738      1.0  0.67142  0.66331  0.02592  1.0000
  C   C739      1.0  0.59646  0.68649  0.02893  1.0000
  C   C740      1.0  0.59359  0.71501  0.04802  1.0000
  C   C741      1.0  0.56330  0.71849  0.06504  1.0000
  C   C742      1.0  0.53576  0.69349  0.06325  1.0000
  C   C743      1.0  0.53862  0.66475  0.04462  1.0000
  C   C744      1.0  0.56891  0.66114  0.02754  1.0000
  C   C745      1.0  0.66880  0.65698  0.05541  1.0000
  C   C746      1.0  0.69674  0.64046  0.07007  1.0000
  C   C747      1.0  0.72754  0.63044  0.05551  1.0000
  C   C748      1.0  0.73044  0.63700  0.02630  1.0000
  C   C749      1.0  0.70237  0.65287  0.01152  1.0000
  C   C750      1.0  0.92909  0.51156  0.28234  1.0000
  H   H592      1.0  0.73035  0.60061  0.30679  1.0000
  H   H593      1.0  0.95980  0.57417  0.06759  1.0000
  H   H594      1.0  0.50021  0.84923  0.16383  1.0000
  H   H595      1.0  0.61310  0.90173  0.24867  1.0000
  S   S101      1.0  0.77289  0.53958  0.06478  1.0000
  H   H596      1.0  0.54865  0.72273  0.30697  1.0000
  C   C751      1.0  0.94303  0.51136  0.25451  1.0000
  H   H597      1.0  0.90027  0.54691  0.07556  1.0000
  H   H598      1.0  0.70363  0.72150  0.99678  1.0000
  H   H599      1.0  0.53592  0.94060  0.11448  1.0000
  H   H600      1.0  0.61454  0.73485  0.04945  1.0000
  H   H601      1.0  0.56058  0.74114  0.07910  1.0000
  H   H602      1.0  0.52929  0.80101  0.13745  1.0000
  H   H603      1.0  0.58826  0.81085  0.11494  1.0000
  H   H604      1.0  0.57055  0.63878  0.01316  1.0000
  H   H605      1.0  0.64522  0.66432  0.06717  1.0000
  H   H606      1.0  0.69455  0.63518  0.09271  1.0000
  C   C752      1.0  0.53024  0.86825  0.04482  1.0000
  H   H607      1.0  0.93260  0.52126  0.20999  1.0000
  H   H608      1.0  0.70481  0.65703  0.98879  1.0000
  H   H609      1.0  0.53958  0.88652  0.00250  1.0000
  C   C753      1.0  0.63924  0.51817  0.30411  1.0000
  H   H610      1.0  0.56606  0.98340  0.29827  1.0000
  H   H611      1.0  0.51483  0.98860  0.08320  1.0000
  C   C754      1.0  0.95598  0.54582  0.06456  1.0000
  H   H612      1.0  0.62448  0.96585  0.25797  1.0000
  C   C755      1.0  0.77533  0.50857  0.11847  1.0000
  C   C756      1.0  0.88659  0.53188  0.23574  1.0000
  H   H613      1.0  0.56816  0.88367  0.21334  1.0000
  C   C757      1.0  0.50740  0.98844  0.10543  1.0000
  C   C758      1.0  0.92184  0.52160  0.23138  1.0000
  H   H614      1.0  0.88216  0.52309  0.30765  1.0000
  H   H615      1.0  0.54902  0.87084  0.30460  1.0000
  H   H616      1.0  0.51718  0.64548  0.04321  1.0000
  C   C759      1.0  0.54776  0.96115  0.29746  1.0000
  H   H617      1.0  0.58945  0.91851  0.14547  1.0000
  C   C760      1.0  0.92244  0.53053  0.06887  1.0000
  C   C761      1.0  0.54221  0.88791  0.15590  1.0000
  H   H618      1.0  0.74910  0.61732  0.06677  1.0000
  C   C762      1.0  0.52576  0.85436  0.15393  1.0000
  C   C763      1.0  0.51204  0.87351  0.07033  1.0000
  H   H619      1.0  0.78703  0.63074  0.29525  1.0000
  C   C764      1.0  0.53837  0.89741  0.30154  1.0000
  C   C765      1.0  0.51941  0.79631  0.25624  1.0000
  C   C766      1.0  0.71128  0.52766  0.31668  1.0000
  C   C767      1.0  0.89370  0.52243  0.28648  1.0000
  C   C768      1.0  0.95769  0.58828  0.00342  1.0000
  C   C769      1.0  0.52538  0.89177  0.02199  1.0000
  C   C770      1.0  0.59838  0.92193  0.23707  1.0000
  S   S102      1.0  0.82326  0.50801  0.99322  1.0000
  C   C771      1.0  0.78991  0.50920  0.09079  1.0000
  H   H620      1.0  0.58936  0.92301  0.30554  1.0000
  H   H621      1.0  0.97013  0.50358  0.25037  1.0000
  H   H622      1.0  0.50046  0.78537  0.18525  1.0000
  C   C772      1.0  0.98439  0.52476  0.05555  1.0000
  C   C773      1.0  0.95674  0.55709  0.98724  1.0000
  C   C774      1.0  0.51123  0.96634  0.29277  1.0000
  C   C775      1.0  0.70099  0.50421  0.29515  1.0000
  C   C776      1.0  0.78073  0.62422  0.31720  1.0000
  H   H623      1.0  0.50367  0.90015  0.23397  1.0000
  C   C777      1.0  0.61894  0.75134  0.98655  1.0000
  H   H624      1.0  0.75408  0.52676  0.12370  1.0000
  H   H625      1.0  0.59139  0.74314  0.98787  1.0000
  C   C778      1.0  0.52606  0.70988  0.31720  1.0000
  C   C779      1.0  0.50186  0.90234  0.29790  1.0000
  C   C780      1.0  0.66500  0.49950  0.28881  1.0000
  H   H626      1.0  0.99607  0.61265  0.10875  1.0000
  Fe  Fe50      1.0  0.58767  0.85685  0.37241  1.0000
  S   S103      1.0  0.53750  0.82851  0.35971  1.0000
  S   S104      1.0  0.57274  0.91363  0.38430  1.0000
  Fe  Fe51      1.0  0.63090  0.78654  0.37087  1.0000
  S   S105      1.0  0.58286  0.75477  0.35791  1.0000
  S   S106      1.0  0.68553  0.75946  0.37530  1.0000
  C   C781      1.0  0.55399  0.89205  0.54681  1.0000
  Fe  Fe52      1.0  0.55433  0.78678  0.39131  1.0000
  H   H627      1.0  0.92521  0.61184  0.39056  1.0000
  S   S107      1.0  0.62023  0.83034  0.33827  1.0000
  S   S108      1.0  0.60286  0.81624  0.40588  1.0000
  Fe  Fe53      1.0  0.78946  0.60345  0.46927  1.0000
  S   S109      1.0  0.78029  0.54869  0.48870  1.0000
  S   S110      1.0  0.73816  0.63552  0.46045  1.0000
  Fe  Fe54      1.0  0.82043  0.53022  0.45630  1.0000
  C   C782      1.0  0.72224  0.75450  0.47360  1.0000
  S   S111      1.0  0.82734  0.58375  0.43585  1.0000
  C   C783      1.0  0.66517  0.60881  0.36711  1.0000
  Fe  Fe55      1.0  0.57013  0.79987  0.32737  1.0000
  H   H628      1.0  0.80631  0.53957  0.39011  1.0000
  H   H629      1.0  0.63271  0.86119  0.58993  1.0000
  H   H630      1.0  0.91410  0.54572  0.57719  1.0000
  H   H631      1.0  0.99523  0.52741  0.44956  1.0000
  C   C784      1.0  0.54567  0.80121  0.49911  1.0000
  C   C785      1.0  0.74024  0.76978  0.45047  1.0000
  C   C786      1.0  0.62196  0.78544  0.55129  1.0000
  C   C787      1.0  0.69928  0.72368  0.39814  1.0000
  C   C788      1.0  0.73486  0.71190  0.39721  1.0000
  C   C789      1.0  0.74721  0.68479  0.41578  1.0000
  C   C790      1.0  0.72399  0.66869  0.43537  1.0000
  C   C791      1.0  0.68815  0.67970  0.43564  1.0000
  C   C792      1.0  0.67595  0.70704  0.41730  1.0000
  H   H632      1.0  0.75320  0.72436  0.38240  1.0000
  H   H633      1.0  0.77480  0.67679  0.41524  1.0000
  H   H634      1.0  0.66963  0.66714  0.45022  1.0000
  H   H635      1.0  0.64842  0.71514  0.41783  1.0000
  H   H636      1.0  0.99728  0.61868  0.43472  1.0000
  C   C793      1.0  0.58894  0.95432  0.36999  1.0000
  C   C794      1.0  0.62109  0.95669  0.35505  1.0000
  H   H637      1.0  0.56705  0.81752  0.50739  1.0000
  C   C795      1.0  0.94211  0.50721  0.44667  1.0000
  Fe  Fe56      1.0  0.87079  0.59118  0.46837  1.0000
  S   S112      1.0  0.86624  0.53621  0.48673  1.0000
  S   S113      1.0  0.92418  0.61138  0.45207  1.0000
  Fe  Fe57      1.0  0.82708  0.55965  0.51749  1.0000
  S   S114      1.0  0.83548  0.55255  0.56581  1.0000
  S   S115      1.0  0.83377  0.61593  0.50042  1.0000
  H   H638      1.0  0.65945  0.99203  0.33519  1.0000
  C   C796      1.0  0.94793  0.53489  0.33843  1.0000
  H   H639      1.0  0.85394  0.54355  0.62488  1.0000
  C   C797      1.0  0.96436  0.59873  0.46895  1.0000
  C   C798      1.0  0.96434  0.58189  0.49561  1.0000
  H   H640      1.0  0.93938  0.57632  0.50630  1.0000
  C   C799      1.0  0.54417  0.79384  0.46978  1.0000
  C   C800      1.0  0.56484  0.69096  0.48165  1.0000
  C   C801      1.0  0.68996  0.76907  0.48301  1.0000
  H   H641      1.0  0.72419  0.63261  0.52320  1.0000
  C   C802      1.0  0.66847  0.64338  0.35575  1.0000
  S   S116      1.0  0.51378  0.76285  0.42193  1.0000
  H   H642      1.0  0.59210  0.67981  0.38132  1.0000
  C   C803      1.0  0.64191  0.66866  0.36054  1.0000
  C   C804      1.0  0.57728  0.68576  0.50940  1.0000
  H   H643      1.0  0.52965  0.94727  0.43002  1.0000
  H   H644      1.0  0.76469  0.75793  0.44287  1.0000
  C   C805      1.0  0.51695  0.77235  0.45882  1.0000
  H   H645      1.0  0.70837  0.75225  0.56573  1.0000
  C   C806      1.0  0.65449  0.78532  0.53655  1.0000
  C   C807      1.0  0.96617  0.55076  0.59701  1.0000
  H   H646      1.0  0.82933  0.64666  0.33378  1.0000
  C   C808      1.0  0.58339  0.71343  0.46300  1.0000
  C   C809      1.0  0.73338  0.70130  0.56963  1.0000
  C   C810      1.0  0.94706  0.59809  0.34959  1.0000
  H   H647      1.0  0.80010  0.54161  0.33764  1.0000
  C   C811      1.0  0.92387  0.55522  0.38356  1.0000
  H   H648      1.0  0.69188  0.59122  0.42189  1.0000
  C   C812      1.0  0.63487  0.60004  0.38332  1.0000
  H   H649      1.0  0.56098  0.86935  0.56000  1.0000
  C   C813      1.0  0.93455  0.56366  0.58481  1.0000
  C   C814      1.0  0.62641  0.72661  0.50016  1.0000
  C   C815      1.0  0.58049  0.91296  0.53406  1.0000
  C   C816      1.0  0.97880  0.50534  0.44256  1.0000
  C   C817      1.0  0.69801  0.68337  0.51933  1.0000
  H   H650      1.0  0.54063  0.67794  0.47463  1.0000
  C   C818      1.0  0.93162  0.59045  0.37600  1.0000
  C   C819      1.0  0.84038  0.51944  0.61841  1.0000
  H   H651      1.0  0.56282  0.66845  0.52392  1.0000
  H   H652      1.0  0.65094  0.81045  0.47563  1.0000
  P   P26       1.0  0.69920  0.57573  0.36087  1.0000
  C   C820      1.0  0.67102  0.84055  0.56012  1.0000
  C   C821      1.0  0.51823  0.90029  0.54251  1.0000
  C   C822      1.0  0.95456  0.62438  0.59155  1.0000
  C   C823      1.0  0.72022  0.65859  0.53269  1.0000
  C   C824      1.0  0.63879  0.84019  0.57498  1.0000
  H   H653      1.0  0.57368  0.71764  0.44152  1.0000
  H   H654      1.0  0.63178  0.57357  0.39233  1.0000
  H   H655      1.0  0.69005  0.86188  0.56352  1.0000
  C   C825      1.0  0.69346  0.71747  0.53090  1.0000
  H   H656      1.0  0.60220  0.76482  0.54804  1.0000
  C   C826      1.0  0.73796  0.66753  0.55779  1.0000
  C   C827      1.0  0.70649  0.54354  0.44414  1.0000
  P   P27       1.0  0.97380  0.50329  0.59972  1.0000
  C   C828      1.0  0.70609  0.54911  0.39255  1.0000
  C   C829      1.0  0.74045  0.59819  0.35221  1.0000
  C   C830      1.0  0.76429  0.60782  0.37390  1.0000
  C   C831      1.0  0.79626  0.62513  0.36719  1.0000
  C   C832      1.0  0.64948  0.54165  0.32571  1.0000
  H   H657      1.0  0.64509  0.69555  0.35226  1.0000
  C   C833      1.0  0.80456  0.63320  0.33887  1.0000
  H   H658      1.0  0.59220  0.95765  0.50707  1.0000
  H   H659      1.0  0.95250  0.62552  0.34364  1.0000
  P   P28       1.0  0.66580  0.74958  0.51256  1.0000
  C   C834      1.0  0.70023  0.56378  0.41960  1.0000
  C   C835      1.0  0.61436  0.81263  0.57058  1.0000
  H   H660      1.0  0.73343  0.73101  0.48355  1.0000
  C   C836      1.0  0.67603  0.79907  0.46893  1.0000
  H   H661      1.0  0.73897  0.80982  0.41742  1.0000
  C   C837      1.0  0.51940  0.78802  0.51765  1.0000
  C   C838      1.0  0.72585  0.79915  0.43621  1.0000
  H   H662      1.0  0.75828  0.60224  0.39606  1.0000
  H   H663      1.0  0.81451  0.63247  0.38406  1.0000
  C   C839      1.0  0.74868  0.60697  0.32382  1.0000
  C   C840      1.0  0.60857  0.62553  0.38834  1.0000
  C   C841      1.0  0.95485  0.57048  0.33074  1.0000
  H   H664      1.0  0.58568  0.61886  0.40139  1.0000
  C   C842      1.0  0.61200  0.99327  0.43636  1.0000
  H   H665      1.0  0.75547  0.64831  0.56787  1.0000
  H   H666      1.0  0.70422  0.81360  0.52995  1.0000
  H   H667      1.0  0.62907  0.55564  0.33732  1.0000
  H   H668      1.0  0.68505  0.67611  0.49961  1.0000
  C   C843      1.0  0.52892  0.67497  0.32734  1.0000
  H   H669      1.0  0.62711  0.74922  0.45750  1.0000
  C   C844      1.0  0.71125  0.72624  0.55626  1.0000
  H   H670      1.0  0.62985  0.97550  0.42519  1.0000
  H   H671      1.0  0.58167  0.95060  0.45471  1.0000
  C   C845      1.0  0.53521  0.94909  0.51087  1.0000
  C   C846      1.0  0.58429  0.97929  0.45296  1.0000
  H   H672      1.0  0.70265  0.55543  0.46491  1.0000
  H   H673      1.0  0.69167  0.65125  0.34355  1.0000
  C   C847      1.0  0.92891  0.60025  0.58195  1.0000
  S   S117      1.0  0.52219  0.79760  0.55442  1.0000
  C   C848      1.0  0.61211  0.65984  0.37698  1.0000
  H   H674      1.0  0.56426  0.80464  0.45582  1.0000
  H   H675      1.0  0.54494  0.98410  0.38697  1.0000
  H   H676      1.0  0.95030  0.65274  0.58888  1.0000
  H   H677      1.0  0.90459  0.60972  0.57204  1.0000
  C   C849      1.0  0.57120  0.94165  0.51639  1.0000
  H   H678      1.0  0.63631  0.93285  0.35100  1.0000
  H   H679      1.0  0.58929  0.81224  0.58206  1.0000
  C   C850      1.0  0.56967  0.98557  0.37529  1.0000
  H   H680      1.0  0.68231  0.83611  0.43398  1.0000
  C   C851      1.0  0.67891  0.81320  0.54104  1.0000
  C   C852      1.0  0.69379  0.81383  0.44547  1.0000
  C   C853      1.0  0.61380  0.73149  0.47226  1.0000
  C   C854      1.0  0.60815  0.70320  0.51855  1.0000
  C   C855      1.0  0.82848  0.51625  0.59004  1.0000
  H   H681      1.0  0.74724  0.70820  0.58907  1.0000
  H   H682      1.0  0.61750  0.69886  0.54011  1.0000
  H   H683      1.0  0.91102  0.54971  0.40380  1.0000
  C   C856      1.0  0.50217  0.94652  0.43652  1.0000
  H   H684      1.0  0.60825  0.90664  0.53759  1.0000
  C   C857      1.0  0.93208  0.52742  0.36494  1.0000
  H   H685      1.0  0.93090  0.53045  0.45677  1.0000
  P   P29       1.0  0.52208  0.98367  0.48596  1.0000
  C   C858      1.0  0.80470  0.51637  0.34822  1.0000
  C   C859      1.0  0.71932  0.51426  0.39052  1.0000
  H   H686      1.0  0.99634  0.56085  0.52977  1.0000
  C   C860      1.0  0.50886  0.92881  0.52480  1.0000
  C   C861      1.0  0.98562  0.61187  0.60452  1.0000
  C   C862      1.0  0.68568  0.54686  0.33202  1.0000
  H   H687      1.0  0.50886  0.99818  0.54731  1.0000
  C   C863      1.0  0.99672  0.57308  0.50887  1.0000
  C   C864      1.0  0.99127  0.57520  0.60754  1.0000
  H   H688      1.0  0.54938  0.99354  0.62659  1.0000
  C   C865      1.0  0.80863  0.51534  0.37804  1.0000
  C   C866      1.0  0.63419  0.99027  0.34620  1.0000
  C   C867      1.0  0.99705  0.60583  0.45539  1.0000
  H   H689      1.0  0.72592  0.50284  0.37012  1.0000
  C   C868      1.0  0.71927  0.50876  0.44193  1.0000
  H   H690      1.0  0.92537  0.50041  0.37118  1.0000
  H   H691      1.0  0.73929  0.53068  0.32136  1.0000
  H   H692      1.0  0.55394  0.66091  0.32531  1.0000
  C   C869      1.0  0.49953  0.65830  0.33997  1.0000
  H   H693      1.0  0.50171  0.63119  0.34779  1.0000
  Fe  Fe58      1.0  0.60444  0.85159  0.86663  1.0000
  S   S118      1.0  0.54675  0.84792  0.85520  1.0000
  S   S119      1.0  0.63821  0.90163  0.86034  1.0000
  Fe  Fe59      1.0  0.61020  0.77108  0.88178  1.0000
  S   S120      1.0  0.55208  0.76275  0.87079  1.0000
  S   S121      1.0  0.63836  0.71894  0.89518  1.0000
  Fe  Fe60      1.0  0.56118  0.79762  0.83195  1.0000
  S   S122      1.0  0.55108  0.78237  0.78508  1.0000
  Fe  Fe61      1.0  0.54275  0.81360  0.89496  1.0000
  H   H694      1.0  0.70046  0.69291  0.85256  1.0000
  S   S123      1.0  0.61975  0.80280  0.84159  1.0000
  S   S124      1.0  0.59999  0.82038  0.90784  1.0000
  Fe  Fe62      1.0  0.79402  0.60337  0.97036  1.0000
  C   C870      1.0  0.58490  0.99341  0.72165  1.0000
  S   S125      1.0  0.77940  0.66062  0.95702  1.0000
  Fe  Fe63      1.0  0.78939  0.52446  0.95600  1.0000
  C   C871      1.0  0.97471  0.51196  0.78036  1.0000
  S   S126      1.0  0.82630  0.56779  0.94182  1.0000
  H   H695      1.0  0.72740  0.55054  0.91747  1.0000
  H   H696      1.0  0.74360  0.63812  0.77919  1.0000
  H   H697      1.0  0.79177  0.54153  0.88863  1.0000
  H   H698      1.0  0.87831  0.57978  0.83534  1.0000
  C   C872      1.0  0.72775  0.68393  0.85154  1.0000
  H   H699      1.0  0.63681  0.57995  0.84420  1.0000
  H   H700      1.0  0.94870  0.59686  0.93825  1.0000
  H   H701      1.0  0.99227  0.61560  0.90097  1.0000
  H   H702      1.0  0.81067  0.71356  0.86866  1.0000
  C   C873      1.0  0.74702  0.55254  0.75612  1.0000
  C   C874      1.0  0.61092  0.67982  0.83017  1.0000
  C   C875      1.0  0.55568  0.90811  0.93216  1.0000
  C   C876      1.0  0.96372  0.61105  0.83511  1.0000
  C   C877      1.0  0.52881  0.91409  0.95211  1.0000
  C   C878      1.0  0.69035  0.59037  0.85912  1.0000
  C   C879      1.0  0.92499  0.60999  0.93070  1.0000
  C   C880      1.0  0.67820  0.70377  0.91223  1.0000
  C   C881      1.0  0.68336  0.66683  0.91593  1.0000
  C   C882      1.0  0.71403  0.65329  0.92944  1.0000
  C   C883      1.0  0.74051  0.67646  0.93915  1.0000
  C   C884      1.0  0.73576  0.71338  0.93510  1.0000
  C   C885      1.0  0.70479  0.72698  0.92182  1.0000
  H   H703      1.0  0.66347  0.64837  0.90843  1.0000
  H   H704      1.0  0.71705  0.62492  0.93257  1.0000
  H   H705      1.0  0.75602  0.73164  0.94253  1.0000
  H   H706      1.0  0.70149  0.75540  0.91903  1.0000
  C   C886      1.0  0.66398  0.96630  0.84413  1.0000
  C   C887      1.0  0.63373  0.94830  0.85407  1.0000
  C   C888      1.0  0.60270  0.96809  0.85951  1.0000
  H   H707      1.0  0.68809  0.95155  0.83992  1.0000
  H   H708      1.0  0.57917  0.95456  0.86722  1.0000
  C   C889      1.0  0.56059  0.88234  0.74351  1.0000
  H   H709      1.0  0.80433  0.54478  0.83671  1.0000
  C   C890      1.0  0.75457  0.70677  0.86120  1.0000
  H   H710      1.0  0.77931  0.61295  0.83338  1.0000
  C   C891      1.0  0.58138  0.96568  0.94280  1.0000
  P   P30       1.0  0.93282  0.57171  0.87972  1.0000
  C   C892      1.0  0.53516  0.91982  0.78034  1.0000
  C   C893      1.0  0.56203  0.90860  0.79910  1.0000
  C   C894      1.0  0.58763  0.88413  0.79022  1.0000
  C   C895      1.0  0.58650  0.87048  0.76262  1.0000
  H   H711      1.0  0.59356  0.69124  0.84613  1.0000
  H   H712      1.0  0.58431  0.70561  0.79507  1.0000
  C   C896      1.0  0.90198  0.59414  0.82860  1.0000
  C   C897      1.0  0.66305  0.64461  0.81824  1.0000
  C   C898      1.0  0.92228  0.54481  0.76509  1.0000
  C   C899      1.0  0.91079  0.60241  0.90372  1.0000
  H   H713      1.0  0.87257  0.51590  0.76626  1.0000
  H   H714      1.0  0.51945  0.97391  0.85061  1.0000
  C   C900      1.0  0.63927  0.65811  0.83854  1.0000
  H   H715      1.0  0.67500  0.64248  0.77303  1.0000
  C   C901      1.0  0.93322  0.59314  0.84507  1.0000
  H   H716      1.0  0.74762  0.73273  0.86950  1.0000
  H   H717      1.0  0.53870  0.77227  0.95816  1.0000
  H   H718      1.0  0.91903  0.63950  0.96964  1.0000
  H   H719      1.0  0.56304  0.91826  0.82078  1.0000
  H   H720      1.0  0.60785  0.87506  0.80503  1.0000
  H   H721      1.0  0.62482  0.68055  0.75868  1.0000
  C   C902      1.0  0.50335  0.79410  0.70716  1.0000
  H   H722      1.0  0.87635  0.61523  0.79117  1.0000
  C   C903      1.0  0.61671  0.99674  0.73691  1.0000
  C   C904      1.0  0.87845  0.61843  0.89579  1.0000
  H   H723      1.0  0.50944  0.78673  0.68546  1.0000
  C   C905      1.0  0.87626  0.65021  0.94049  1.0000
  C   C906      1.0  0.52042  0.97104  0.67918  1.0000
  H   H724      1.0  0.62850  0.56883  0.95422  1.0000
  H   H725      1.0  0.55582  0.88364  0.92005  1.0000
  H   H726      1.0  0.66765  0.52287  0.91977  1.0000
  C   C907      1.0  0.96259  0.63056  0.80964  1.0000
  H   H727      1.0  0.55945  0.87130  0.72225  1.0000
  C   C908      1.0  0.90103  0.51490  0.77013  1.0000
  C   C909      1.0  0.79887  0.66228  0.85032  1.0000
  H   H728      1.0  0.75845  0.53654  0.73927  1.0000
  C   C910      1.0  0.52028  0.79522  0.75786  1.0000
  C   C911      1.0  0.67380  0.54167  0.90287  1.0000
  C   C912      1.0  0.79007  0.69593  0.86073  1.0000
  C   C913      1.0  0.64836  0.54999  0.88219  1.0000
  C   C914      1.0  0.62881  0.67403  0.78096  1.0000
  C   C915      1.0  0.90797  0.63400  0.94883  1.0000
  C   C916      1.0  0.79667  0.51966  0.84632  1.0000
  C   C917      1.0  0.71917  0.59319  0.80089  1.0000
  C   C918      1.0  0.52858  0.94546  0.96827  1.0000
  C   C919      1.0  0.50246  0.95070  0.85259  1.0000
  H   H729      1.0  0.74220  0.59313  0.87943  1.0000
  C   C920      1.0  0.70748  0.55739  0.90166  1.0000
  H   H730      1.0  0.82639  0.65394  0.84994  1.0000
  H   H731      1.0  0.60537  0.85023  0.75628  1.0000
  H   H732      1.0  0.57437  0.95621  0.66817  1.0000
  C   C921      1.0  0.68972  0.77348  0.98192  1.0000
  C   C922      1.0  0.97755  0.56103  0.89150  1.0000
  C   C923      1.0  0.88956  0.51856  0.90270  1.0000
  C   C924      1.0  0.62691  0.78578  0.97699  1.0000
  C   C925      1.0  0.71580  0.58160  0.87990  1.0000
  H   H733      1.0  0.86251  0.66804  0.95487  1.0000
  C   C926      1.0  0.65734  0.65244  0.78928  1.0000
  H   H734      1.0  0.91933  0.51953  0.83416  1.0000
  C   C927      1.0  0.77211  0.63926  0.84078  1.0000
  C   C928      1.0  0.53536  0.90737  0.75212  1.0000
  H   H735      1.0  0.98848  0.51812  0.96540  1.0000
  H   H736      1.0  0.97461  0.56708  0.76633  1.0000
  C   C929      1.0  0.73884  0.60963  0.77896  1.0000
  P   P31       1.0  0.70172  0.61965  0.82973  1.0000
  C   C930      1.0  0.73628  0.64992  0.84133  1.0000
  H   H737      1.0  0.91032  0.56883  0.75668  1.0000
  C   C931      1.0  0.58226  0.93365  0.92779  1.0000
  H   H738      1.0  0.62238  0.53743  0.88292  1.0000
  C   C932      1.0  0.86146  0.64239  0.91400  1.0000
  C   C933      1.0  0.60580  0.68800  0.80142  1.0000
  H   H739      1.0  0.86558  0.61171  0.87604  1.0000
  H   H740      1.0  0.89087  0.53347  0.92225  1.0000
  H   H741      1.0  0.64332  0.65298  0.86098  1.0000
  H   H742      1.0  0.76808  0.60201  0.73989  1.0000
  C   C934      1.0  0.93106  0.63242  0.79395  1.0000
  C   C935      1.0  0.65657  0.57423  0.86036  1.0000
  C   C936      1.0  0.71339  0.55620  0.80005  1.0000
  H   H743      1.0  0.83604  0.65392  0.90821  1.0000
  C   C937      1.0  0.75269  0.58934  0.75666  1.0000
  H   H744      1.0  0.51575  0.91621  0.73683  1.0000
  C   C938      1.0  0.90668  0.53127  0.87814  1.0000
  H   H745      1.0  0.98830  0.61052  0.84703  1.0000
  C   C939      1.0  0.78957  0.51785  0.87577  1.0000
  H   H746      1.0  0.69884  0.54256  0.81676  1.0000
  C   C940      1.0  0.95887  0.54357  0.77052  1.0000
  C   C941      1.0  0.52016  0.78481  0.97258  1.0000
  C   C942      1.0  0.90078  0.61417  0.80343  1.0000
  C   C943      1.0  0.52758  0.78609  0.72934  1.0000
  C   C944      1.0  0.72729  0.53605  0.77774  1.0000
  H   H747      1.0  0.93009  0.64790  0.77440  1.0000
  H   H748      1.0  0.50856  0.89384  0.95537  1.0000
  C   C945      1.0  0.60466  0.66926  0.95302  1.0000
  C   C946      1.0  0.59411  0.64728  0.93059  1.0000
  H   H749      1.0  0.60345  0.92869  0.91264  1.0000
  H   H750      1.0  0.55210  0.77243  0.72439  1.0000
  H   H751      1.0  0.59489  0.59432  0.91336  1.0000
  H   H752      1.0  0.97219  0.50406  0.88497  1.0000
  C   C947      1.0  0.95715  0.50785  0.65761  1.0000
  H   H753      1.0  0.58026  0.65875  0.91249  1.0000
  C   C948      1.0  0.53935  0.91094  0.66713  1.0000
  H   H754      1.0  0.94735  0.51027  0.70290  1.0000
  H   H755      1.0  0.98607  0.64472  0.80231  1.0000
  C   C949      1.0  0.60263  0.61109  0.93100  1.0000
  H   H756      1.0  0.57000  0.96878  0.72346  1.0000
  C   C950      1.0  0.55462  0.97168  0.96297  1.0000
  H   H757      1.0  0.57091  0.98150  0.78223  1.0000
  S   S127      1.0  0.75491  0.56035  0.98265  1.0000
  C   C951      1.0  0.62165  0.59682  0.95393  1.0000
  H   H758      1.0  0.59823  0.69727  0.95183  1.0000
  H   H759      1.0  0.60159  0.98582  0.93880  1.0000
  C   C952      1.0  0.51765  0.99395  0.79662  1.0000
  P   P32       1.0  0.50047  0.94904  0.79303  1.0000
  H   H760      1.0  0.71722  0.78181  0.97961  1.0000
  C   C953      1.0  0.98890  0.54190  0.97827  1.0000
  C   C954      1.0  0.62384  0.65522  0.97613  1.0000
  H   H761      1.0  0.56013  0.89251  0.66113  1.0000
  H   H762      1.0  0.60557  0.80374  0.97115  1.0000
  C   C955      1.0  0.66231  0.79680  0.97450  1.0000
  H   H763      1.0  0.66850  0.82326  0.96649  1.0000
  C   C956      1.0  0.54726  0.94703  0.67120  1.0000
  C   C957      1.0  0.90554  0.51078  0.85319  1.0000
  C   C958      1.0  0.98939  0.52553  0.89182  1.0000
  C   C959      1.0  0.50455  0.89851  0.67071  1.0000
  H   H764      1.0  0.62628  0.97470  0.74983  1.0000
  S   S128      1.0  0.91650  0.53595  0.97722  1.0000
  H   H765      1.0  0.96676  0.53503  0.65649  1.0000
  H   H766      1.0  0.50753  0.95036  0.89814  1.0000
  C   C960      1.0  0.63203  0.61870  0.97650  1.0000
  H   H767      1.0  0.55451  0.99676  0.97416  1.0000
  Fe  Fe64      1.0  0.85871  0.55389  0.98074  1.0000
  H   H768      1.0  0.72384  0.50734  0.77762  1.0000
