data_image0
_chemical_formula_structural       HCSFeCSH2C3SC2HC2HFeSCHSHCHC8H5C2H3C2HC7H9CH4CHC2H2C2H2C3HCH3C2HCH4CH3SCHCPCHC4HFeHCSCSHC4SCHC2HCHPHCFeHCH3CHCH2SCH2CHC5HCHC3HCHCH3C3HCHC4HPC2H2C2HCHCH3CH2C2H2CHCH4SFeHSHSC2HSH3CH2FeSCHCHCHC8H5FeC2SHC10H5C2HCHCH2C2HC4HCPCHC8HC3HC2HCHCH3C2PC2H4FeC2H2C5HC3HCHCHSCHC3H4C3H2C2HC3SCHCH2FeH2C2HSCHPH2CH2C2HCH2CHC2HCH2CH2CSHC2HC4H3C2H3CHC4S2CHC4HCHCHCH2CHPC3HCSH2SFeCFeSCSFeSFeS2FeS3FeS2FeSFeSFeCFeS2HS2C2SCHC6H4C6H4CH2CHC7H4C6H4C4H3SCHCH2C7PC8HCHC2HCHCSFeH10CSC2HCHCH2CH3C2HC9HC2HCHC2H2C2H6C5H2C6PSC4H5CHC2HCHCH7C3HC3HCHC2H2C4H2C2HCH2C3PH2C3H5C2H2CHC3HC2HC2SHC5HPCHC2H2CHCHC2HC5HC2PH2CH3C3S2CH2CHCH2CH4FeC2H3C3H3C2H2C2HC3H3CFeHC7H2C2S2HC3FeSCSFeSFeS2FeSHSFeS2FeSCSCHFeS2C2SH5C6H4C6H4C4SHC6H4C6H4C4H2C6H2C3HCH3C3H4CH2C2H2C9PC2SHC4H2C2HC2HC2H6FeH3C3HC3H8CHCHPHCHCHCHC6PHC2H2CHC2HSCHFeCH2C4FeHCH2C2HCH3C2FeCFeCHCHC3H2C2H3CHC2HC5HCH2C2HCSC3PHC2SHC4HPCPC3H2C4H5C3HSHC2HCH3CH2C3HPCH3SC3H2C2SCFeSC4H2CH3C2HC2H2CH2C3HCH4CHPH3SHC3H2C4H2C6SC3H4CHFeS2FeSCFeSFeS3FeHSFeSHSCFeS2HS2FeSFeSHSFeS2FeSHCSC7H4C6H4C6H4CFeCH7C6H4C6H4C6H3CHC6PC13H2CHCH14C2HC2H3C4H2CH3CH2C7HC2HC2HC2HCHCHCH2PSH2FeHCHCHC4SCH2CH3CH3CHC2HC3H2C7SPH2CH2CHC3H3C2HC2SHC3H2CHC6PC5HC12HC2H4CH12C2HCH3CHC3HC6PC3HCHC12H6CHCH10C6PC8HCH3CHSCHCPH2CH3C2FeHC4SC2HC3FeH3CHCHC2H2C5HSHFeS2CSCFeHFeSHSFeS2FeSHSHFeS2HCSFeHFeSCSFeS2FeSCPCHC6H4C6H4C6H4SH2CHC2HCHC6H4C6SH3C6H3C2H3CHCH2CH2C7SFeSHC2H4CHCFeCH2C6PC18H7CH15C2H2C2HCHCH4C4HC4SCHC4HC2HC2SC2H3C2H3CH2CHCH3CHC7H2C3H2CH4SC2HCH2CSHC2H9CHC2H2PSHC4H2SH5C3H3C2SC4HC3SHC4HC2H2C5HPCH2CSC2H2CH3CPCH5CHC4H4FeCFeH3CHC4PHSCSCFeS2FeCFeSHSHFeS2Fe2S3CSCFeS2FeS2HSHFeS2FeHFeSCSC6H4C6H2CHC6H6C2HC2H2C7HCH2C6H4C6H3CSHPC2HFeC2HSPCHC2H3CH4CH3CPC6HCHCPCHCHC2HC3H2CHCH3CH3CHCHCH3CHSCHCHSCHC5HC2H2C4HC3H2C2H3C5PC14SHC3H17CHC2HC2HCHC3H4CH3CHCSHC5FeH2CH2C10PCH8CH5CHC2HSC2HC2HSH2C6HCHCHC6SPHCHCHC4HC2HC2H2C2H4CHCH3FeH2CH2C2HC2H3CFeC8H2C2FeH6C5HC2HCHSFeSHFeS2FeCFeSHSHFeS2CFeS2H2SFe2S2FeS2FeSCFeS2FeSFeSPSC6H4C6H4C6H6CHCH3CHC6HCH2C6H4C6H3SC2HCHCHCPC3HC2H4C3HC3HC3H2C3H2C2HC3HCH2C4PFeHC3H2C2HSHCHCSCHC2HC4HCHC6PC16SCH17C2HC6PC15HC3H15CH2SC4H2C2HC5HCH6CSC3HC3H2CHCSH4CH3C2HCH2CHC2H3CH2C2H4C2HCFeHC4H2CPH4PCH2FeH2CH2C3H3C3H2CH4SC12SCH2C2HC2FeHSFeS4HFeSHC2FeS2FeS2CFeSFeS2HPHCHC2H3C6H4C6H3FeC6H4C6H6CHCH2C2HSC2HCHC14HCH2CHC4HC2HCH2C2HC4SHCFeHCHCHC6H3CHSHC2SC6PC3HC3H2PC3H2CHCH6FeCH4FeCHCH7CH2CHC2SHC3SHCHCSH3CHC3HC3SCPC3HC6HCHCH3C2H2C2H2C2HCHCHCH2C3HCPHC3H4C3FeH2CHCHC2HCHC2HCHFeH2CHC3HPCSHCHCHCHCFeHCH3CH2C4Fe2S2FeS2HSFe2SCFeCFeS2FeS2HFeSCHSHSH2C2HC9H4C6H4C6H4C6H4FeHCSC2HC5HC4H3C2HCHCHC2SH2C3HC3H3CHC6HC3HCSH3CHCH3CHC3HC3H2PHCH3C3PH2C4H3C4HCHC3HC3HCH2CHC4H2CHCH2CHCHSC3HCHC2H2CH2CHCH3CHSHC2PHSHSC2H2C3HC5HC2SFeCH7FeCHCHC3HC2HCH3C4H3CPH3CHCSHC2HC2HCHC2H2C2H4FeCH2CH3CH3SHCHSH2SCH3C6H5CHC7H5C2H2C12FeHC2HC2HCH3CHC2H3CSHCHC2HCH2C5H4C2HC2H3CHC3HPCH2C5H2C3H6C3SFeCH2CH3CHC2PHC3SCSH3C3H2CHPHCPCH2CH2CSCH2C2HC2FeCSHCH2SHSCH2SCH2SCHSH2SC7H4CHCHC6H4C2H2C2HCH2C2H2C2HCHC2H2C5PHSCH5CHC2SH4C8H2CH2FeC3H2C2PC3H2CH3C4HC2H5C8H2C4H5CHFeHCSH2CSPCH2CHC
_chemical_formula_sum              "H1536 C1920 S256 Fe128 P64"
_cell_length_a       55.315
_cell_length_b       55.402
_cell_length_c       39.265
_cell_angle_alpha    90.4494
_cell_angle_beta     90.1651
_cell_angle_gamma    88.6561

_space_group_name_H-M_alt    "P 1"
_space_group_IT_number       1

loop_
  _space_group_symop_operation_xyz
  'x, y, z'

loop_
  _atom_site_type_symbol
  _atom_site_label
  _atom_site_symmetry_multiplicity
  _atom_site_fract_x
  _atom_site_fract_y
  _atom_site_fract_z
  _atom_site_occupancy
  H   H1        1.0  0.10482  0.42690  0.12695  1.0000
  C   C1        1.0  0.99929  0.07976  0.41250  1.0000
  S   S1        1.0  0.09394  0.02564  0.17891  1.0000
  Fe  Fe1       1.0  0.99942  0.09296  0.05026  1.0000
  C   C2        1.0  0.08887  0.99392  0.32191  1.0000
  S   S2        1.0  0.03542  0.07200  0.05408  1.0000
  H   H2        1.0  0.16390  0.40254  0.00450  1.0000
  H   H3        1.0  0.99772  0.04304  0.10451  1.0000
  C   C3        1.0  0.26063  0.03335  0.20315  1.0000
  C   C4        1.0  0.00807  0.38093  0.16674  1.0000
  C   C5        1.0  0.27660  0.01590  0.18912  1.0000
  S   S3        1.0  0.07168  0.43959  0.29967  1.0000
  C   C6        1.0  0.99183  0.20840  0.49734  1.0000
  C   C7        1.0  0.06196  0.08103  0.28262  1.0000
  H   H4        1.0  0.01436  0.33192  0.23462  1.0000
  C   C8        1.0  0.99234  0.01954  0.18401  1.0000
  C   C9        1.0  0.02165  0.46512  0.46587  1.0000
  H   H5        1.0  0.06541  0.47297  0.13828  1.0000
  Fe  Fe2       1.0  0.00094  0.36464  0.43341  1.0000
  S   S4        1.0  0.03704  0.38346  0.43117  1.0000
  C   C10       1.0  0.11659  0.45194  0.08893  1.0000
  H   H6        1.0  0.01197  0.01468  0.47172  1.0000
  S   S5        1.0  0.98914  0.27928  0.46801  1.0000
  H   H7        1.0  0.22349  0.04263  0.21515  1.0000
  C   C11       1.0  0.01506  0.98520  0.40703  1.0000
  H   H8        1.0  0.98118  0.44850  0.11482  1.0000
  C   C12       1.0  0.00026  0.31777  0.28110  1.0000
  C   C13       1.0  0.04585  0.06470  0.48095  1.0000
  C   C14       1.0  0.06332  0.42368  0.33665  1.0000
  C   C15       1.0  0.07373  0.42797  0.36857  1.0000
  C   C16       1.0  0.06576  0.41527  0.39730  1.0000
  C   C17       1.0  0.04697  0.39867  0.39447  1.0000
  C   C18       1.0  0.03670  0.39432  0.36254  1.0000
  C   C19       1.0  0.04522  0.40640  0.33374  1.0000
  H   H9        1.0  0.08785  0.44106  0.37114  1.0000
  H   H10       1.0  0.07386  0.41867  0.42193  1.0000
  H   H11       1.0  0.02255  0.38127  0.35995  1.0000
  H   H12       1.0  0.03769  0.40231  0.30905  1.0000
  H   H13       1.0  0.07888  0.06424  0.23859  1.0000
  C   C20       1.0  0.00773  0.44967  0.44570  1.0000
  C   C21       1.0  0.01875  0.44119  0.10511  1.0000
  H   H14       1.0  0.06780  0.33323  0.49028  1.0000
  H   H15       1.0  0.00363  0.07386  0.30659  1.0000
  H   H16       1.0  0.29679  0.05778  0.07304  1.0000
  C   C22       1.0  0.02675  0.39751  0.16733  1.0000
  C   C23       1.0  0.99619  0.04245  0.13201  1.0000
  H   H17       1.0  0.04817  0.42122  0.19838  1.0000
  C   C24       1.0  0.23573  0.02942  0.20361  1.0000
  C   C25       1.0  0.07576  0.03700  0.14486  1.0000
  C   C26       1.0  0.07333  0.02449  0.11396  1.0000
  C   C27       1.0  0.06022  0.03507  0.08676  1.0000
  C   C28       1.0  0.04890  0.05798  0.09034  1.0000
  C   C29       1.0  0.05086  0.07020  0.12151  1.0000
  C   C30       1.0  0.06422  0.05978  0.14854  1.0000
  H   H18       1.0  0.08221  0.00703  0.11067  1.0000
  H   H19       1.0  0.05919  0.02564  0.06260  1.0000
  H   H20       1.0  0.04287  0.08809  0.12438  1.0000
  H   H21       1.0  0.06611  0.06973  0.17214  1.0000
  H   H22       1.0  0.00310  0.37298  0.14256  1.0000
  H   H23       1.0  0.26742  0.04994  0.21389  1.0000
  H   H24       1.0  0.01794  0.31265  0.29104  1.0000
  H   H25       1.0  0.04634  0.08134  0.49558  1.0000
  H   H26       1.0  0.03492  0.30408  0.48240  1.0000
  C   C31       1.0  0.99308  0.04094  0.20330  1.0000
  H   H27       1.0  0.07165  0.02854  0.31314  1.0000
  H   H28       1.0  0.30068  0.43075  0.29956  1.0000
  H   H29       1.0  0.99496  0.43782  0.45740  1.0000
  H   H30       1.0  0.02285  0.45694  0.28169  1.0000
  C   C32       1.0  0.02852  0.46233  0.39503  1.0000
  H   H31       1.0  0.99425  0.44767  0.19775  1.0000
  C   C33       1.0  0.30864  0.02851  0.25757  1.0000
  C   C34       1.0  0.04070  0.08361  0.30165  1.0000
  H   H32       1.0  0.99776  0.08098  0.13810  1.0000
  H   H33       1.0  0.98643  0.28988  0.08173  1.0000
  C   C35       1.0  0.27543  0.45554  0.32386  1.0000
  C   C36       1.0  0.04455  0.02164  0.44306  1.0000
  H   H34       1.0  0.01617  0.23486  0.47762  1.0000
  H   H35       1.0  0.99760  0.14077  0.42121  1.0000
  C   C37       1.0  0.02649  0.02708  0.46717  1.0000
  C   C38       1.0  0.99955  0.19978  0.37963  1.0000
  C   C39       1.0  0.18323  0.46580  0.03595  1.0000
  H   H36       1.0  0.00053  0.42502  0.31157  1.0000
  C   C40       1.0  0.30316  0.06080  0.09883  1.0000
  H   H37       1.0  0.00544  0.19408  0.49811  1.0000
  H   H38       1.0  0.04249  0.04312  0.22054  1.0000
  H   H39       1.0  0.23658  0.46616  0.27311  1.0000
  C   C41       1.0  0.06362  0.03764  0.43880  1.0000
  C   C42       1.0  0.99710  0.00992  0.26548  1.0000
  H   H40       1.0  0.03561  0.01154  0.27593  1.0000
  C   C43       1.0  0.30236  0.04223  0.12270  1.0000
  H   H41       1.0  0.01512  0.42599  0.08836  1.0000
  H   H42       1.0  0.01334  0.19572  0.01127  1.0000
  H   H43       1.0  0.11426  0.45399  0.17547  1.0000
  H   H44       1.0  0.27892  0.98120  0.16307  1.0000
  C   C44       1.0  0.06279  0.99357  0.38307  1.0000
  H   H45       1.0  0.07886  0.07152  0.45433  1.0000
  H   H46       1.0  0.04369  0.44896  0.02924  1.0000
  H   H47       1.0  0.98123  0.30589  0.32562  1.0000
  S   S6        1.0  0.98188  0.12458  0.07844  1.0000
  C   C45       1.0  0.01983  0.07166  0.29144  1.0000
  H   H48       1.0  0.20234  0.44659  0.07570  1.0000
  C   C46       1.0  0.00380  0.47397  0.14148  1.0000
  P   P1        1.0  0.04491  0.99289  0.42133  1.0000
  C   C47       1.0  0.04702  0.46757  0.13312  1.0000
  H   H49       1.0  0.04039  0.09491  0.32430  1.0000
  C   C48       1.0  0.29711  0.44926  0.30751  1.0000
  C   C49       1.0  0.01107  0.44836  0.41049  1.0000
  C   C50       1.0  0.11771  0.45967  0.14962  1.0000
  C   C51       1.0  0.99881  0.00350  0.39634  1.0000
  H   H50       1.0  0.22185  0.47396  0.13155  1.0000
  Fe  Fe3       1.0  0.11096  0.98769  0.18271  1.0000
  H   H51       1.0  0.03603  0.40168  0.14398  1.0000
  C   C52       1.0  0.98370  0.30155  0.10382  1.0000
  S   S7        1.0  0.11767  0.47303  0.24676  1.0000
  C   C53       1.0  0.03994  0.47831  0.45026  1.0000
  S   S8        1.0  0.98731  0.33226  0.40507  1.0000
  H   H52       1.0  0.07841  0.03332  0.42165  1.0000
  C   C54       1.0  0.06241  0.06646  0.25341  1.0000
  C   C55       1.0  0.04254  0.44788  0.11173  1.0000
  C   C56       1.0  0.03367  0.40837  0.19794  1.0000
  C   C57       1.0  0.99215  0.12307  0.41273  1.0000
  S   S9        1.0  0.99141  0.34978  0.48457  1.0000
  C   C58       1.0  0.04160  0.05457  0.24310  1.0000
  H   H53       1.0  0.99173  0.30184  0.18961  1.0000
  C   C59       1.0  0.22659  0.00831  0.18937  1.0000
  C   C60       1.0  0.99521  0.44380  0.31489  1.0000
  H   H54       1.0  0.24058  0.99309  0.29480  1.0000
  C   C61       1.0  0.00665  0.10296  0.42116  1.0000
  H   H55       1.0  0.99057  0.00227  0.19629  1.0000
  P   P2        1.0  0.30847  0.02198  0.18671  1.0000
  H   H56       1.0  0.03760  0.97906  0.16464  1.0000
  C   C62       1.0  0.00348  0.38571  0.22777  1.0000
  Fe  Fe4       1.0  0.09591  0.47223  0.29502  1.0000
  H   H57       1.0  0.05747  0.43787  0.10014  1.0000
  C   C63       1.0  0.26721  0.99484  0.17454  1.0000
  H   H58       1.0  0.99330  0.00403  0.13337  1.0000
  H   H59       1.0  0.07812  0.09031  0.29043  1.0000
  H   H60       1.0  0.00097  0.43559  0.39545  1.0000
  C   C64       1.0  0.06409  0.05922  0.45747  1.0000
  H   H61       1.0  0.26215  0.44190  0.32863  1.0000
  C   C65       1.0  0.07354  0.01343  0.33040  1.0000
  H   H62       1.0  0.11252  0.44012  0.06770  1.0000
  H   H63       1.0  0.20734  0.00494  0.19026  1.0000
  S   S10       1.0  0.00851  0.35240  0.00413  1.0000
  C   C66       1.0  0.02009  0.05717  0.26192  1.0000
  H   H64       1.0  0.03153  0.46089  0.36781  1.0000
  H   H65       1.0  0.29011  0.02267  0.25754  1.0000
  C   C67       1.0  0.18338  0.42239  0.04238  1.0000
  H   H66       1.0  0.31031  0.97918  0.44018  1.0000
  C   C68       1.0  0.99815  0.32869  0.24918  1.0000
  C   C69       1.0  0.02199  0.40253  0.22812  1.0000
  C   C70       1.0  0.11229  0.44447  0.12224  1.0000
  C   C71       1.0  0.06036  0.01319  0.36075  1.0000
  C   C72       1.0  0.99788  0.23164  0.48581  1.0000
  H   H67       1.0  0.00330  0.02230  0.39914  1.0000
  C   C73       1.0  0.19064  0.44510  0.05361  1.0000
  H   H68       1.0  0.02756  0.41091  0.25182  1.0000
  C   C74       1.0  0.98815  0.17763  0.37565  1.0000
  C   C75       1.0  0.01938  0.00122  0.27822  1.0000
  C   C76       1.0  0.99948  0.45404  0.12015  1.0000
  H   H69       1.0  0.04816  0.02820  0.36667  1.0000
  C   C77       1.0  0.02720  0.04856  0.48603  1.0000
  H   H70       1.0  0.01012  0.06423  0.42012  1.0000
  C   C78       1.0  0.24229  0.99117  0.17461  1.0000
  H   H71       1.0  0.30988  0.03068  0.31229  1.0000
  H   H72       1.0  0.02319  0.10533  0.43554  1.0000
  H   H73       1.0  0.09424  0.98544  0.44527  1.0000
  C   C79       1.0  0.24165  0.97893  0.27572  1.0000
  C   C80       1.0  0.98669  0.30858  0.16476  1.0000
  C   C81       1.0  0.00120  0.21072  0.00556  1.0000
  H   H74       1.0  0.29522  0.02493  0.11515  1.0000
  C   C82       1.0  0.98049  0.25065  0.48441  1.0000
  H   H75       1.0  0.09869  0.99376  0.29802  1.0000
  C   C83       1.0  0.00767  0.46180  0.29798  1.0000
  C   C84       1.0  0.99632  0.06384  0.15100  1.0000
  C   C85       1.0  0.99508  0.06311  0.18651  1.0000
  C   C86       1.0  0.03228  0.46467  0.02407  1.0000
  H   H76       1.0  0.04275  0.42238  0.48902  1.0000
  P   P3        1.0  0.99397  0.04026  0.24926  1.0000
  C   C87       1.0  0.12636  0.47459  0.08305  1.0000
  C   C88       1.0  0.98820  0.21855  0.39798  1.0000
  H   H77       1.0  0.18947  0.40631  0.05578  1.0000
  H   H78       1.0  0.01717  0.20246  0.36851  1.0000
  C   C89       1.0  0.16830  0.46385  0.00731  1.0000
  C   C90       1.0  0.99002  0.29342  0.13635  1.0000
  H   H79       1.0  0.99592  0.07983  0.20086  1.0000
  C   C91       1.0  0.31048  0.04604  0.15619  1.0000
  H   H80       1.0  0.99701  0.23570  0.40146  1.0000
  C   C92       1.0  0.99401  0.02037  0.14844  1.0000
  H   H81       1.0  0.99479  0.38130  0.25155  1.0000
  H   H82       1.0  0.99756  0.27533  0.13944  1.0000
  H   H83       1.0  0.11599  0.41565  0.01239  1.0000
  C   C93       1.0  0.99651  0.37454  0.19707  1.0000
  H   H84       1.0  0.99701  0.16335  0.36100  1.0000
  H   H85       1.0  0.20357  0.98203  0.26265  1.0000
  C   C94       1.0  0.04328  0.47688  0.41498  1.0000
  C   C95       1.0  0.16870  0.42034  0.01349  1.0000
  H   H86       1.0  0.08911  0.38067  0.01329  1.0000
  H   H87       1.0  0.31217  0.09785  0.08990  1.0000
  C   C96       1.0  0.31178  0.08339  0.10834  1.0000
  H   H88       1.0  0.25360  0.00420  0.50044  1.0000
  C   C97       1.0  0.02093  0.97896  0.29460  1.0000
  H   H89       1.0  0.17780  0.47747  0.12306  1.0000
  H   H90       1.0  0.27221  0.47773  0.23885  1.0000
  H   H91       1.0  0.02934  0.33989  0.65083  1.0000
  H   H92       1.0  0.24405  0.04352  0.71325  1.0000
  S   S11       1.0  0.09456  0.02293  0.68586  1.0000
  Fe  Fe5       1.0  0.01334  0.09911  0.55999  1.0000
  H   H93       1.0  0.98778  0.33143  0.55573  1.0000
  S   S12       1.0  0.05300  0.08779  0.56587  1.0000
  H   H94       1.0  0.07847  0.34749  0.54839  1.0000
  S   S13       1.0  0.99799  0.34104  0.92475  1.0000
  C   C98       1.0  0.24252  0.01272  0.67952  1.0000
  C   C99       1.0  0.09450  0.37181  0.96048  1.0000
  H   H95       1.0  0.00755  0.13200  0.85191  1.0000
  S   S14       1.0  0.10445  0.43547  0.82827  1.0000
  H   H96       1.0  0.01325  0.09542  0.92466  1.0000
  H   H97       1.0  0.19945  0.04802  0.71851  1.0000
  H   H98       1.0  0.09849  0.00259  0.55753  1.0000
  C   C100      1.0  0.01310  0.98496  0.82762  1.0000
  H   H99       1.0  0.03802  0.04502  0.72891  1.0000
  H   H100      1.0  0.22236  0.42684  0.90029  1.0000
  Fe  Fe6       1.0  0.00980  0.37336  0.95538  1.0000
  S   S15       1.0  0.03826  0.40248  0.95127  1.0000
  C   C101      1.0  0.00222  0.14430  0.83182  1.0000
  H   H101      1.0  0.99141  0.44246  0.56765  1.0000
  C   C102      1.0  0.00279  0.42919  0.55472  1.0000
  H   H102      1.0  0.10229  0.36794  0.90705  1.0000
  C   C103      1.0  0.00573  0.13728  0.79786  1.0000
  H   H103      1.0  0.98183  0.45615  0.76017  1.0000
  C   C104      1.0  0.22755  0.99639  0.66249  1.0000
  C   C105      1.0  0.00230  0.24600  0.90773  1.0000
  C   C106      1.0  0.08429  0.42758  0.86127  1.0000
  C   C107      1.0  0.08073  0.44226  0.89003  1.0000
  C   C108      1.0  0.06605  0.43442  0.91687  1.0000
  C   C109      1.0  0.05446  0.41215  0.91512  1.0000
  C   C110      1.0  0.05731  0.39786  0.88583  1.0000
  C   C111      1.0  0.07240  0.40544  0.85923  1.0000
  H   H104      1.0  0.08961  0.45940  0.89193  1.0000
  H   H105      1.0  0.06338  0.44571  0.93911  1.0000
  H   H106      1.0  0.04857  0.38062  0.88421  1.0000
  H   H107      1.0  0.07509  0.39392  0.83713  1.0000
  H   H108      1.0  0.02604  0.00249  0.87273  1.0000
  Fe  Fe7       1.0  0.99294  0.32128  0.97452  1.0000
  C   C112      1.0  0.18838  0.46630  0.65732  1.0000
  C   C113      1.0  0.02256  0.05725  0.73213  1.0000
  S   S16       1.0  0.99267  0.12859  0.58801  1.0000
  H   H109      1.0  0.02123  0.00930  0.55269  1.0000
  C   C114      1.0  0.05145  0.45662  0.77323  1.0000
  C   C115      1.0  0.24866  0.01500  0.55286  1.0000
  C   C116      1.0  0.03687  0.32300  0.66031  1.0000
  C   C117      1.0  0.00844  0.15862  0.94385  1.0000
  C   C118      1.0  0.08177  0.03516  0.64793  1.0000
  C   C119      1.0  0.09682  0.04311  0.62187  1.0000
  C   C120      1.0  0.08757  0.05846  0.59622  1.0000
  C   C121      1.0  0.06321  0.06623  0.59637  1.0000
  C   C122      1.0  0.04794  0.05759  0.62160  1.0000
  C   C123      1.0  0.05715  0.04210  0.64719  1.0000
  H   H110      1.0  0.11593  0.03857  0.62261  1.0000
  H   H111      1.0  0.09960  0.06514  0.57698  1.0000
  H   H112      1.0  0.02927  0.06372  0.62219  1.0000
  H   H113      1.0  0.04542  0.03628  0.66731  1.0000
  H   H114      1.0  0.03834  0.08298  0.87494  1.0000
  C   C124      1.0  0.00251  0.01947  0.96099  1.0000
  C   C125      1.0  0.00771  0.07624  0.84233  1.0000
  H   H115      1.0  0.06703  0.98849  0.82912  1.0000
  C   C126      1.0  0.06416  0.33466  0.54500  1.0000
  H   H116      1.0  0.98390  0.01508  0.96583  1.0000
  C   C127      1.0  0.11345  0.40525  0.98931  1.0000
  H   H117      1.0  0.06943  0.03659  0.94757  1.0000
  H   H118      1.0  0.99070  0.16005  0.95523  1.0000
  C   C128      1.0  0.08087  0.99602  0.56431  1.0000
  C   C129      1.0  0.16657  0.46063  0.67289  1.0000
  H   H119      1.0  0.99438  0.10474  0.69306  1.0000
  C   C130      1.0  0.05670  0.27988  0.68571  1.0000
  C   C131      1.0  0.05040  0.47383  0.56305  1.0000
  C   C132      1.0  0.09837  0.38534  0.99006  1.0000
  C   C133      1.0  0.99707  0.01704  0.62428  1.0000
  H   H120      1.0  0.02857  0.44344  0.84497  1.0000
  C   C134      1.0  0.01725  0.25310  0.58237  1.0000
  P   P4        1.0  0.01625  0.46640  0.51135  1.0000
  C   C135      1.0  0.06062  0.30163  0.70288  1.0000
  H   H121      1.0  0.05607  0.33329  0.59818  1.0000
  C   C136      1.0  0.20233  0.99919  0.66546  1.0000
  C   C137      1.0  0.01718  0.38772  0.54939  1.0000
  C   C138      1.0  0.02632  0.47123  0.88364  1.0000
  C   C139      1.0  0.20729  0.03382  0.70262  1.0000
  C   C140      1.0  0.98437  0.22509  0.58543  1.0000
  C   C141      1.0  0.99719  0.43972  0.87646  1.0000
  C   C142      1.0  0.98259  0.08867  0.73983  1.0000
  C   C143      1.0  0.06671  0.44647  0.74850  1.0000
  H   H122      1.0  0.03043  0.07775  0.68719  1.0000
  C   C144      1.0  0.98982  0.99292  0.62309  1.0000
  C   C145      1.0  0.98513  0.03383  0.64553  1.0000
  C   C146      1.0  0.01812  0.45105  0.86588  1.0000
  H   H123      1.0  0.24105  0.46530  0.69605  1.0000
  C   C147      1.0  0.03973  0.31016  0.50781  1.0000
  C   C148      1.0  0.00819  0.23005  0.57670  1.0000
  H   H124      1.0  0.05586  0.45415  0.79989  1.0000
  C   C149      1.0  0.01880  0.08309  0.87291  1.0000
  H   H125      1.0  0.03883  0.16847  0.87004  1.0000
  C   C150      1.0  0.04241  0.00977  0.93870  1.0000
  H   H126      1.0  0.19982  0.98916  0.74943  1.0000
  H   H127      1.0  0.01200  0.02306  0.60924  1.0000
  H   H128      1.0  0.98513  0.31707  0.66356  1.0000
  C   C151      1.0  0.98064  0.25828  0.90018  1.0000
  C   C152      1.0  0.05132  0.15006  0.95062  1.0000
  P   P5        1.0  0.14305  0.43855  0.95757  1.0000
  C   C153      1.0  0.12459  0.41197  0.95879  1.0000
  C   C154      1.0  0.01052  0.23388  0.99942  1.0000
  H   H129      1.0  0.30362  0.98539  0.50224  1.0000
  H   H130      1.0  0.16294  0.44212  0.67949  1.0000
  H   H131      1.0  0.99141  0.42341  0.86366  1.0000
  H   H132      1.0  0.17277  0.01962  0.68802  1.0000
  Fe  Fe8       1.0  0.11731  0.47333  0.81649  1.0000
  C   C155      1.0  0.98057  0.33501  0.58087  1.0000
  C   C156      1.0  0.01565  0.98769  0.86292  1.0000
  H   H133      1.0  0.01906  0.07108  0.82107  1.0000
  H   H134      1.0  0.06438  0.26316  0.69559  1.0000
  C   C157      1.0  0.12066  0.39813  0.92921  1.0000
  C   C158      1.0  0.16313  0.43712  0.92129  1.0000
  C   C159      1.0  0.15398  0.44142  0.88849  1.0000
  C   C160      1.0  0.16925  0.44029  0.86020  1.0000
  C   C161      1.0  0.19391  0.43520  0.86447  1.0000
  H   H135      1.0  0.01684  0.36910  0.55747  1.0000
  C   C162      1.0  0.18792  0.43171  0.92539  1.0000
  C   C163      1.0  0.00282  0.40527  0.56587  1.0000
  C   C164      1.0  0.00473  0.09013  0.90092  1.0000
  H   H136      1.0  0.08214  0.35690  0.96079  1.0000
  C   C165      1.0  0.03547  0.16317  0.89606  1.0000
  H   H137      1.0  0.10433  0.00680  0.85182  1.0000
  C   C166      1.0  0.03273  0.30118  0.64295  1.0000
  H   H138      1.0  0.07129  0.30179  0.72608  1.0000
  S   S17       1.0  0.13678  0.47712  0.76647  1.0000
  C   C167      1.0  0.98710  0.07070  0.76428  1.0000
  H   H139      1.0  0.06138  0.02377  0.53678  1.0000
  C   C168      1.0  0.02808  0.15167  0.96432  1.0000
  C   C169      1.0  0.05503  0.15582  0.91648  1.0000
  C   C170      1.0  0.19227  0.01781  0.68548  1.0000
  H   H140      1.0  0.13495  0.44559  0.88477  1.0000
  H   H141      1.0  0.02985  0.23635  0.00042  1.0000
  H   H142      1.0  0.01713  0.25577  0.91901  1.0000
  H   H143      1.0  0.03998  0.26252  0.64315  1.0000
  C   C171      1.0  0.10581  0.37808  0.93018  1.0000
  C   C172      1.0  0.00250  0.27138  0.59697  1.0000
  C   C173      1.0  0.99198  0.46939  0.92207  1.0000
  H   H144      1.0  0.19553  0.42816  0.95030  1.0000
  H   H145      1.0  0.04701  0.45562  0.57121  1.0000
  C   C174      1.0  0.00686  0.05459  0.75965  1.0000
  C   C175      1.0  0.06158  0.45001  0.71403  1.0000
  H   H146      1.0  0.12845  0.40291  0.90506  1.0000
  C   C176      1.0  0.03258  0.31010  0.56891  1.0000
  C   C177      1.0  0.01192  0.16421  0.90945  1.0000
  C   C178      1.0  0.05996  0.00793  0.55262  1.0000
  S   S18       1.0  0.99010  0.10832  0.99850  1.0000
  C   C179      1.0  0.04282  0.27961  0.65587  1.0000
  H   H147      1.0  0.07380  0.44267  0.69489  1.0000
  C   C180      1.0  0.05071  0.32318  0.69017  1.0000
  H   H148      1.0  0.24330  0.02063  0.60641  1.0000
  H   H149      1.0  0.01021  0.04003  0.77742  1.0000
  Fe  Fe9       1.0  0.10857  0.98420  0.69249  1.0000
  H   H150      1.0  0.03819  0.46683  0.67747  1.0000
  H   H151      1.0  0.99127  0.40026  0.58679  1.0000
  C   C181      1.0  0.01830  0.07563  0.70854  1.0000
  C   C182      1.0  0.01441  0.46329  0.99892  1.0000
  H   H152      1.0  0.01225  0.44646  0.98500  1.0000
  S   S19       1.0  0.98622  0.07093  0.56979  1.0000
  C   C183      1.0  0.98981  0.32282  0.60942  1.0000
  H   H153      1.0  0.20170  0.45217  0.65179  1.0000
  P   P6        1.0  0.01442  0.30106  0.60469  1.0000
  H   H154      1.0  0.23883  0.00710  0.76704  1.0000
  H   H155      1.0  0.03570  0.25668  0.57518  1.0000
  C   C184      1.0  0.03721  0.99981  0.56209  1.0000
  H   H156      1.0  0.19032  0.98694  0.65264  1.0000
  H   H157      1.0  0.05371  0.34005  0.70355  1.0000
  C   C185      1.0  0.99513  0.25389  0.99224  1.0000
  C   C186      1.0  0.20324  0.43087  0.89705  1.0000
  H   H158      1.0  0.20607  0.47636  0.73337  1.0000
  C   C187      1.0  0.23239  0.03130  0.69958  1.0000
  H   H159      1.0  0.16189  0.44344  0.83494  1.0000
  H   H160      1.0  0.02124  0.21201  0.90944  1.0000
  C   C188      1.0  0.98772  0.17517  0.77928  1.0000
  H   H161      1.0  0.13222  0.47445  0.69121  1.0000
  C   C189      1.0  0.98235  0.07611  0.83969  1.0000
  C   C190      1.0  0.10052  0.98813  0.85726  1.0000
  H   H162      1.0  0.01394  0.11980  0.79186  1.0000
  C   C191      1.0  0.10143  0.46608  0.97312  1.0000
  H   H163      1.0  0.06647  0.14476  0.96669  1.0000
  H   H164      1.0  0.02526  0.14793  0.99108  1.0000
  C   C192      1.0  0.99817  0.09109  0.71214  1.0000
  H   H165      1.0  0.07315  0.15509  0.90606  1.0000
  H   H166      1.0  0.24890  0.03415  0.54742  1.0000
  C   C193      1.0  0.24542  0.00724  0.58634  1.0000
  S   S20       1.0  0.99754  0.10993  0.50896  1.0000
  H   H167      1.0  0.05496  0.99742  0.92596  1.0000
  C   C194      1.0  0.03519  0.98010  0.58419  1.0000
  C   C195      1.0  0.01676  0.43562  0.52650  1.0000
  H   H168      1.0  0.08276  0.43625  0.75616  1.0000
  C   C196      1.0  0.01824  0.00336  0.94371  1.0000
  C   C197      1.0  0.05069  0.03190  0.95087  1.0000
  C   C198      1.0  0.00449  0.22108  0.90229  1.0000
  C   C199      1.0  0.25136  0.99813  0.52641  1.0000
  H   H169      1.0  0.09560  0.45100  0.98801  1.0000
  H   H170      1.0  0.01946  0.21607  0.56496  1.0000
  H   H171      1.0  0.26202  0.01102  0.67766  1.0000
  C   C200      1.0  0.05139  0.32649  0.57324  1.0000
  C   C201      1.0  0.03494  0.04774  0.96823  1.0000
  H   H172      1.0  0.00096  0.14716  0.74523  1.0000
  H   H173      1.0  0.02158  0.99741  0.81051  1.0000
  H   H174      1.0  0.13324  0.98235  0.88573  1.0000
  C   C202      1.0  0.04127  0.46383  0.70424  1.0000
  H   H175      1.0  0.20574  0.43462  0.84249  1.0000
  C   C203      1.0  0.99172  0.16700  0.83981  1.0000
  C   C204      1.0  0.16066  0.44111  0.99614  1.0000
  C   C205      1.0  0.98426  0.44870  0.90455  1.0000
  C   C206      1.0  0.99840  0.15267  0.77158  1.0000
  S   S21       1.0  0.00819  0.28271  0.98444  1.0000
  S   S22       1.0  0.28474  0.98680  0.78838  1.0000
  C   C207      1.0  0.12336  0.46502  0.95515  1.0000
  H   H176      1.0  0.04141  0.06462  0.97858  1.0000
  C   C208      1.0  0.24476  0.98249  0.59355  1.0000
  C   C209      1.0  0.03163  0.39410  0.52193  1.0000
  C   C210      1.0  0.98499  0.20821  0.88891  1.0000
  C   C211      1.0  0.23709  0.98770  0.76686  1.0000
  H   H177      1.0  0.99058  0.05250  0.64621  1.0000
  C   C212      1.0  0.01089  0.04154  0.97317  1.0000
  H   H178      1.0  0.01210  0.28987  0.53170  1.0000
  C   C213      1.0  0.03160  0.41797  0.51067  1.0000
  H   H179      1.0  0.99881  0.05367  0.98712  1.0000
  C   C214      1.0  0.03114  0.47047  0.76356  1.0000
  H   H180      1.0  0.04238  0.38044  0.50858  1.0000
  H   H181      1.0  0.98203  0.18710  0.75886  1.0000
  C   C215      1.0  0.98443  0.18237  0.81325  1.0000
  H   H182      1.0  0.01334  0.05269  0.50477  1.0000
  P   P7        1.0  0.98704  0.17573  0.88386  1.0000
  C   C216      1.0  0.02584  0.47423  0.72893  1.0000
  C   C217      1.0  0.05825  0.32659  0.51228  1.0000
  C   C218      1.0  0.02688  0.30203  0.53593  1.0000
  H   H183      1.0  0.08909  0.83595  0.49248  1.0000
  C   C219      1.0  0.99061  0.94039  0.16794  1.0000
  S   S23       1.0  0.03944  0.82642  0.45897  1.0000
  H   H184      1.0  0.02185  0.94648  0.40802  1.0000
  H   H185      1.0  0.28211  0.93960  0.23930  1.0000
  S   S24       1.0  0.99926  0.83903  0.39799  1.0000
  Fe  Fe10      1.0  0.00163  0.81592  0.44548  1.0000
  C   C220      1.0  0.01392  0.70602  0.49864  1.0000
  Fe  Fe11      1.0  0.03636  0.85091  0.41319  1.0000
  S   S25       1.0  0.06599  0.85136  0.37331  1.0000
  C   C221      1.0  0.00439  0.81995  0.29937  1.0000
  S   S26       1.0  0.02298  0.88292  0.44357  1.0000
  Fe  Fe12      1.0  0.15497  0.95468  0.20314  1.0000
  S   S27       1.0  0.19618  0.94711  0.20657  1.0000
  Fe  Fe13      1.0  0.11548  0.93575  0.15581  1.0000
  S   S28       1.0  0.08587  0.95668  0.18202  1.0000
  S   S29       1.0  0.11081  0.91012  0.11081  1.0000
  Fe  Fe14      1.0  0.10366  0.94568  0.23114  1.0000
  S   S30       1.0  0.07659  0.94085  0.27422  1.0000
  S   S31       1.0  0.13988  0.96760  0.15259  1.0000
  S   S32       1.0  0.13144  0.92179  0.20486  1.0000
  Fe  Fe15      1.0  0.09977  0.50929  0.23821  1.0000
  S   S33       1.0  0.12991  0.52919  0.26394  1.0000
  S   S34       1.0  0.08351  0.51320  0.18535  1.0000
  Fe  Fe16      1.0  0.10807  0.52447  0.31181  1.0000
  S   S35       1.0  0.10561  0.55674  0.34785  1.0000
  Fe  Fe17      1.0  0.14625  0.49270  0.27602  1.0000
  S   S36       1.0  0.07662  0.50770  0.28484  1.0000
  Fe  Fe18      1.0  0.99396  0.63992  0.02090  1.0000
  C   C222      1.0  0.01196  0.68989  0.36418  1.0000
  Fe  Fe19      1.0  0.01164  0.60673  0.07850  1.0000
  S   S37       1.0  0.99522  0.57347  0.05620  1.0000
  S   S38       1.0  0.03145  0.60820  0.12921  1.0000
  H   H186      1.0  0.98275  0.91809  0.21140  1.0000
  S   S39       1.0  0.02825  0.55898  0.46686  1.0000
  S   S40       1.0  0.02843  0.61788  0.02910  1.0000
  C   C223      1.0  0.10551  0.65730  0.46654  1.0000
  C   C224      1.0  0.98078  0.54154  0.16179  1.0000
  S   S41       1.0  0.01033  0.90140  0.03377  1.0000
  C   C225      1.0  0.03433  0.68567  0.38041  1.0000
  H   H187      1.0  0.03948  0.67161  0.31185  1.0000
  C   C226      1.0  0.08473  0.55689  0.38175  1.0000
  C   C227      1.0  0.06716  0.53927  0.38383  1.0000
  C   C228      1.0  0.04991  0.54045  0.40998  1.0000
  C   C229      1.0  0.05032  0.55889  0.43462  1.0000
  C   C230      1.0  0.06800  0.57646  0.43282  1.0000
  C   C231      1.0  0.08519  0.57541  0.40642  1.0000
  H   H188      1.0  0.06675  0.52489  0.36507  1.0000
  H   H189      1.0  0.03612  0.52705  0.41115  1.0000
  H   H190      1.0  0.06839  0.59081  0.45166  1.0000
  H   H191      1.0  0.09895  0.58893  0.40523  1.0000
  C   C232      1.0  0.06870  0.53969  0.17080  1.0000
  C   C233      1.0  0.06698  0.56061  0.19088  1.0000
  C   C234      1.0  0.05564  0.58159  0.17778  1.0000
  C   C235      1.0  0.04562  0.58161  0.14483  1.0000
  C   C236      1.0  0.04719  0.56060  0.12494  1.0000
  C   C237      1.0  0.05878  0.53976  0.13785  1.0000
  H   H192      1.0  0.07466  0.56068  0.21625  1.0000
  H   H193      1.0  0.05450  0.59781  0.19323  1.0000
  H   H194      1.0  0.03964  0.56048  0.09952  1.0000
  H   H195      1.0  0.06011  0.52364  0.12220  1.0000
  C   C238      1.0  0.99871  0.74980  0.46600  1.0000
  H   H196      1.0  0.01636  0.93329  0.24641  1.0000
  H   H197      1.0  0.23504  0.97467  0.16407  1.0000
  C   C239      1.0  0.19331  0.53400  0.09857  1.0000
  H   H198      1.0  0.02311  0.52317  0.04897  1.0000
  C   C240      1.0  0.99452  0.93142  0.20090  1.0000
  C   C241      1.0  0.07408  0.91567  0.30130  1.0000
  C   C242      1.0  0.05735  0.91696  0.32818  1.0000
  C   C243      1.0  0.05470  0.89739  0.35038  1.0000
  C   C244      1.0  0.06867  0.87626  0.34574  1.0000
  C   C245      1.0  0.08525  0.87489  0.31868  1.0000
  C   C246      1.0  0.08798  0.89452  0.29652  1.0000
  H   H199      1.0  0.04657  0.93325  0.33215  1.0000
  H   H200      1.0  0.04201  0.89869  0.37124  1.0000
  H   H201      1.0  0.09618  0.85864  0.31502  1.0000
  H   H202      1.0  0.10089  0.89333  0.27589  1.0000
  C   C247      1.0  0.03811  0.90274  0.05570  1.0000
  C   C248      1.0  0.04045  0.91946  0.08248  1.0000
  C   C249      1.0  0.06256  0.92176  0.09975  1.0000
  C   C250      1.0  0.08256  0.90737  0.09028  1.0000
  C   C251      1.0  0.08016  0.89044  0.06371  1.0000
  C   C252      1.0  0.05796  0.88805  0.04653  1.0000
  H   H203      1.0  0.02520  0.93090  0.08962  1.0000
  H   H204      1.0  0.06419  0.93488  0.12009  1.0000
  H   H205      1.0  0.09558  0.87927  0.05626  1.0000
  H   H206      1.0  0.98387  0.80320  0.24249  1.0000
  C   C253      1.0  0.22162  0.95456  0.23250  1.0000
  C   C254      1.0  0.24405  0.94275  0.22619  1.0000
  C   C255      1.0  0.26511  0.94891  0.24450  1.0000
  C   C256      1.0  0.26406  0.96713  0.26938  1.0000
  H   H207      1.0  0.24514  0.92878  0.20682  1.0000
  H   H208      1.0  0.98347  0.58027  0.16360  1.0000
  H   H209      1.0  0.02455  0.52510  0.33350  1.0000
  S   S42       1.0  0.27703  0.51219  0.18249  1.0000
  C   C257      1.0  0.02319  0.63540  0.39570  1.0000
  H   H210      1.0  0.00888  0.58034  0.21559  1.0000
  C   C258      1.0  0.05891  0.64494  0.34219  1.0000
  H   H211      1.0  0.03819  0.97243  0.30448  1.0000
  H   H212      1.0  0.02395  0.95794  0.46901  1.0000
  C   C259      1.0  0.04516  0.79940  0.06498  1.0000
  C   C260      1.0  0.02028  0.68998  0.08568  1.0000
  C   C261      1.0  0.03890  0.67976  0.10528  1.0000
  C   C262      1.0  0.05390  0.69465  0.12449  1.0000
  C   C263      1.0  0.05020  0.71976  0.12424  1.0000
  C   C264      1.0  0.03121  0.73010  0.10502  1.0000
  C   C265      1.0  0.01644  0.71500  0.08557  1.0000
  P   P8        1.0  0.02612  0.76247  0.10388  1.0000
  C   C266      1.0  0.99383  0.76847  0.10351  1.0000
  C   C267      1.0  0.03962  0.77605  0.14119  1.0000
  C   C268      1.0  0.02630  0.77945  0.17133  1.0000
  C   C269      1.0  0.03729  0.78917  0.20037  1.0000
  C   C270      1.0  0.06149  0.79582  0.19939  1.0000
  C   C271      1.0  0.07482  0.79257  0.16951  1.0000
  C   C272      1.0  0.06404  0.78249  0.14063  1.0000
  C   C273      1.0  0.02775  0.48068  0.14779  1.0000
  H   H213      1.0  0.08078  0.61591  0.36377  1.0000
  C   C274      1.0  0.02105  0.74822  0.48281  1.0000
  H   H214      1.0  0.98359  0.71602  0.35285  1.0000
  C   C275      1.0  0.21161  0.49099  0.24871  1.0000
  C   C276      1.0  0.21386  0.49044  0.12130  1.0000
  H   H215      1.0  0.06403  0.93895  0.01670  1.0000
  C   C277      1.0  0.00261  0.50502  0.01019  1.0000
  H   H216      1.0  0.99531  0.51833  0.45036  1.0000
  C   C278      1.0  0.98681  0.95518  0.38740  1.0000
  S   S43       1.0  0.98451  0.84569  0.47745  1.0000
  Fe  Fe20      1.0  0.02229  0.85777  0.48790  1.0000
  H   H217      1.0  0.04176  0.66030  0.10534  1.0000
  H   H218      1.0  0.06847  0.68665  0.13939  1.0000
  H   H219      1.0  0.06216  0.73092  0.13903  1.0000
  H   H220      1.0  0.00379  0.74972  0.38250  1.0000
  H   H221      1.0  0.00757  0.77440  0.17265  1.0000
  H   H222      1.0  0.02712  0.79141  0.22374  1.0000
  H   H223      1.0  0.07003  0.80332  0.22184  1.0000
  H   H224      1.0  0.09363  0.79765  0.16880  1.0000
  H   H225      1.0  0.07487  0.77955  0.11795  1.0000
  H   H226      1.0  0.99494  0.79735  0.06651  1.0000
  C   C279      1.0  0.99328  0.89038  0.12593  1.0000
  S   S44       1.0  0.12809  0.97764  0.23316  1.0000
  C   C280      1.0  0.17836  0.51431  0.10446  1.0000
  C   C281      1.0  0.99036  0.87550  0.27135  1.0000
  H   H227      1.0  0.04472  0.65351  0.45739  1.0000
  C   C282      1.0  0.98134  0.49246  0.32376  1.0000
  H   H228      1.0  0.24796  0.50834  0.11898  1.0000
  C   C283      1.0  0.00939  0.54162  0.22063  1.0000
  H   H229      1.0  0.11128  0.56071  0.10878  1.0000
  H   H230      1.0  0.17006  0.53270  0.03844  1.0000
  C   C284      1.0  0.07519  0.62509  0.34074  1.0000
  H   H231      1.0  0.05777  0.48661  0.40314  1.0000
  H   H232      1.0  0.04326  0.74271  0.41084  1.0000
  H   H233      1.0  0.08414  0.62149  0.25513  1.0000
  C   C285      1.0  0.15074  0.53511  0.03553  1.0000
  C   C286      1.0  0.98657  0.60482  0.41712  1.0000
  H   H234      1.0  0.05948  0.82813  0.03493  1.0000
  C   C287      1.0  0.14915  0.55725  0.19175  1.0000
  C   C288      1.0  0.25133  0.53489  0.35014  1.0000
  C   C289      1.0  0.23355  0.52691  0.32732  1.0000
  C   C290      1.0  0.20912  0.53235  0.33323  1.0000
  C   C291      1.0  0.20223  0.54629  0.36151  1.0000
  C   C292      1.0  0.21986  0.55507  0.38370  1.0000
  C   C293      1.0  0.24436  0.54958  0.37790  1.0000
  C   C294      1.0  0.08431  0.61677  0.30952  1.0000
  C   C295      1.0  0.30813  0.92387  0.11472  1.0000
  H   H235      1.0  0.00206  0.72261  0.07005  1.0000
  C   C296      1.0  0.30073  0.58222  0.25744  1.0000
  C   C297      1.0  0.99292  0.54573  0.31680  1.0000
  H   H236      1.0  0.03890  0.59501  0.29346  1.0000
  C   C298      1.0  0.12201  0.55923  0.13165  1.0000
  H   H237      1.0  0.00689  0.89706  0.14325  1.0000
  C   C299      1.0  0.00260  0.56341  0.20528  1.0000
  C   C300      1.0  0.03483  0.72803  0.39717  1.0000
  H   H238      1.0  0.10243  0.95877  0.33654  1.0000
  H   H239      1.0  0.30492  0.59484  0.23749  1.0000
  C   C301      1.0  0.98399  0.51972  0.39780  1.0000
  C   C302      1.0  0.09296  0.95996  0.48600  1.0000
  H   H240      1.0  0.23852  0.51643  0.30491  1.0000
  H   H241      1.0  0.19550  0.52571  0.31578  1.0000
  H   H242      1.0  0.18323  0.55043  0.36597  1.0000
  H   H243      1.0  0.21451  0.56624  0.40527  1.0000
  H   H244      1.0  0.25778  0.55702  0.39484  1.0000
  H   H245      1.0  0.04926  0.48738  0.06163  1.0000
  C   C303      1.0  0.31294  0.96919  0.49315  1.0000
  C   C304      1.0  0.08115  0.65581  0.47529  1.0000
  C   C305      1.0  0.09456  0.65680  0.40675  1.0000
  C   C306      1.0  0.10975  0.53145  0.05615  1.0000
  C   C307      1.0  0.98779  0.51951  0.17673  1.0000
  H   H246      1.0  0.16580  0.52515  0.17101  1.0000
  H   H247      1.0  0.27839  0.52616  0.26743  1.0000
  C   C308      1.0  0.05185  0.86404  0.16694  1.0000
  C   C309      1.0  0.06444  0.88412  0.17826  1.0000
  C   C310      1.0  0.05902  0.89452  0.20987  1.0000
  C   C311      1.0  0.04089  0.88504  0.23022  1.0000
  C   C312      1.0  0.02768  0.86525  0.21870  1.0000
  C   C313      1.0  0.03362  0.85452  0.18712  1.0000
  P   P9        1.0  0.00486  0.85223  0.24538  1.0000
  S   S45       1.0  0.18677  0.48201  0.27436  1.0000
  C   C314      1.0  0.01876  0.83137  0.27514  1.0000
  C   C315      1.0  0.04404  0.82856  0.27705  1.0000
  C   C316      1.0  0.05465  0.81404  0.30222  1.0000
  C   C317      1.0  0.04019  0.80238  0.32580  1.0000
  H   H248      1.0  0.98033  0.69189  0.48051  1.0000
  H   H249      1.0  0.98287  0.94006  0.07517  1.0000
  H   H250      1.0  0.06271  0.70231  0.41019  1.0000
  H   H251      1.0  0.15977  0.55651  0.21497  1.0000
  H   H252      1.0  0.02100  0.54163  0.24288  1.0000
  C   C318      1.0  0.02851  0.95764  0.20817  1.0000
  H   H253      1.0  0.08147  0.54311  0.02154  1.0000
  C   C319      1.0  0.21835  0.53168  0.10310  1.0000
  C   C320      1.0  0.03943  0.77482  0.06599  1.0000
  H   H254      1.0  0.03871  0.60298  0.37212  1.0000
  C   C321      1.0  0.03537  0.48621  0.04223  1.0000
  H   H255      1.0  0.30358  0.51803  0.46347  1.0000
  C   C322      1.0  0.00139  0.88258  0.30202  1.0000
  H   H256      1.0  0.05641  0.85589  0.14253  1.0000
  H   H257      1.0  0.07864  0.89150  0.16277  1.0000
  H   H258      1.0  0.06911  0.90985  0.21870  1.0000
  H   H259      1.0  0.03752  0.89312  0.25498  1.0000
  H   H260      1.0  0.02432  0.83876  0.17800  1.0000
  H   H261      1.0  0.05572  0.83827  0.26017  1.0000
  H   H262      1.0  0.07417  0.81280  0.30463  1.0000
  C   C323      1.0  0.27080  0.47945  0.33407  1.0000
  C   C324      1.0  0.29617  0.92776  0.08379  1.0000
  C   C325      1.0  0.06096  0.64782  0.28044  1.0000
  H   H263      1.0  0.28039  0.93972  0.08284  1.0000
  C   C326      1.0  0.02609  0.58139  0.30017  1.0000
  C   C327      1.0  0.22862  0.50989  0.11437  1.0000
  C   C328      1.0  0.15252  0.53946  0.16668  1.0000
  H   H264      1.0  0.11806  0.94297  0.04831  1.0000
  C   C329      1.0  0.98371  0.78649  0.08254  1.0000
  H   H265      1.0  0.09679  0.60135  0.30879  1.0000
  C   C330      1.0  0.13906  0.54030  0.13627  1.0000
  C   C331      1.0  0.10082  0.54083  0.02550  1.0000
  H   H266      1.0  0.01861  0.87464  0.30985  1.0000
  H   H267      1.0  0.12277  0.80610  0.48539  1.0000
  C   C332      1.0  0.05531  0.80913  0.03571  1.0000
  C   C333      1.0  0.02387  0.61079  0.38659  1.0000
  C   C334      1.0  0.01781  0.54172  0.32220  1.0000
  C   C335      1.0  0.20929  0.50880  0.22376  1.0000
  H   H268      1.0  0.11212  0.96086  0.49153  1.0000
  H   H269      1.0  0.10006  0.65810  0.38042  1.0000
  C   C336      1.0  0.00406  0.64440  0.41600  1.0000
  C   C337      1.0  0.99010  0.89962  0.32338  1.0000
  H   H270      1.0  0.05632  0.87522  0.02580  1.0000
  C   C338      1.0  0.99180  0.70743  0.48124  1.0000
  H   H271      1.0  0.19193  0.51764  0.21972  1.0000
  H   H272      1.0  0.05541  0.65656  0.25699  1.0000
  C   C339      1.0  0.29433  0.52301  0.41053  1.0000
  C   C340      1.0  0.22950  0.51517  0.20407  1.0000
  C   C341      1.0  0.12153  0.94107  0.02118  1.0000
  P   P10       1.0  0.04691  0.65526  0.38284  1.0000
  H   H273      1.0  0.09709  0.52644  0.07578  1.0000
  H   H274      1.0  0.28704  0.55550  0.22265  1.0000
  C   C342      1.0  0.02550  0.96574  0.17477  1.0000
  C   C343      1.0  0.05366  0.94414  0.49873  1.0000
  C   C344      1.0  0.28595  0.54334  0.27454  1.0000
  H   H275      1.0  0.30281  0.57686  0.34347  1.0000
  H   H276      1.0  0.22737  0.52890  0.18480  1.0000
  H   H277      1.0  0.03857  0.74153  0.03645  1.0000
  H   H278      1.0  0.03275  0.76357  0.48286  1.0000
  H   H279      1.0  0.13166  0.49370  0.16551  1.0000
  C   C345      1.0  0.00051  0.48605  0.30188  1.0000
  C   C346      1.0  0.29068  0.54897  0.30877  1.0000
  H   H280      1.0  0.00990  0.49956  0.28762  1.0000
  H   H281      1.0  0.98585  0.84473  0.06844  1.0000
  C   C347      1.0  0.00186  0.51977  0.20662  1.0000
  H   H282      1.0  0.07914  0.95793  0.38987  1.0000
  C   C348      1.0  0.98432  0.72913  0.46505  1.0000
  C   C349      1.0  0.98210  0.52553  0.43242  1.0000
  C   C350      1.0  0.13421  0.92076  0.00884  1.0000
  H   H283      1.0  0.18935  0.48335  0.04414  1.0000
  C   C351      1.0  0.28758  0.49738  0.32702  1.0000
  C   C352      1.0  0.11222  0.65782  0.43227  1.0000
  H   H284      1.0  0.10506  0.59115  0.15334  1.0000
  C   C353      1.0  0.12752  0.48231  0.14384  1.0000
  C   C354      1.0  0.29076  0.56001  0.24904  1.0000
  S   S46       1.0  0.12591  0.48891  0.32572  1.0000
  H   H285      1.0  0.99156  0.52098  0.00505  1.0000
  C   C355      1.0  0.25240  0.50404  0.20916  1.0000
  C   C356      1.0  0.07008  0.65446  0.41536  1.0000
  C   C357      1.0  0.07719  0.62810  0.27934  1.0000
  C   C358      1.0  0.04574  0.70499  0.39681  1.0000
  C   C359      1.0  0.01507  0.80524  0.32428  1.0000
  H   H286      1.0  0.14051  0.90705  0.02657  1.0000
  P   P11       1.0  0.14584  0.51857  0.10269  1.0000
  C   C360      1.0  0.98832  0.56336  0.17590  1.0000
  H   H287      1.0  0.25416  0.48376  0.34743  1.0000
  C   C361      1.0  0.30522  0.58809  0.29151  1.0000
  C   C362      1.0  0.00917  0.96096  0.40157  1.0000
  H   H288      1.0  0.00177  0.94794  0.31096  1.0000
  H   H289      1.0  0.12987  0.47992  0.05709  1.0000
  C   C363      1.0  0.11852  0.57685  0.15696  1.0000
  H   H290      1.0  0.22981  0.54698  0.09894  1.0000
  C   C364      1.0  0.03432  0.55938  0.31343  1.0000
  H   H291      1.0  0.05356  0.55612  0.31718  1.0000
  C   C365      1.0  0.18884  0.49259  0.11646  1.0000
  C   C366      1.0  0.25481  0.48651  0.23452  1.0000
  H   H292      1.0  0.18553  0.55136  0.09139  1.0000
  C   C367      1.0  0.05190  0.65627  0.31171  1.0000
  C   C368      1.0  0.02058  0.50636  0.03522  1.0000
  C   C369      1.0  0.98305  0.83808  0.21761  1.0000
  C   C370      1.0  0.00133  0.58597  0.29616  1.0000
  C   C371      1.0  0.00559  0.59560  0.39727  1.0000
  H   H293      1.0  0.04283  0.96468  0.22405  1.0000
  C   C372      1.0  0.99827  0.86913  0.10747  1.0000
  C   C373      1.0  0.13482  0.52927  0.06188  1.0000
  P   P12       1.0  0.28283  0.52803  0.34165  1.0000
  H   H294      1.0  0.01560  0.85991  0.11023  1.0000
  H   H295      1.0  0.30156  0.93267  0.13778  1.0000
  C   C374      1.0  0.06351  0.65428  0.44987  1.0000
  H   H296      1.0  0.99493  0.60327  0.28657  1.0000
  H   H297      1.0  0.00353  0.66303  0.42469  1.0000
  H   H298      1.0  0.04150  0.81115  0.08660  1.0000
  C   C375      1.0  0.00036  0.96508  0.29807  1.0000
  C   C376      1.0  0.13200  0.57583  0.18705  1.0000
  C   C377      1.0  0.13178  0.49002  0.11049  1.0000
  S   S47       1.0  0.98828  0.77672  0.44485  1.0000
  S   S48       1.0  0.29007  0.97626  0.29286  1.0000
  C   C378      1.0  0.29981  0.57172  0.31718  1.0000
  H   H299      1.0  0.99849  0.90440  0.34740  1.0000
  H   H300      1.0  0.03184  0.49606  0.16372  1.0000
  C   C379      1.0  0.01253  0.73200  0.38119  1.0000
  H   H301      1.0  0.00511  0.96309  0.12859  1.0000
  C   C380      1.0  0.98152  0.86059  0.08382  1.0000
  H   H302      1.0  0.12909  0.58933  0.20679  1.0000
  H   H303      1.0  0.29499  0.91941  0.03037  1.0000
  C   C381      1.0  0.00114  0.71297  0.36459  1.0000
  H   H304      1.0  0.99868  0.50790  0.38935  1.0000
  H   H305      1.0  0.04853  0.79199  0.34615  1.0000
  H   H306      1.0  0.00746  0.50302  0.21866  1.0000
  H   H307      1.0  0.11911  0.65837  0.48637  1.0000
  Fe  Fe21      1.0  0.98582  0.86958  0.43175  1.0000
  C   C382      1.0  0.04350  0.76031  0.03699  1.0000
  C   C383      1.0  0.05354  0.77015  0.00771  1.0000
  H   H308      1.0  0.98578  0.73981  0.13865  1.0000
  H   H309      1.0  0.00664  0.57648  0.39120  1.0000
  H   H310      1.0  0.10337  0.97453  0.00829  1.0000
  C   C384      1.0  0.30935  0.49089  0.31082  1.0000
  C   C385      1.0  0.30437  0.91602  0.05417  1.0000
  C   C386      1.0  0.04330  0.95821  0.47282  1.0000
  H   H311      1.0  0.00891  0.67852  0.07023  1.0000
  H   H312      1.0  0.28397  0.87221  0.02479  1.0000
  H   H313      1.0  0.00395  0.79688  0.34338  1.0000
  C   C387      1.0  0.05948  0.79450  0.00706  1.0000
  C   C388      1.0  0.07785  0.97383  0.37402  1.0000
  H   H314      1.0  0.13109  0.65932  0.42548  1.0000
  H   H315      1.0  0.98496  0.82299  0.29969  1.0000
  C   C389      1.0  0.22055  0.97263  0.25761  1.0000
  C   C390      1.0  0.01340  0.94007  0.22091  1.0000
  H   H316      1.0  0.00259  0.67517  0.35204  1.0000
  C   C391      1.0  0.00689  0.95682  0.15448  1.0000
  C   C392      1.0  0.30223  0.53072  0.37854  1.0000
  C   C393      1.0  0.02851  0.72657  0.49906  1.0000
  H   H317      1.0  0.27629  0.51616  0.41360  1.0000
  H   H318      1.0  0.98206  0.93646  0.38433  1.0000
  H   H319      1.0  0.98665  0.92541  0.49130  1.0000
  C   C394      1.0  0.09104  0.97418  0.34373  1.0000
  Fe  Fe22      1.0  0.00888  0.58668  0.00590  1.0000
  H   H320      1.0  0.05210  0.48927  0.46489  1.0000
  C   C395      1.0  0.98478  0.56834  0.30478  1.0000
  C   C396      1.0  0.14173  0.54430  0.00478  1.0000
  C   C397      1.0  0.23453  0.47997  0.25394  1.0000
  C   C398      1.0  0.98570  0.62922  0.42623  1.0000
  C   C399      1.0  0.30982  0.52381  0.43877  1.0000
  C   C400      1.0  0.08277  0.97373  0.45972  1.0000
  C   C401      1.0  0.05790  0.97278  0.45270  1.0000
  H   H321      1.0  0.98023  0.51556  0.09381  1.0000
  H   H322      1.0  0.31286  0.60536  0.29807  1.0000
  C   C402      1.0  0.02201  0.52250  0.82508  1.0000
  C   C403      1.0  0.99322  0.60763  0.79004  1.0000
  S   S49       1.0  0.02433  0.84218  0.97231  1.0000
  S   S50       1.0  0.02571  0.87149  0.54230  1.0000
  H   H323      1.0  0.26936  0.93630  0.78414  1.0000
  C   C404      1.0  0.29469  0.95410  0.70378  1.0000
  C   C405      1.0  0.26908  0.87065  0.97425  1.0000
  C   C406      1.0  0.16812  0.53613  0.57592  1.0000
  Fe  Fe23      1.0  0.01751  0.85622  0.91907  1.0000
  S   S51       1.0  0.05014  0.85573  0.88376  1.0000
  C   C407      1.0  0.13795  0.55477  0.61283  1.0000
  S   S52       1.0  0.00030  0.89117  0.93670  1.0000
  Fe  Fe24      1.0  0.14760  0.94931  0.72230  1.0000
  S   S53       1.0  0.18441  0.93851  0.74627  1.0000
  Fe  Fe25      1.0  0.11688  0.93451  0.66074  1.0000
  S   S54       1.0  0.08371  0.95431  0.67935  1.0000
  S   S55       1.0  0.11975  0.91486  0.60991  1.0000
  Fe  Fe26      1.0  0.09312  0.93942  0.73104  1.0000
  S   S56       1.0  0.05976  0.92997  0.76171  1.0000
  H   H324      1.0  0.08710  0.84003  0.59879  1.0000
  S   S57       1.0  0.12445  0.91690  0.71111  1.0000
  Fe  Fe27      1.0  0.11026  0.50774  0.75749  1.0000
  S   S58       1.0  0.13449  0.53559  0.77985  1.0000
  S   S59       1.0  0.09047  0.50704  0.70701  1.0000
  Fe  Fe28      1.0  0.11661  0.52746  0.82969  1.0000
  S   S60       1.0  0.11015  0.55818  0.86736  1.0000
  C   C408      1.0  0.02037  0.92581  0.67749  1.0000
  S   S61       1.0  0.08963  0.50260  0.80606  1.0000
  C   C409      1.0  0.16119  0.54449  0.60840  1.0000
  H   H325      1.0  0.06232  0.90131  0.92064  1.0000
  Fe  Fe29      1.0  0.03754  0.60237  0.58152  1.0000
  S   S62       1.0  0.01653  0.57146  0.56044  1.0000
  S   S63       1.0  0.06578  0.60198  0.62369  1.0000
  C   C410      1.0  0.01696  0.61671  0.91718  1.0000
  C   C411      1.0  0.00497  0.97125  0.88502  1.0000
  S   S64       1.0  0.04845  0.61537  0.52988  1.0000
  H   H326      1.0  0.05554  0.95171  0.61007  1.0000
  H   H327      1.0  0.24852  0.57408  0.57951  1.0000
  H   H328      1.0  0.05893  0.69774  0.63210  1.0000
  H   H329      1.0  0.30043  0.60123  0.86902  1.0000
  H   H330      1.0  0.28857  0.96070  0.60600  1.0000
  C   C412      1.0  0.08437  0.55903  0.89367  1.0000
  C   C413      1.0  0.06565  0.54293  0.88864  1.0000
  C   C414      1.0  0.04550  0.54370  0.91033  1.0000
  C   C415      1.0  0.04421  0.56006  0.93779  1.0000
  C   C416      1.0  0.06272  0.57652  0.94247  1.0000
  C   C417      1.0  0.08265  0.57613  0.92023  1.0000
  H   H331      1.0  0.06680  0.52976  0.86823  1.0000
  H   H332      1.0  0.03098  0.53143  0.90593  1.0000
  H   H333      1.0  0.06179  0.58936  0.96336  1.0000
  H   H334      1.0  0.09698  0.58885  0.92397  1.0000
  C   C418      1.0  0.08475  0.53345  0.68342  1.0000
  C   C419      1.0  0.09545  0.55532  0.69191  1.0000
  C   C420      1.0  0.08970  0.57618  0.67307  1.0000
  C   C421      1.0  0.07318  0.57528  0.64586  1.0000
  C   C422      1.0  0.06278  0.55334  0.63715  1.0000
  C   C423      1.0  0.06864  0.53248  0.65582  1.0000
  H   H335      1.0  0.10797  0.55618  0.71307  1.0000
  H   H336      1.0  0.09794  0.59309  0.67971  1.0000
  H   H337      1.0  0.04992  0.55251  0.61641  1.0000
  H   H338      1.0  0.06019  0.51564  0.64942  1.0000
  C   C424      1.0  0.29367  0.89566  0.62481  1.0000
  C   C425      1.0  0.16272  0.59916  0.70213  1.0000
  C   C426      1.0  0.19303  0.49021  0.64877  1.0000
  C   C427      1.0  0.28983  0.95881  0.63328  1.0000
  S   S65       1.0  0.98203  0.83701  0.91220  1.0000
  H   H339      1.0  0.15614  0.61745  0.69779  1.0000
  C   C428      1.0  0.05749  0.90844  0.79457  1.0000
  C   C429      1.0  0.03537  0.90665  0.81177  1.0000
  C   C430      1.0  0.03294  0.89091  0.83946  1.0000
  C   C431      1.0  0.05246  0.87610  0.84940  1.0000
  C   C432      1.0  0.07438  0.87737  0.83151  1.0000
  C   C433      1.0  0.07706  0.89372  0.80455  1.0000
  H   H340      1.0  0.02008  0.91762  0.80368  1.0000
  H   H341      1.0  0.01587  0.88995  0.85271  1.0000
  H   H342      1.0  0.08937  0.86566  0.83850  1.0000
  H   H343      1.0  0.09416  0.89485  0.79144  1.0000
  C   C434      1.0  0.05220  0.88344  0.56017  1.0000
  C   C435      1.0  0.05119  0.89283  0.59340  1.0000
  C   C436      1.0  0.07169  0.90273  0.60877  1.0000
  C   C437      1.0  0.09360  0.90276  0.59122  1.0000
  C   C438      1.0  0.09484  0.89279  0.55823  1.0000
  C   C439      1.0  0.07408  0.88354  0.54247  1.0000
  H   H344      1.0  0.03451  0.89227  0.60743  1.0000
  H   H345      1.0  0.07060  0.90992  0.63442  1.0000
  H   H346      1.0  0.11181  0.89264  0.54458  1.0000
  H   H347      1.0  0.26881  0.53229  0.66712  1.0000
  C   C440      1.0  0.21227  0.95251  0.75668  1.0000
  C   C441      1.0  0.23212  0.93782  0.76676  1.0000
  C   C442      1.0  0.25435  0.94792  0.77652  1.0000
  C   C443      1.0  0.15418  0.50284  0.67205  1.0000
  H   H348      1.0  0.23025  0.91843  0.76718  1.0000
  H   H349      1.0  0.05604  0.56069  0.74261  1.0000
  C   C444      1.0  0.11358  0.86103  0.90413  1.0000
  C   C445      1.0  0.12740  0.85076  0.87782  1.0000
  C   C446      1.0  0.14309  0.86507  0.85934  1.0000
  C   C447      1.0  0.14525  0.88956  0.86747  1.0000
  C   C448      1.0  0.13190  0.89989  0.89452  1.0000
  C   C449      1.0  0.11575  0.88548  0.91235  1.0000
  H   H350      1.0  0.10473  0.89308  0.93256  1.0000
  H   H351      1.0  0.28166  0.89246  0.64601  1.0000
  C   C450      1.0  0.11684  0.54756  0.00003  1.0000
  C   C451      1.0  0.26294  0.59222  0.87199  1.0000
  C   C452      1.0  0.26575  0.51199  0.73911  1.0000
  H   H352      1.0  0.98282  0.93947  0.88783  1.0000
  C   C453      1.0  0.98130  0.53537  0.83989  1.0000
  H   H353      1.0  0.98192  0.88897  0.63540  1.0000
  H   H354      1.0  0.22855  0.96126  0.86661  1.0000
  H   H355      1.0  0.07797  0.90499  0.97997  1.0000
  C   C454      1.0  0.00695  0.94411  0.62436  1.0000
  C   C455      1.0  0.24545  0.57521  0.86418  1.0000
  C   C456      1.0  0.13859  0.91811  0.97389  1.0000
  H   H356      1.0  0.10061  0.85020  0.91747  1.0000
  H   H357      1.0  0.12528  0.83193  0.87104  1.0000
  H   H358      1.0  0.15329  0.85728  0.83828  1.0000
  H   H359      1.0  0.15727  0.90023  0.85242  1.0000
  C   C457      1.0  0.98305  0.75850  0.99279  1.0000
  H   H360      1.0  0.99424  0.57627  0.75674  1.0000
  H   H361      1.0  0.16503  0.60359  0.75668  1.0000
  C   C458      1.0  0.12992  0.93564  0.95088  1.0000
  C   C459      1.0  0.04166  0.74902  0.59061  1.0000
  H   H362      1.0  0.06000  0.83192  0.53951  1.0000
  H   H363      1.0  0.10993  0.55508  0.97641  1.0000
  C   C460      1.0  0.18393  0.92855  0.61361  1.0000
  C   C461      1.0  0.28713  0.58775  0.86312  1.0000
  C   C462      1.0  0.00108  0.54041  0.68918  1.0000
  C   C463      1.0  0.06933  0.61332  0.74603  1.0000
  C   C464      1.0  0.09065  0.60468  0.76128  1.0000
  C   C465      1.0  0.08992  0.59449  0.79367  1.0000
  C   C466      1.0  0.06783  0.59246  0.81052  1.0000
  C   C467      1.0  0.04619  0.59997  0.79472  1.0000
  C   C468      1.0  0.04718  0.61119  0.76278  1.0000
  P   P13       1.0  0.01776  0.59643  0.81649  1.0000
  C   C469      1.0  0.01093  0.56520  0.82460  1.0000
  C   C470      1.0  0.02004  0.61358  0.85561  1.0000
  S   S66       1.0  0.01984  0.55821  0.96645  1.0000
  H   H364      1.0  0.17990  0.93830  0.94436  1.0000
  C   C471      1.0  0.21070  0.95570  0.87428  1.0000
  C   C472      1.0  0.03040  0.65082  0.88487  1.0000
  C   C473      1.0  0.02829  0.63737  0.85475  1.0000
  C   C474      1.0  0.02814  0.54650  0.81956  1.0000
  H   H365      1.0  0.16303  0.48007  0.99369  1.0000
  H   H366      1.0  0.28087  0.53233  0.82591  1.0000
  C   C475      1.0  0.00074  0.49006  0.64575  1.0000
  C   C476      1.0  0.99419  0.94464  0.53805  1.0000
  H   H367      1.0  0.12756  0.77219  0.52606  1.0000
  C   C477      1.0  0.01465  0.60324  0.88714  1.0000
  C   C478      1.0  0.05633  0.96766  0.59460  1.0000
  H   H368      1.0  0.01157  0.75995  0.95588  1.0000
  C   C479      1.0  0.26435  0.49266  0.71615  1.0000
  C   C480      1.0  0.02625  0.80625  0.58024  1.0000
  H   H369      1.0  0.06991  0.62136  0.72094  1.0000
  H   H370      1.0  0.10774  0.60592  0.74806  1.0000
  H   H371      1.0  0.10647  0.58808  0.80582  1.0000
  H   H372      1.0  0.06761  0.58481  0.83582  1.0000
  H   H373      1.0  0.03094  0.61798  0.75039  1.0000
  H   H374      1.0  0.99370  0.49827  0.83871  1.0000
  Fe  Fe30      1.0  0.01513  0.63976  0.53270  1.0000
  H   H375      1.0  0.03303  0.64554  0.83078  1.0000
  H   H376      1.0  0.04629  0.55015  0.81133  1.0000
  H   H377      1.0  0.05827  0.94597  0.84150  1.0000
  C   C481      1.0  0.01794  0.79829  0.54838  1.0000
  C   C482      1.0  0.99419  0.80333  0.53806  1.0000
  C   C483      1.0  0.19227  0.95422  0.85005  1.0000
  H   H378      1.0  0.20976  0.49403  0.63592  1.0000
  C   C484      1.0  0.98942  0.96551  0.55771  1.0000
  C   C485      1.0  0.17617  0.50874  0.65684  1.0000
  C   C486      1.0  0.17459  0.55952  0.67998  1.0000
  H   H379      1.0  0.00692  0.89054  0.68803  1.0000
  H   H380      1.0  0.25926  0.86992  0.92103  1.0000
  H   H381      1.0  0.99402  0.93639  0.97982  1.0000
  H   H382      1.0  0.98607  0.53489  0.67349  1.0000
  H   H383      1.0  0.01861  0.49763  0.64664  1.0000
  H   H384      1.0  0.18545  0.52698  0.57222  1.0000
  H   H385      1.0  0.23852  0.54054  0.84132  1.0000
  H   H386      1.0  0.30983  0.62210  0.74443  1.0000
  C   C487      1.0  0.29986  0.90858  0.56669  1.0000
  H   H387      1.0  0.08522  0.52129  0.58545  1.0000
  C   C488      1.0  0.12255  0.55816  0.58486  1.0000
  H   H388      1.0  0.09853  0.86641  0.64649  1.0000
  P   P14       1.0  0.00558  0.97036  0.59715  1.0000
  H   H389      1.0  0.24724  0.94647  0.57189  1.0000
  C   C489      1.0  0.09117  0.82114  0.51022  1.0000
  H   H390      1.0  0.03106  0.92662  0.70066  1.0000
  C   C490      1.0  0.25701  0.97299  0.77667  1.0000
  H   H391      1.0  0.06355  0.53944  0.53598  1.0000
  C   C491      1.0  0.00667  0.90552  0.67044  1.0000
  H   H392      1.0  0.19583  0.95858  0.82369  1.0000
  C   C492      1.0  0.11017  0.80432  0.50625  1.0000
  C   C493      1.0  0.05766  0.93770  0.99063  1.0000
  C   C494      1.0  0.24768  0.96564  0.56684  1.0000
  C   C495      1.0  0.04311  0.50764  0.52542  1.0000
  C   C496      1.0  0.11283  0.78524  0.52914  1.0000
  C   C497      1.0  0.23054  0.53561  0.65713  1.0000
  P   P15       1.0  0.18100  0.53953  0.64451  1.0000
  H   H393      1.0  0.29225  0.91464  0.54271  1.0000
  C   C498      1.0  0.21494  0.97757  0.75669  1.0000
  C   C499      1.0  0.27225  0.96052  0.68964  1.0000
  H   H394      1.0  0.06906  0.48711  0.98431  1.0000
  H   H395      1.0  0.02086  0.49481  0.92664  1.0000
  C   C500      1.0  0.31227  0.95239  0.64756  1.0000
  H   H396      1.0  0.30026  0.60105  0.79756  1.0000
  C   C501      1.0  0.04083  0.95469  0.97831  1.0000
  C   C502      1.0  0.07723  0.79974  0.55999  1.0000
  H   H397      1.0  0.08460  0.72705  0.66280  1.0000
  S   S67       1.0  0.00512  0.62758  0.58572  1.0000
  C   C503      1.0  0.00137  0.74838  0.97229  1.0000
  H   H398      1.0  0.18106  0.56198  0.76629  1.0000
  Fe  Fe31      1.0  0.98799  0.82485  0.96668  1.0000
  C   C504      1.0  0.16655  0.58343  0.67451  1.0000
  H   H399      1.0  0.08347  0.77005  0.64683  1.0000
  H   H400      1.0  0.02089  0.71577  0.95721  1.0000
  C   C505      1.0  0.17667  0.56795  0.74071  1.0000
  C   C506      1.0  0.09126  0.93955  0.86974  1.0000
  C   C507      1.0  0.06724  0.48735  0.58124  1.0000
  C   C508      1.0  0.16926  0.94699  0.85963  1.0000
  Fe  Fe32      1.0  0.98468  0.59717  0.56068  1.0000
  H   H401      1.0  0.26499  0.90714  0.59116  1.0000
  C   C509      1.0  0.99856  0.51690  0.83496  1.0000
  H   H402      1.0  0.14061  0.51674  0.67767  1.0000
  H   H403      1.0  0.22042  0.95113  0.92700  1.0000
  C   C510      1.0  0.99262  0.92394  0.61796  1.0000
  C   C511      1.0  0.01063  0.82020  0.60107  1.0000
  H   H404      1.0  0.13152  0.55997  0.63786  1.0000
  C   C512      1.0  0.27363  0.87271  0.93938  1.0000
  H   H405      1.0  0.28203  0.52233  0.74024  1.0000
  H   H406      1.0  0.08625  0.93489  0.52619  1.0000
  H   H407      1.0  0.03043  0.96105  0.66127  1.0000
  C   C513      1.0  0.12986  0.55046  0.55245  1.0000
  C   C514      1.0  0.05691  0.91659  0.93650  1.0000
  Fe  Fe33      1.0  0.02428  0.58690  0.50900  1.0000
  C   C515      1.0  0.15256  0.53926  0.54803  1.0000
  Fe  Fe34      1.0  0.00444  0.87592  0.98913  1.0000
  C   C516      1.0  0.05811  0.71672  0.62550  1.0000
  H   H408      1.0  0.25771  0.60894  0.88476  1.0000
  C   C517      1.0  0.04032  0.93374  0.92388  1.0000
  H   H409      1.0  0.99977  0.48975  0.59102  1.0000
  C   C518      1.0  0.06001  0.52106  0.54353  1.0000
  C   C519      1.0  0.18369  0.91269  0.64104  1.0000
  C   C520      1.0  0.22432  0.50525  0.75886  1.0000
  H   H410      1.0  0.20542  0.56719  0.59120  1.0000
  H   H411      1.0  0.25292  0.96037  0.51286  1.0000
  C   C521      1.0  0.05618  0.81283  0.66251  1.0000
  C   C522      1.0  0.29682  0.87808  0.92814  1.0000
  H   H412      1.0  0.22666  0.57870  0.87079  1.0000
  H   H413      1.0  0.20042  0.90268  0.68860  1.0000
  H   H414      1.0  0.99607  0.51532  0.53006  1.0000
  C   C523      1.0  0.00659  0.72325  0.97308  1.0000
  H   H415      1.0  0.15801  0.53284  0.52300  1.0000
  C   C524      1.0  0.01025  0.56343  0.68474  1.0000
  C   C525      1.0  0.04024  0.55531  0.72837  1.0000
  H   H416      1.0  0.16936  0.89975  0.64310  1.0000
  C   C526      1.0  0.02023  0.94515  0.65485  1.0000
  C   C527      1.0  0.07772  0.84751  0.68361  1.0000
  C   C528      1.0  0.01175  0.52445  0.71279  1.0000
  C   C529      1.0  0.08035  0.83617  0.62395  1.0000
  C   C530      1.0  0.20128  0.91424  0.66649  1.0000
  H   H417      1.0  0.06682  0.80217  0.98408  1.0000
  C   C531      1.0  0.03186  0.95270  0.94493  1.0000
  H   H418      1.0  0.07501  0.87643  0.51678  1.0000
  H   H419      1.0  0.23180  0.93307  0.68544  1.0000
  C   C532      1.0  0.21915  0.93162  0.66456  1.0000
  C   C533      1.0  0.99129  0.95241  0.87134  1.0000
  H   H420      1.0  0.03652  0.66924  0.88416  1.0000
  C   C534      1.0  0.98704  0.82577  0.59027  1.0000
  S   S68       1.0  0.00138  0.67613  0.99428  1.0000
  C   C535      1.0  0.26139  0.55338  0.62231  1.0000
  C   C536      1.0  0.07466  0.95378  0.85133  1.0000
  C   C537      1.0  0.98864  0.94988  0.83612  1.0000
  P   P16       1.0  0.13457  0.93153  0.90549  1.0000
  H   H421      1.0  0.04405  0.79817  0.66731  1.0000
  C   C538      1.0  0.11729  0.95609  0.96358  1.0000
  C   C539      1.0  0.07470  0.81881  0.53687  1.0000
  S   S69       1.0  0.14328  0.49789  0.84349  1.0000
  H   H422      1.0  0.01307  0.60859  0.94148  1.0000
  C   C540      1.0  0.20609  0.94995  0.90824  1.0000
  C   C541      1.0  0.21904  0.55898  0.60751  1.0000
  C   C542      1.0  0.08624  0.48654  0.97117  1.0000
  C   C543      1.0  0.03130  0.53215  0.73257  1.0000
  H   H423      1.0  0.08113  0.52198  0.95033  1.0000
  P   P17       1.0  0.24054  0.97224  0.63670  1.0000
  C   C544      1.0  0.21967  0.94756  0.63692  1.0000
  P   P18       1.0  0.00087  0.49413  0.71667  1.0000
  C   C545      1.0  0.24346  0.56316  0.60099  1.0000
  C   C546      1.0  0.07214  0.51089  0.57135  1.0000
  C   C547      1.0  0.09649  0.78298  0.55601  1.0000
  H   H424      1.0  0.98781  0.79664  0.51371  1.0000
  H   H425      1.0  0.03354  0.93145  0.89822  1.0000
  C   C548      1.0  0.28432  0.90419  0.59394  1.0000
  C   C549      1.0  0.25214  0.55368  0.84763  1.0000
  C   C550      1.0  0.29403  0.56616  0.84642  1.0000
  C   C551      1.0  0.02989  0.57083  0.70417  1.0000
  H   H426      1.0  0.00647  0.93059  0.54725  1.0000
  H   H427      1.0  0.18677  0.53386  0.71814  1.0000
  H   H428      1.0  0.00262  0.57530  0.66549  1.0000
  H   H429      1.0  0.98782  0.52224  0.91506  1.0000
  H   H430      1.0  0.14854  0.90228  0.96482  1.0000
  C   C552      1.0  0.08677  0.85136  0.65097  1.0000
  C   C553      1.0  0.11262  0.94962  0.88219  1.0000
  C   C554      1.0  0.27632  0.54912  0.83880  1.0000
  H   H431      1.0  0.10482  0.56660  0.58841  1.0000
  S   S70       1.0  0.14171  0.96554  0.67027  1.0000
  H   H432      1.0  0.12009  0.52090  0.91916  1.0000
  C   C555      1.0  0.16776  0.59140  0.73524  1.0000
  C   C556      1.0  0.99260  0.90469  0.64084  1.0000
  H   H433      1.0  0.28033  0.55648  0.61726  1.0000
  C   C557      1.0  0.17986  0.55198  0.71327  1.0000
  H   H434      1.0  0.16976  0.92778  0.59451  1.0000
  H   H435      1.0  0.04029  0.52008  0.75033  1.0000
  H   H436      1.0  0.03759  0.58826  0.69942  1.0000
  C   C558      1.0  0.06512  0.81663  0.62955  1.0000
  H   H437      1.0  0.03554  0.50826  0.82167  1.0000
  H   H438      1.0  0.02980  0.75438  0.57000  1.0000
  C   C559      1.0  0.21244  0.54462  0.63515  1.0000
  C   C560      1.0  0.09292  0.50617  0.95162  1.0000
  C   C561      1.0  0.05601  0.76584  0.60787  1.0000
  H   H439      1.0  0.02975  0.78792  0.53165  1.0000
  P   P19       1.0  0.05613  0.79712  0.59474  1.0000
  C   C562      1.0  0.98798  0.48580  0.67595  1.0000
  H   H440      1.0  0.01654  0.82706  0.62544  1.0000
  H   H441      1.0  0.03182  0.71172  0.58557  1.0000
  H   H442      1.0  0.08243  0.85959  0.70435  1.0000
  S   S71       1.0  0.11638  0.97063  0.74572  1.0000
  C   C563      1.0  0.11696  0.97413  0.87621  1.0000
  C   C564      1.0  0.18304  0.94269  0.91797  1.0000
  C   C565      1.0  0.25490  0.53974  0.65045  1.0000
  H   H443      1.0  0.25119  0.86610  0.98294  1.0000
  H   H444      1.0  0.04259  0.93248  0.51388  1.0000
  C   C566      1.0  0.99979  0.96595  0.81424  1.0000
  C   C567      1.0  0.11491  0.50556  0.93425  1.0000
  S   S72       1.0  0.28904  0.48393  0.68908  1.0000
  C   C568      1.0  0.98144  0.62988  0.79680  1.0000
  Fe  Fe35      1.0  0.16015  0.50462  0.79204  1.0000
  S   S73       1.0  0.20062  0.51311  0.78807  1.0000
  C   C569      1.0  0.13020  0.48517  0.93622  1.0000
  C   C570      1.0  0.02470  0.64049  0.91608  1.0000
  C   C571      1.0  0.98745  0.55941  0.83484  1.0000
  C   C572      1.0  0.07946  0.97790  0.84463  1.0000
  H   H445      1.0  0.05531  0.82539  0.71469  1.0000
  H   H446      1.0  0.09895  0.76814  0.57350  1.0000
  C   C573      1.0  0.07166  0.75767  0.63382  1.0000
  H   H447      1.0  0.08745  0.92071  0.87371  1.0000
  H   H448      1.0  0.15532  0.94575  0.84024  1.0000
  H   H449      1.0  0.14727  0.48525  0.92283  1.0000
  C   C574      1.0  0.26955  0.96285  0.65428  1.0000
  C   C575      1.0  0.16442  0.94115  0.89370  1.0000
  H   H450      1.0  0.29664  0.95271  0.73117  1.0000
  C   C576      1.0  0.06555  0.91855  0.96986  1.0000
  C   C577      1.0  0.24595  0.51815  0.76034  1.0000
  H   H451      1.0  0.24736  0.53312  0.77794  1.0000
  H   H452      1.0  0.09526  0.96623  0.59372  1.0000
  C   C578      1.0  0.07254  0.73324  0.64274  1.0000
  H   H453      1.0  0.30056  0.87946  0.90110  1.0000
  H   H454      1.0  0.05619  0.75895  0.98521  1.0000
  C   C579      1.0  0.06244  0.82824  0.68938  1.0000
  C   C580      1.0  0.20163  0.94609  0.61171  1.0000
  C   C581      1.0  0.04276  0.72460  0.59938  1.0000
  H   H455      1.0  0.16339  0.59000  0.64895  1.0000
  C   C582      1.0  0.28766  0.87428  0.99790  1.0000
  H   H456      1.0  0.22588  0.52530  0.67942  1.0000
  H   H457      1.0  0.11029  0.96987  0.94663  1.0000
  H   H458      1.0  0.11781  0.55294  0.53086  1.0000
  H   H459      1.0  0.98127  0.92302  0.59568  1.0000
  C   C583      1.0  0.99351  0.70772  0.99413  1.0000
  H   H460      1.0  0.02641  0.65085  0.93948  1.0000
  P   P20       1.0  0.00865  0.97374  0.93062  1.0000
  H   H461      1.0  0.25706  0.96408  0.70636  1.0000
  H   H462      1.0  0.20057  0.95900  0.59119  1.0000
  H   H463      1.0  0.00910  0.58471  0.88893  1.0000
  S   S74       1.0  0.02434  0.67936  0.52035  1.0000
  H   H464      1.0  0.99811  0.96364  0.78689  1.0000
  C   C584      1.0  0.03822  0.48384  0.53479  1.0000
  C   C585      1.0  0.11326  0.95882  0.99860  1.0000
  C   C586      1.0  0.98148  0.50311  0.52553  1.0000
  H   H465      1.0  0.15404  0.54911  0.98463  1.0000
  H   H466      1.0  0.98650  0.64091  0.81838  1.0000
  C   C587      1.0  0.01354  0.48008  0.91193  1.0000
  C   C588      1.0  0.25095  0.97344  0.53341  1.0000
  C   C589      1.0  0.98998  0.48586  0.61407  1.0000
  C   C590      1.0  0.22257  0.48639  0.73508  1.0000
  H   H467      1.0  0.03427  0.96894  0.99518  1.0000
  H   H468      1.0  0.04578  0.72571  0.51204  1.0000
  C   C591      1.0  0.98323  0.94175  0.50615  1.0000
  C   C592      1.0  0.98567  0.59364  0.76212  1.0000
  C   C593      1.0  0.99939  0.48344  0.99187  1.0000
  C   C594      1.0  0.07840  0.94521  0.50549  1.0000
  C   C595      1.0  0.07906  0.97572  0.58494  1.0000
  C   C596      1.0  0.31083  0.88036  0.98682  1.0000
  S   S75       1.0  0.99165  0.61168  0.50804  1.0000
  C   C597      1.0  0.98581  0.47881  0.51625  1.0000
  C   C598      1.0  0.97997  0.96601  0.94901  1.0000
  C   C599      1.0  0.24250  0.48012  0.71398  1.0000
  H   H469      1.0  0.03385  0.51591  0.50403  1.0000
  H   H470      1.0  0.07654  0.47961  0.60306  1.0000
  H   H471      1.0  0.04314  0.47940  0.87636  1.0000
  H   H472      1.0  0.01986  0.47859  0.78312  1.0000
  C   C600      1.0  0.14936  0.47886  0.67979  1.0000
  H   H473      1.0  0.07578  0.65619  0.50184  1.0000
  Fe  Fe36      1.0  0.48342  0.10557  0.42473  1.0000
  S   S76       1.0  0.50055  0.13399  0.39300  1.0000
  S   S77       1.0  0.44513  0.09162  0.41954  1.0000
  Fe  Fe37      1.0  0.52778  0.10069  0.47085  1.0000
  S   S78       1.0  0.54864  0.12865  0.44235  1.0000
  C   C601      1.0  0.49266  0.24206  0.01655  1.0000
  Fe  Fe38      1.0  0.51373  0.15070  0.44222  1.0000
  S   S79       1.0  0.50987  0.19225  0.44261  1.0000
  Fe  Fe39      1.0  0.53412  0.11044  0.39531  1.0000
  S   S80       1.0  0.55599  0.10564  0.34680  1.0000
  S   S81       1.0  0.49376  0.12384  0.47401  1.0000
  S   S82       1.0  0.51602  0.08094  0.42345  1.0000
  Fe  Fe40      1.0  0.62517  0.01207  0.16849  1.0000
  H   H474      1.0  0.52643  0.02604  0.45796  1.0000
  S   S83       1.0  0.62376  0.04184  0.12900  1.0000
  Fe  Fe41      1.0  0.60897  0.99726  0.23873  1.0000
  S   S84       1.0  0.58738  0.00268  0.28761  1.0000
  H   H475      1.0  0.43920  0.00700  0.08619  1.0000
  S   S85       1.0  0.40741  0.01333  0.31427  1.0000
  C   C602      1.0  0.62843  0.10193  0.15851  1.0000
  Fe  Fe42      1.0  0.47078  0.36073  0.04840  1.0000
  S   S86       1.0  0.48015  0.33001  0.08347  1.0000
  S   S87       1.0  0.43833  0.38673  0.04518  1.0000
  H   H476      1.0  0.58199  0.09151  0.28676  1.0000
  S   S88       1.0  0.52975  0.32054  0.03714  1.0000
  S   S89       1.0  0.52250  0.39016  0.46006  1.0000
  Fe  Fe43      1.0  0.49129  0.30817  0.03691  1.0000
  S   S90       1.0  0.47749  0.26989  0.02710  1.0000
  Fe  Fe44      1.0  0.51794  0.34433  0.08154  1.0000
  S   S91       1.0  0.53784  0.34607  0.13209  1.0000
  H   H477      1.0  0.47143  0.47024  0.49329  1.0000
  S   S92       1.0  0.50781  0.37649  0.04945  1.0000
  Fe  Fe45      1.0  0.60498  0.43680  0.31506  1.0000
  S   S93       1.0  0.57166  0.44691  0.28505  1.0000
  S   S94       1.0  0.60819  0.40732  0.35512  1.0000
  Fe  Fe46      1.0  0.59650  0.44909  0.24018  1.0000
  S   S95       1.0  0.58686  0.44166  0.18494  1.0000
  H   H478      1.0  0.48627  0.45140  0.43049  1.0000
  C   C603      1.0  0.62094  0.37154  0.18580  1.0000
  S   S96       1.0  0.38285  0.43670  0.16990  1.0000
  C   C604      1.0  0.34134  0.99621  0.14510  1.0000
  C   C605      1.0  0.42430  0.40144  0.08041  1.0000
  C   C606      1.0  0.42815  0.39358  0.11376  1.0000
  C   C607      1.0  0.41557  0.40486  0.14091  1.0000
  C   C608      1.0  0.39933  0.42431  0.13504  1.0000
  C   C609      1.0  0.39592  0.43256  0.10179  1.0000
  C   C610      1.0  0.40829  0.42108  0.07458  1.0000
  H   H479      1.0  0.44024  0.37834  0.11844  1.0000
  H   H480      1.0  0.41811  0.39822  0.16651  1.0000
  H   H481      1.0  0.38325  0.44732  0.09694  1.0000
  H   H482      1.0  0.40513  0.42719  0.04882  1.0000
  C   C611      1.0  0.54688  0.39408  0.43144  1.0000
  C   C612      1.0  0.54318  0.40929  0.40342  1.0000
  C   C613      1.0  0.56187  0.41377  0.38032  1.0000
  C   C614      1.0  0.58456  0.40264  0.38460  1.0000
  C   C615      1.0  0.58832  0.38703  0.41235  1.0000
  C   C616      1.0  0.56961  0.38289  0.43587  1.0000
  H   H483      1.0  0.52570  0.41773  0.39962  1.0000
  H   H484      1.0  0.55863  0.42568  0.35901  1.0000
  H   H485      1.0  0.60579  0.37820  0.41577  1.0000
  H   H486      1.0  0.57279  0.37104  0.45727  1.0000
  C   C617      1.0  0.55000  0.37335  0.14695  1.0000
  C   C618      1.0  0.55396  0.39252  0.12490  1.0000
  C   C619      1.0  0.56488  0.41354  0.13711  1.0000
  C   C620      1.0  0.57175  0.41562  0.17144  1.0000
  C   C621      1.0  0.56704  0.39681  0.19380  1.0000
  C   C622      1.0  0.55640  0.37562  0.18147  1.0000
  H   H487      1.0  0.54910  0.39093  0.09830  1.0000
  H   H488      1.0  0.56827  0.42807  0.11974  1.0000
  H   H489      1.0  0.57218  0.39832  0.22031  1.0000
  H   H490      1.0  0.55323  0.36086  0.19865  1.0000
  C   C623      1.0  0.51670  0.21601  0.47195  1.0000
  Fe  Fe47      1.0  0.63627  0.47418  0.28063  1.0000
  C   C624      1.0  0.56799  0.46605  0.49789  1.0000
  H   H491      1.0  0.34278  0.01233  0.13000  1.0000
  H   H492      1.0  0.32409  0.07274  0.19170  1.0000
  H   H493      1.0  0.35683  0.03686  0.20551  1.0000
  H   H494      1.0  0.37646  0.04458  0.26098  1.0000
  H   H495      1.0  0.41448  0.43887  0.34522  1.0000
  H   H496      1.0  0.61110  0.43304  0.10665  1.0000
  H   H497      1.0  0.63054  0.44718  0.39740  1.0000
  C   C625      1.0  0.43605  0.06800  0.39207  1.0000
  C   C626      1.0  0.41333  0.05770  0.39695  1.0000
  C   C627      1.0  0.40471  0.03999  0.37433  1.0000
  C   C628      1.0  0.41872  0.03260  0.34642  1.0000
  C   C629      1.0  0.44170  0.04246  0.34200  1.0000
  C   C630      1.0  0.45036  0.06006  0.36472  1.0000
  H   H498      1.0  0.40214  0.06383  0.41800  1.0000
  H   H499      1.0  0.38692  0.03271  0.37784  1.0000
  H   H500      1.0  0.45260  0.03701  0.32031  1.0000
  H   H501      1.0  0.46774  0.06805  0.36051  1.0000
  C   C631      1.0  0.55759  0.04877  0.05840  1.0000
  C   C632      1.0  0.57463  0.06701  0.05964  1.0000
  C   C633      1.0  0.59495  0.06470  0.08125  1.0000
  C   C634      1.0  0.59841  0.04410  0.10154  1.0000
  C   C635      1.0  0.58170  0.02563  0.09953  1.0000
  C   C636      1.0  0.56139  0.02800  0.07813  1.0000
  H   H502      1.0  0.63604  0.45331  0.17204  1.0000
  H   H503      1.0  0.60787  0.07904  0.08259  1.0000
  H   H504      1.0  0.58430  0.00957  0.11469  1.0000
  H   H505      1.0  0.54836  0.01378  0.07743  1.0000
  C   C637      1.0  0.56625  0.07698  0.33212  1.0000
  C   C638      1.0  0.56209  0.05595  0.35048  1.0000
  C   C639      1.0  0.56953  0.03334  0.33711  1.0000
  C   C640      1.0  0.58113  0.03158  0.30536  1.0000
  C   C641      1.0  0.58606  0.05266  0.28763  1.0000
  C   C642      1.0  0.57852  0.07527  0.30090  1.0000
  H   H506      1.0  0.55296  0.05709  0.37476  1.0000
  H   H507      1.0  0.56610  0.01713  0.35126  1.0000
  H   H508      1.0  0.59530  0.05152  0.26341  1.0000
  C   C643      1.0  0.49005  0.19861  0.00430  1.0000
  H   H509      1.0  0.57853  0.14655  0.21527  1.0000
  C   C644      1.0  0.48363  0.39845  0.36975  1.0000
  C   C645      1.0  0.49862  0.37857  0.36189  1.0000
  C   C646      1.0  0.50150  0.37111  0.32802  1.0000
  C   C647      1.0  0.48933  0.38351  0.30192  1.0000
  C   C648      1.0  0.47438  0.40366  0.30959  1.0000
  C   C649      1.0  0.47158  0.41099  0.34373  1.0000
  P   P21       1.0  0.45721  0.41896  0.27657  1.0000
  C   C650      1.0  0.47093  0.41219  0.23568  1.0000
  C   C651      1.0  0.42628  0.40892  0.27719  1.0000
  C   C652      1.0  0.41050  0.41467  0.25019  1.0000
  C   C653      1.0  0.38648  0.40733  0.25090  1.0000
  C   C654      1.0  0.37803  0.39406  0.27829  1.0000
  C   C655      1.0  0.39364  0.38795  0.30503  1.0000
  C   C656      1.0  0.41768  0.39524  0.30447  1.0000
  C   C657      1.0  0.49107  0.42498  0.22458  1.0000
  C   C658      1.0  0.50245  0.41878  0.19384  1.0000
  C   C659      1.0  0.49384  0.39979  0.17396  1.0000
  C   C660      1.0  0.47394  0.38691  0.18484  1.0000
  C   C661      1.0  0.46255  0.39298  0.21561  1.0000
  C   C662      1.0  0.45847  0.45113  0.28476  1.0000
  H   H510      1.0  0.50225  0.15529  0.06353  1.0000
  H   H511      1.0  0.62195  0.15942  0.12957  1.0000
  C   C663      1.0  0.63776  0.02820  0.49258  1.0000
  H   H512      1.0  0.51716  0.46482  0.47166  1.0000
  C   C664      1.0  0.62370  0.01819  0.41993  1.0000
  H   H513      1.0  0.48153  0.40411  0.39613  1.0000
  H   H514      1.0  0.50804  0.36904  0.38218  1.0000
  H   H515      1.0  0.51308  0.35563  0.32197  1.0000
  H   H516      1.0  0.49159  0.37723  0.27590  1.0000
  H   H517      1.0  0.45985  0.42623  0.35022  1.0000
  H   H518      1.0  0.41666  0.42490  0.22856  1.0000
  H   H519      1.0  0.35941  0.38838  0.27857  1.0000
  H   H520      1.0  0.38712  0.37744  0.32611  1.0000
  H   H521      1.0  0.42934  0.39002  0.32539  1.0000
  H   H522      1.0  0.49833  0.43946  0.23973  1.0000
  H   H523      1.0  0.51818  0.42846  0.18555  1.0000
  H   H524      1.0  0.50268  0.39488  0.15019  1.0000
  H   H525      1.0  0.44742  0.38243  0.22375  1.0000
  H   H526      1.0  0.49574  0.44966  0.30216  1.0000
  C   C665      1.0  0.51410  0.99966  0.37842  1.0000
  C   C666      1.0  0.55658  0.06638  0.20572  1.0000
  H   H527      1.0  0.63238  0.33090  0.45853  1.0000
  C   C667      1.0  0.60435  0.09755  0.16668  1.0000
  C   C668      1.0  0.35738  0.04076  0.25989  1.0000
  H   H528      1.0  0.58784  0.44099  0.05398  1.0000
  H   H529      1.0  0.40820  0.43270  0.45889  1.0000
  H   H530      1.0  0.32569  0.10514  0.14932  1.0000
  C   C669      1.0  0.45529  0.03020  0.48373  1.0000
  C   C670      1.0  0.54305  0.01909  0.46904  1.0000
  C   C671      1.0  0.43887  0.45424  0.47321  1.0000
  C   C672      1.0  0.56332  0.44143  0.49358  1.0000
  H   H531      1.0  0.37435  0.41190  0.23008  1.0000
  H   H532      1.0  0.42234  0.47415  0.09474  1.0000
  C   C673      1.0  0.58619  0.00265  0.49890  1.0000
  H   H533      1.0  0.46196  0.32145  0.43224  1.0000
  H   H534      1.0  0.57198  0.08304  0.04439  1.0000
  H   H535      1.0  0.56943  0.16142  0.27315  1.0000
  C   C674      1.0  0.59293  0.13787  0.14816  1.0000
  H   H536      1.0  0.41646  0.02964  0.47553  1.0000
  H   H537      1.0  0.35318  0.04174  0.31440  1.0000
  C   C675      1.0  0.43585  0.41115  0.48330  1.0000
  C   C676      1.0  0.31420  0.46688  0.30144  1.0000
  C   C677      1.0  0.54255  0.00165  0.49453  1.0000
  C   C678      1.0  0.45868  0.41081  0.49862  1.0000
  C   C679      1.0  0.60166  0.46489  0.42524  1.0000
  C   C680      1.0  0.47897  0.22106  0.01287  1.0000
  C   C681      1.0  0.31947  0.08747  0.14180  1.0000
  H   H538      1.0  0.44040  0.97879  0.15736  1.0000
  C   C682      1.0  0.48577  0.02087  0.41559  1.0000
  C   C683      1.0  0.50141  0.02077  0.38765  1.0000
  H   H539      1.0  0.62804  0.38729  0.10321  1.0000
  C   C684      1.0  0.38492  0.46347  0.35614  1.0000
  C   C685      1.0  0.61705  0.14218  0.14004  1.0000
  H   H540      1.0  0.59488  0.99224  0.41962  1.0000
  C   C686      1.0  0.43162  0.03998  0.48434  1.0000
  C   C687      1.0  0.58793  0.30073  0.49841  1.0000
  H   H541      1.0  0.61073  0.35927  0.20121  1.0000
  C   C688      1.0  0.50261  0.45949  0.42148  1.0000
  H   H542      1.0  0.52921  0.02971  0.13132  1.0000
  C   C689      1.0  0.48289  0.99983  0.43484  1.0000
  H   H543      1.0  0.52602  0.99959  0.35657  1.0000
  C   C690      1.0  0.43386  0.98704  0.45213  1.0000
  H   H544      1.0  0.43646  0.44792  0.39869  1.0000
  H   H545      1.0  0.47313  0.42113  0.06167  1.0000
  P   P22       1.0  0.61503  0.03268  0.45974  1.0000
  S   S97       1.0  0.53086  0.05140  0.03376  1.0000
  H   H546      1.0  0.37553  0.45977  0.33245  1.0000
  H   H547      1.0  0.49789  0.01172  0.01539  1.0000
  Fe  Fe48      1.0  0.51615  0.35177  0.00522  1.0000
  H   H548      1.0  0.41427  0.98265  0.24574  1.0000
  C   C691      1.0  0.63480  0.12420  0.14520  1.0000
  H   H549      1.0  0.56646  0.25310  0.44348  1.0000
  C   C692      1.0  0.44860  0.05770  0.02038  1.0000
  H   H550      1.0  0.56488  0.04265  0.43970  1.0000
  C   C693      1.0  0.52026  0.46689  0.44463  1.0000
  C   C694      1.0  0.60723  0.11429  0.43717  1.0000
  C   C695      1.0  0.56257  0.22331  0.40949  1.0000
  C   C696      1.0  0.41930  0.45699  0.39354  1.0000
  S   S98       1.0  0.62928  0.43531  0.26876  1.0000
  C   C697      1.0  0.50956  0.46949  0.07143  1.0000
  H   H551      1.0  0.59496  0.03884  0.00608  1.0000
  H   H552      1.0  0.55963  0.10796  0.09755  1.0000
  C   C698      1.0  0.40978  0.47418  0.41668  1.0000
  H   H553      1.0  0.48939  0.16222  0.12347  1.0000
  H   H554      1.0  0.46631  0.42916  0.12295  1.0000
  H   H555      1.0  0.43851  0.08221  0.06087  1.0000
  C   C699      1.0  0.61530  0.99031  0.37343  1.0000
  H   H556      1.0  0.50353  0.03711  0.37303  1.0000
  H   H557      1.0  0.57938  0.15197  0.14390  1.0000
  H   H558      1.0  0.47578  0.03738  0.42181  1.0000
  C   C700      1.0  0.61122  0.10656  0.47051  1.0000
  H   H559      1.0  0.60056  0.10336  0.38534  1.0000
  C   C701      1.0  0.34621  0.03627  0.22856  1.0000
  C   C702      1.0  0.61099  0.06467  0.45134  1.0000
  H   H560      1.0  0.45112  0.07193  0.00204  1.0000
  C   C703      1.0  0.43833  0.46652  0.27888  1.0000
  C   C704      1.0  0.51766  0.24032  0.01132  1.0000
  C   C705      1.0  0.60942  0.31306  0.49411  1.0000
  H   H561      1.0  0.42580  0.39464  0.48145  1.0000
  H   H562      1.0  0.53699  0.12785  0.05077  1.0000
  C   C706      1.0  0.56499  0.02866  0.45884  1.0000
  C   C707      1.0  0.53733  0.14063  0.27829  1.0000
  C   C708      1.0  0.61310  0.08190  0.47761  1.0000
  C   C709      1.0  0.55280  0.04172  0.20934  1.0000
  C   C710      1.0  0.34425  0.03907  0.29007  1.0000
  C   C711      1.0  0.48229  0.43584  0.07410  1.0000
  C   C712      1.0  0.52212  0.12400  0.26286  1.0000
  S   S99       1.0  0.61372  0.47512  0.32884  1.0000
  P   P23       1.0  0.46123  0.99956  0.46933  1.0000
  H   H563      1.0  0.51145  0.14216  0.17054  1.0000
  H   H564      1.0  0.56350  0.21014  0.42980  1.0000
  C   C713      1.0  0.60592  0.07268  0.41810  1.0000
  H   H565      1.0  0.50701  0.11719  0.27707  1.0000
  H   H566      1.0  0.43280  0.04965  0.10300  1.0000
  C   C714      1.0  0.42595  0.43276  0.47061  1.0000
  H   H567      1.0  0.58987  0.44963  0.42252  1.0000
  C   C715      1.0  0.50888  0.00936  0.24914  1.0000
  C   C716      1.0  0.52738  0.98664  0.02247  1.0000
  C   C717      1.0  0.43820  0.04511  0.07723  1.0000
  H   H568      1.0  0.55813  0.03269  0.23266  1.0000
  H   H569      1.0  0.53993  0.00943  0.18556  1.0000
  H   H570      1.0  0.48687  0.46318  0.15153  1.0000
  C   C718      1.0  0.61788  0.37157  0.15050  1.0000
  C   C719      1.0  0.49004  0.45949  0.12476  1.0000
  H   H571      1.0  0.51495  0.99156  0.24100  1.0000
  C   C720      1.0  0.60738  0.43966  0.05303  1.0000
  C   C721      1.0  0.32559  0.99552  0.17310  1.0000
  S   S100      1.0  0.59225  0.99290  0.18669  1.0000
  H   H572      1.0  0.49261  0.45633  0.36873  1.0000
  C   C722      1.0  0.62062  0.43503  0.08279  1.0000
  C   C723      1.0  0.44892  0.01500  0.03410  1.0000
  C   C724      1.0  0.55742  0.14889  0.26077  1.0000
  H   H573      1.0  0.60561  0.13340  0.43170  1.0000
  H   H574      1.0  0.40274  0.98214  0.37737  1.0000
  C   C725      1.0  0.47850  0.44033  0.10873  1.0000
  H   H575      1.0  0.60319  0.06002  0.39740  1.0000
  C   C726      1.0  0.40301  0.01852  0.17732  1.0000
  C   C727      1.0  0.40132  0.99893  0.19934  1.0000
  C   C728      1.0  0.41588  0.99767  0.22836  1.0000
  C   C729      1.0  0.43217  0.01593  0.23545  1.0000
  C   C730      1.0  0.43439  0.03544  0.21320  1.0000
  C   C731      1.0  0.41937  0.03684  0.18433  1.0000
  P   P24       1.0  0.45592  0.05872  0.22233  1.0000
  C   C732      1.0  0.44327  0.08073  0.25204  1.0000
  C   C733      1.0  0.48216  0.04450  0.24225  1.0000
  C   C734      1.0  0.49371  0.05553  0.27009  1.0000
  C   C735      1.0  0.51251  0.04351  0.28726  1.0000
  C   C736      1.0  0.51994  0.02033  0.27702  1.0000
  H   H576      1.0  0.51534  0.10224  0.21851  1.0000
  C   C737      1.0  0.49014  0.02136  0.23174  1.0000
  C   C738      1.0  0.45384  0.10342  0.25607  1.0000
  C   C739      1.0  0.44585  0.11932  0.28176  1.0000
  C   C740      1.0  0.42735  0.11268  0.30369  1.0000
  C   C741      1.0  0.41663  0.09026  0.29970  1.0000
  C   C742      1.0  0.42456  0.07434  0.27405  1.0000
  C   C743      1.0  0.46433  0.07185  0.18205  1.0000
  C   C744      1.0  0.45524  0.09471  0.17234  1.0000
  C   C745      1.0  0.46129  0.10435  0.14073  1.0000
  C   C746      1.0  0.47579  0.09096  0.11806  1.0000
  C   C747      1.0  0.48386  0.06777  0.12674  1.0000
  C   C748      1.0  0.47835  0.05830  0.15868  1.0000
  H   H577      1.0  0.39150  0.01957  0.15501  1.0000
  C   C749      1.0  0.40694  0.45175  0.36334  1.0000
  C   C750      1.0  0.46135  0.45392  0.48999  1.0000
  H   H578      1.0  0.44278  0.01492  0.25863  1.0000
  H   H579      1.0  0.42022  0.05205  0.16729  1.0000
  H   H580      1.0  0.48812  0.07319  0.27931  1.0000
  H   H581      1.0  0.52127  0.05220  0.30865  1.0000
  C   C751      1.0  0.62483  0.46337  0.41118  1.0000
  H   H582      1.0  0.53392  0.14660  0.30428  1.0000
  H   H583      1.0  0.48151  0.01228  0.21067  1.0000
  H   H584      1.0  0.46886  0.10848  0.24026  1.0000
  H   H585      1.0  0.45440  0.13658  0.28532  1.0000
  H   H586      1.0  0.42167  0.12465  0.32432  1.0000
  H   H587      1.0  0.40280  0.08479  0.31740  1.0000
  H   H588      1.0  0.41674  0.05668  0.27260  1.0000
  H   H589      1.0  0.44320  0.10508  0.18881  1.0000
  H   H590      1.0  0.45460  0.12216  0.13363  1.0000
  H   H591      1.0  0.48057  0.09841  0.09355  1.0000
  H   H592      1.0  0.49454  0.05723  0.10855  1.0000
  H   H593      1.0  0.48486  0.04032  0.16490  1.0000
  C   C752      1.0  0.50623  0.46213  0.38655  1.0000
  C   C753      1.0  0.49557  0.97862  0.42513  1.0000
  H   H594      1.0  0.60246  0.99585  0.02004  1.0000
  C   C754      1.0  0.47978  0.46098  0.29791  1.0000
  H   H595      1.0  0.56458  0.07626  0.22665  1.0000
  H   H596      1.0  0.52844  0.25626  0.01402  1.0000
  H   H597      1.0  0.46752  0.37200  0.16949  1.0000
  C   C755      1.0  0.63051  0.38780  0.13056  1.0000
  H   H598      1.0  0.42163  0.45980  0.26855  1.0000
  C   C756      1.0  0.49765  0.45038  0.05541  1.0000
  C   C757      1.0  0.31989  0.03296  0.28888  1.0000
  C   C758      1.0  0.44147  0.06347  0.05359  1.0000
  H   H599      1.0  0.53451  0.01100  0.29036  1.0000
  C   C759      1.0  0.56923  0.35322  0.33554  1.0000
  C   C760      1.0  0.58781  0.34462  0.31439  1.0000
  C   C761      1.0  0.59764  0.32142  0.31912  1.0000
  C   C762      1.0  0.58888  0.30680  0.34502  1.0000
  C   C763      1.0  0.56985  0.31514  0.36601  1.0000
  C   C764      1.0  0.56044  0.33867  0.36144  1.0000
  P   P25       1.0  0.56031  0.29717  0.40165  1.0000
  C   C765      1.0  0.56180  0.26521  0.39128  1.0000
  C   C766      1.0  0.57936  0.30395  0.43786  1.0000
  C   C767      1.0  0.57268  0.29674  0.47060  1.0000
  H   H600      1.0  0.45963  0.22219  0.01685  1.0000
  C   C768      1.0  0.58640  0.11550  0.16158  1.0000
  H   H601      1.0  0.54083  0.00033  0.01941  1.0000
  C   C769      1.0  0.60103  0.31639  0.43372  1.0000
  C   C770      1.0  0.55763  0.25736  0.35766  1.0000
  C   C771      1.0  0.55618  0.23270  0.35009  1.0000
  C   C772      1.0  0.55851  0.21569  0.37605  1.0000
  C   C773      1.0  0.50958  0.23990  0.46391  1.0000
  C   C774      1.0  0.56422  0.24790  0.41714  1.0000
  C   C775      1.0  0.52912  0.30459  0.41182  1.0000
  C   C776      1.0  0.52324  0.32567  0.43037  1.0000
  C   C777      1.0  0.49905  0.33191  0.43700  1.0000
  C   C778      1.0  0.48062  0.31680  0.42632  1.0000
  C   C779      1.0  0.48631  0.29559  0.40838  1.0000
  C   C780      1.0  0.51041  0.28958  0.40089  1.0000
  H   H602      1.0  0.56217  0.37150  0.33249  1.0000
  H   H603      1.0  0.59491  0.35621  0.29486  1.0000
  H   H604      1.0  0.61236  0.31493  0.30309  1.0000
  H   H605      1.0  0.59729  0.28921  0.34910  1.0000
  H   H606      1.0  0.54680  0.34618  0.37831  1.0000
  H   H607      1.0  0.55571  0.28792  0.47473  1.0000
  C   C781      1.0  0.50285  0.99304  0.02019  1.0000
  H   H608      1.0  0.59995  0.07997  0.17640  1.0000
  C   C782      1.0  0.58673  0.02064  0.47384  1.0000
  H   H609      1.0  0.60654  0.32271  0.40901  1.0000
  H   H610      1.0  0.55461  0.27026  0.33744  1.0000
  H   H611      1.0  0.55257  0.22678  0.32426  1.0000
  H   H612      1.0  0.55657  0.19662  0.37054  1.0000
  H   H613      1.0  0.33123  0.46202  0.28938  1.0000
  H   H614      1.0  0.55608  0.43468  0.46984  1.0000
  H   H615      1.0  0.53730  0.33744  0.43945  1.0000
  H   H616      1.0  0.49456  0.34841  0.45072  1.0000
  H   H617      1.0  0.47206  0.28365  0.40050  1.0000
  H   H618      1.0  0.51419  0.27300  0.38701  1.0000
  C   C783      1.0  0.50444  0.14994  0.11796  1.0000
  C   C784      1.0  0.51161  0.14604  0.08419  1.0000
  C   C785      1.0  0.53129  0.13062  0.07698  1.0000
  C   C786      1.0  0.54402  0.11936  0.10351  1.0000
  C   C787      1.0  0.53710  0.12330  0.13753  1.0000
  C   C788      1.0  0.51704  0.13854  0.14459  1.0000
  P   P26       1.0  0.55512  0.11008  0.17140  1.0000
  C   C789      1.0  0.55047  0.07807  0.17517  1.0000
  C   C790      1.0  0.54260  0.02859  0.18272  1.0000
  C   C791      1.0  0.53667  0.04001  0.15219  1.0000
  C   C792      1.0  0.54089  0.06461  0.14817  1.0000
  C   C793      1.0  0.54742  0.12347  0.21224  1.0000
  C   C794      1.0  0.52700  0.11555  0.22985  1.0000
  C   C795      1.0  0.44192  0.02094  0.06758  1.0000
  C   C796      1.0  0.60434  0.09735  0.41106  1.0000
  H   H619      1.0  0.53678  0.07291  0.12394  1.0000
  C   C797      1.0  0.56250  0.14035  0.22788  1.0000
  H   H620      1.0  0.60533  0.35928  0.13866  1.0000
  H   H621      1.0  0.42396  0.46826  0.15719  1.0000
  H   H622      1.0  0.64207  0.08777  0.16204  1.0000
  C   C798      1.0  0.61587  0.32105  0.46180  1.0000
  H   H623      1.0  0.47409  0.99684  0.12508  1.0000
  S   S101      1.0  0.64026  0.01914  0.22123  1.0000
  C   C799      1.0  0.31870  0.06893  0.16574  1.0000
  H   H624      1.0  0.43959  0.99990  0.40076  1.0000
  C   C800      1.0  0.45239  0.03361  0.01062  1.0000
  P   P27       1.0  0.45341  0.98382  0.02128  1.0000
  H   H625      1.0  0.38863  0.98471  0.19433  1.0000
  H   H626      1.0  0.55341  0.46942  0.10866  1.0000
  C   C801      1.0  0.61002  0.99944  0.40598  1.0000
  H   H627      1.0  0.59400  0.47569  0.13210  1.0000
  H   H628      1.0  0.63887  0.38773  0.22859  1.0000
  H   H629      1.0  0.45220  0.98778  0.31356  1.0000
  C   C802      1.0  0.63674  0.38767  0.20120  1.0000
  C   C803      1.0  0.42805  0.98990  0.41752  1.0000
  Fe  Fe49      1.0  0.36403  0.47348  0.17641  1.0000
  H   H630      1.0  0.49975  0.44683  0.02848  1.0000
  C   C804      1.0  0.61934  0.44248  0.02206  1.0000
  C   C805      1.0  0.50518  0.47424  0.10605  1.0000
  C   C806      1.0  0.32169  0.03026  0.22713  1.0000
  C   C807      1.0  0.47791  0.98496  0.14629  1.0000
  S   S102      1.0  0.33695  0.47666  0.21916  1.0000
  C   C808      1.0  0.64290  0.02734  0.40094  1.0000
  C   C809      1.0  0.52759  0.47196  0.37468  1.0000
  H   H631      1.0  0.51654  0.98621  0.13999  1.0000
  C   C810      1.0  0.51478  0.25940  0.48599  1.0000
  C   C811      1.0  0.63429  0.99966  0.35467  1.0000
  C   C812      1.0  0.64595  0.40453  0.14589  1.0000
  Fe  Fe50      1.0  0.38019  0.98305  0.31400  1.0000
  H   H632      1.0  0.63793  0.99296  0.32909  1.0000
  H   H633      1.0  0.49984  0.24330  0.44045  1.0000
  H   H634      1.0  0.54720  0.44354  0.02193  1.0000
  C   C813      1.0  0.54187  0.47659  0.43284  1.0000
  H   H635      1.0  0.53065  0.47364  0.34762  1.0000
  C   C814      1.0  0.52872  0.21789  0.00257  1.0000
  H   H636      1.0  0.49299  0.03767  0.49382  1.0000
  C   C815      1.0  0.50186  0.97917  0.15488  1.0000
  C   C816      1.0  0.40700  0.98003  0.40415  1.0000
  H   H637      1.0  0.50899  0.27757  0.47946  1.0000
  H   H638      1.0  0.61260  0.11968  0.49100  1.0000
  C   C817      1.0  0.47454  0.04459  0.49437  1.0000
  C   C818      1.0  0.51120  0.97859  0.39716  1.0000
  C   C819      1.0  0.42737  0.06374  0.49553  1.0000
  C   C820      1.0  0.64593  0.43263  0.08166  1.0000
  C   C821      1.0  0.64459  0.44104  0.02096  1.0000
  H   H639      1.0  0.40925  0.07155  0.49479  1.0000
  S   S103      1.0  0.47849  0.33784  0.00208  1.0000
  H   H640      1.0  0.47928  0.18266  0.00193  1.0000
  Fe  Fe51      1.0  0.48459  0.09288  0.94195  1.0000
  S   S104      1.0  0.50691  0.12126  0.91672  1.0000
  S   S105      1.0  0.44494  0.08488  0.93202  1.0000
  C   C822      1.0  0.45855  0.00356  0.70491  1.0000
  S   S106      1.0  0.55059  0.10471  0.96902  1.0000
  C   C823      1.0  0.42199  0.98865  0.67823  1.0000
  Fe  Fe52      1.0  0.51911  0.13147  0.96969  1.0000
  H   H641      1.0  0.48156  0.47025  0.76593  1.0000
  Fe  Fe53      1.0  0.53667  0.09281  0.91778  1.0000
  S   S107      1.0  0.56311  0.09064  0.87347  1.0000
  H   H642      1.0  0.51387  0.99666  0.94235  1.0000
  S   S108      1.0  0.51354  0.06385  0.93946  1.0000
  Fe  Fe54      1.0  0.61682  0.03552  0.65903  1.0000
  S   S109      1.0  0.58228  0.01794  0.67350  1.0000
  S   S110      1.0  0.61668  0.07067  0.63000  1.0000
  Fe  Fe55      1.0  0.60225  0.00626  0.72071  1.0000
  S   S111      1.0  0.58351  0.00249  0.77186  1.0000
  H   H643      1.0  0.45242  0.02241  0.75312  1.0000
  S   S112      1.0  0.40899  0.00600  0.82493  1.0000
  H   H644      1.0  0.53503  0.19374  0.50895  1.0000
  Fe  Fe56      1.0  0.49588  0.36109  0.57492  1.0000
  S   S113      1.0  0.52560  0.33772  0.59715  1.0000
  S   S114      1.0  0.46215  0.36601  0.60731  1.0000
  H   H645      1.0  0.59211  0.08590  0.81355  1.0000
  C   C824      1.0  0.56321  0.01310  0.94154  1.0000
  S   S115      1.0  0.52772  0.36439  0.95311  1.0000
  Fe  Fe57      1.0  0.52872  0.32038  0.54512  1.0000
  H   H646      1.0  0.51131  0.29144  0.95438  1.0000
  Fe  Fe58      1.0  0.55047  0.36598  0.57873  1.0000
  S   S116      1.0  0.58283  0.37937  0.60865  1.0000
  C   C825      1.0  0.57889  0.47396  0.52822  1.0000
  S   S117      1.0  0.52069  0.39053  0.55948  1.0000
  Fe  Fe59      1.0  0.62374  0.43849  0.86417  1.0000
  S   S118      1.0  0.59175  0.45669  0.83947  1.0000
  S   S119      1.0  0.62301  0.41972  0.91549  1.0000
  Fe  Fe60      1.0  0.60606  0.44139  0.78990  1.0000
  S   S120      1.0  0.57564  0.42638  0.75700  1.0000
  C   C826      1.0  0.44955  0.44512  0.95486  1.0000
  P   P28       1.0  0.50654  0.20740  0.87014  1.0000
  C   C827      1.0  0.63158  0.35919  0.87084  1.0000
  H   H647      1.0  0.48511  0.07912  0.51414  1.0000
  C   C828      1.0  0.44665  0.39421  0.61085  1.0000
  C   C829      1.0  0.45225  0.41342  0.58970  1.0000
  C   C830      1.0  0.43918  0.43544  0.59229  1.0000
  C   C831      1.0  0.42067  0.43862  0.61647  1.0000
  C   C832      1.0  0.41542  0.41958  0.63824  1.0000
  C   C833      1.0  0.42833  0.39742  0.63531  1.0000
  H   H648      1.0  0.46640  0.41115  0.57101  1.0000
  H   H649      1.0  0.44328  0.45004  0.57524  1.0000
  H   H650      1.0  0.40098  0.42167  0.65662  1.0000
  H   H651      1.0  0.42393  0.38262  0.65181  1.0000
  C   C834      1.0  0.55439  0.37994  0.94426  1.0000
  C   C835      1.0  0.57382  0.38076  0.96711  1.0000
  C   C836      1.0  0.59497  0.39290  0.95808  1.0000
  C   C837      1.0  0.59656  0.40448  0.92645  1.0000
  C   C838      1.0  0.57707  0.40372  0.90388  1.0000
  C   C839      1.0  0.55618  0.39134  0.91267  1.0000
  H   H652      1.0  0.64168  0.01700  0.80197  1.0000
  H   H653      1.0  0.61005  0.39340  0.97564  1.0000
  H   H654      1.0  0.57813  0.41266  0.87960  1.0000
  H   H655      1.0  0.54119  0.39076  0.89500  1.0000
  C   C840      1.0  0.58031  0.39398  0.64887  1.0000
  C   C841      1.0  0.60122  0.40254  0.66493  1.0000
  C   C842      1.0  0.60007  0.41295  0.69780  1.0000
  C   C843      1.0  0.57794  0.41486  0.71487  1.0000
  C   C844      1.0  0.55695  0.40677  0.69847  1.0000
  C   C845      1.0  0.55813  0.39642  0.66562  1.0000
  H   H656      1.0  0.61848  0.40072  0.65216  1.0000
  H   H657      1.0  0.61634  0.41913  0.71012  1.0000
  H   H658      1.0  0.53974  0.40825  0.71141  1.0000
  H   H659      1.0  0.54197  0.39004  0.65336  1.0000
  S   S121      1.0  0.35415  0.98474  0.76820  1.0000
  H   H660      1.0  0.53140  0.99496  0.65665  1.0000
  H   H661      1.0  0.43566  0.13951  0.90673  1.0000
  C   C846      1.0  0.62403  0.34061  0.84901  1.0000
  H   H662      1.0  0.58468  0.99637  0.88005  1.0000
  C   C847      1.0  0.48475  0.41979  0.96720  1.0000
  C   C848      1.0  0.43563  0.42552  0.85872  1.0000
  H   H663      1.0  0.49889  0.43246  0.60436  1.0000
  C   C849      1.0  0.58763  0.25519  0.79646  1.0000
  H   H664      1.0  0.44642  0.44881  0.78694  1.0000
  C   C850      1.0  0.43505  0.06306  0.90201  1.0000
  C   C851      1.0  0.41131  0.05457  0.90400  1.0000
  C   C852      1.0  0.40277  0.03741  0.88036  1.0000
  C   C853      1.0  0.41788  0.02870  0.85432  1.0000
  C   C854      1.0  0.44128  0.03793  0.85160  1.0000
  C   C855      1.0  0.45001  0.05463  0.87564  1.0000
  H   H665      1.0  0.39946  0.06128  0.92398  1.0000
  H   H666      1.0  0.38452  0.03095  0.88225  1.0000
  H   H667      1.0  0.45272  0.03220  0.83064  1.0000
  H   H668      1.0  0.46812  0.06140  0.87331  1.0000
  C   C856      1.0  0.56153  0.07315  0.54215  1.0000
  C   C857      1.0  0.57455  0.09374  0.55050  1.0000
  C   C858      1.0  0.59175  0.09288  0.57717  1.0000
  C   C859      1.0  0.59581  0.07152  0.59571  1.0000
  C   C860      1.0  0.58317  0.05088  0.58666  1.0000
  C   C861      1.0  0.56633  0.05169  0.55987  1.0000
  S   S122      1.0  0.63618  0.42042  0.81569  1.0000
  H   H669      1.0  0.60153  0.10891  0.58394  1.0000
  H   H670      1.0  0.58642  0.03419  0.60017  1.0000
  H   H671      1.0  0.55685  0.03556  0.55297  1.0000
  C   C862      1.0  0.56783  0.06602  0.84507  1.0000
  C   C863      1.0  0.55678  0.04385  0.84971  1.0000
  C   C864      1.0  0.56163  0.02457  0.82693  1.0000
  C   C865      1.0  0.57731  0.02739  0.79919  1.0000
  C   C866      1.0  0.58815  0.04962  0.79439  1.0000
  C   C867      1.0  0.58349  0.06881  0.81732  1.0000
  H   H672      1.0  0.54434  0.04168  0.87055  1.0000
  H   H673      1.0  0.55299  0.00748  0.83054  1.0000
  H   H674      1.0  0.60028  0.05199  0.77316  1.0000
  C   C868      1.0  0.54410  0.45526  0.00031  1.0000
  C   C869      1.0  0.44604  0.47335  0.69481  1.0000
  H   H675      1.0  0.59249  0.46373  0.57774  1.0000
  H   H676      1.0  0.49068  0.27348  0.60149  1.0000
  H   H677      1.0  0.38351  0.45149  0.80252  1.0000
  C   C870      1.0  0.50368  0.21896  0.82745  1.0000
  H   H678      1.0  0.54059  0.20024  0.92687  1.0000
  C   C871      1.0  0.62847  0.07308  0.87855  1.0000
  H   H679      1.0  0.55328  0.47351  0.78727  1.0000
  H   H680      1.0  0.62067  0.36479  0.89252  1.0000
  C   C872      1.0  0.59151  0.27603  0.85064  1.0000
  H   H681      1.0  0.62086  0.31668  0.51593  1.0000
  H   H682      1.0  0.46511  0.22592  0.83133  1.0000
  C   C873      1.0  0.56446  0.17115  0.91180  1.0000
  C   C874      1.0  0.57040  0.15407  0.88665  1.0000
  C   C875      1.0  0.55768  0.15397  0.85586  1.0000
  C   C876      1.0  0.53898  0.17091  0.85022  1.0000
  C   C877      1.0  0.53319  0.18841  0.87515  1.0000
  C   C878      1.0  0.54582  0.18815  0.90621  1.0000
  C   C879      1.0  0.48223  0.18782  0.88134  1.0000
  S   S123      1.0  0.63568  0.02720  0.70897  1.0000
  Fe  Fe61      1.0  0.37571  0.98251  0.81685  1.0000
  S   S124      1.0  0.49441  0.10543  0.99505  1.0000
  H   H683      1.0  0.47764  0.01054  0.54001  1.0000
  C   C880      1.0  0.44661  0.07780  0.50638  1.0000
  C   C881      1.0  0.47797  0.18278  0.91571  1.0000
  H   H684      1.0  0.58359  0.42054  0.56992  1.0000
  H   H685      1.0  0.58418  0.14029  0.89150  1.0000
  H   H686      1.0  0.56165  0.13999  0.83706  1.0000
  H   H687      1.0  0.52848  0.16974  0.82697  1.0000
  C   C882      1.0  0.51131  0.99136  0.91598  1.0000
  H   H688      1.0  0.47054  0.23309  0.91351  1.0000
  C   C883      1.0  0.58407  0.45763  0.55435  1.0000
  Fe  Fe62      1.0  0.52476  0.36964  0.51020  1.0000
  C   C884      1.0  0.61622  0.05604  0.89752  1.0000
  H   H689      1.0  0.49726  0.24606  0.73660  1.0000
  H   H690      1.0  0.48843  0.19146  0.93543  1.0000
  C   C885      1.0  0.58402  0.35573  0.74155  1.0000
  C   C886      1.0  0.59776  0.35123  0.71233  1.0000
  C   C887      1.0  0.58709  0.34077  0.68369  1.0000
  C   C888      1.0  0.56266  0.33484  0.68420  1.0000
  C   C889      1.0  0.54896  0.33834  0.71398  1.0000
  C   C890      1.0  0.55975  0.34925  0.74242  1.0000
  P   P29       1.0  0.51700  0.33227  0.71484  1.0000
  C   C891      1.0  0.50224  0.36162  0.71276  1.0000
  C   C892      1.0  0.50784  0.31275  0.68020  1.0000
  C   C893      1.0  0.48583  0.31699  0.66304  1.0000
  C   C894      1.0  0.47960  0.30276  0.63493  1.0000
  C   C895      1.0  0.49501  0.28388  0.62416  1.0000
  C   C896      1.0  0.51635  0.27879  0.64208  1.0000
  C   C897      1.0  0.52260  0.29293  0.67033  1.0000
  C   C898      1.0  0.49538  0.37411  0.74261  1.0000
  C   C899      1.0  0.48450  0.39714  0.74066  1.0000
  C   C900      1.0  0.48070  0.40789  0.70895  1.0000
  C   C901      1.0  0.48819  0.39588  0.67936  1.0000
  C   C902      1.0  0.49906  0.37295  0.68122  1.0000
  C   C903      1.0  0.50931  0.31662  0.75333  1.0000
  C   C904      1.0  0.52691  0.30294  0.77091  1.0000
  C   C905      1.0  0.52093  0.29083  0.80075  1.0000
  C   C906      1.0  0.49725  0.29212  0.81308  1.0000
  C   C907      1.0  0.47945  0.30516  0.79518  1.0000
  C   C908      1.0  0.48540  0.31721  0.76523  1.0000
  H   H691      1.0  0.59193  0.36526  0.76292  1.0000
  H   H692      1.0  0.61631  0.35708  0.71117  1.0000
  H   H693      1.0  0.59734  0.33870  0.66029  1.0000
  H   H694      1.0  0.55450  0.32842  0.66090  1.0000
  H   H695      1.0  0.54915  0.35351  0.76483  1.0000
  H   H696      1.0  0.47368  0.33169  0.67048  1.0000
  H   H697      1.0  0.46319  0.30697  0.62076  1.0000
  C   C909      1.0  0.48260  0.44224  0.91455  1.0000
  H   H698      1.0  0.52838  0.26435  0.63323  1.0000
  H   H699      1.0  0.53934  0.28890  0.68365  1.0000
  H   H700      1.0  0.49858  0.36620  0.76732  1.0000
  H   H701      1.0  0.47910  0.40673  0.76364  1.0000
  H   H702      1.0  0.47204  0.42551  0.70709  1.0000
  H   H703      1.0  0.48547  0.40425  0.65480  1.0000
  H   H704      1.0  0.50494  0.36411  0.65790  1.0000
  H   H705      1.0  0.54520  0.30162  0.76145  1.0000
  H   H706      1.0  0.53464  0.28040  0.81432  1.0000
  H   H707      1.0  0.49264  0.28278  0.83627  1.0000
  H   H708      1.0  0.46101  0.30588  0.80445  1.0000
  H   H709      1.0  0.47138  0.32703  0.75137  1.0000
  H   H710      1.0  0.42887  0.39152  0.83381  1.0000
  H   H711      1.0  0.47640  0.45870  0.64424  1.0000
  H   H712      1.0  0.55772  0.33146  0.91078  1.0000
  C   C910      1.0  0.58737  0.02486  0.99013  1.0000
  C   C911      1.0  0.50048  0.02828  0.73619  1.0000
  H   H713      1.0  0.58861  0.23745  0.84510  1.0000
  H   H714      1.0  0.53919  0.99543  0.73068  1.0000
  C   C912      1.0  0.44447  0.01277  0.73205  1.0000
  C   C913      1.0  0.52181  0.23106  0.77408  1.0000
  H   H715      1.0  0.41318  0.97900  0.65780  1.0000
  C   C914      1.0  0.52946  0.24684  0.89915  1.0000
  H   H716      1.0  0.59449  0.30469  0.99911  1.0000
  C   C915      1.0  0.52573  0.01729  0.61301  1.0000
  H   H717      1.0  0.45800  0.16171  0.95143  1.0000
  H   H718      1.0  0.59091  0.31574  0.78479  1.0000
  H   H719      1.0  0.45734  0.98495  0.65619  1.0000
  H   H720      1.0  0.57347  0.17051  0.93635  1.0000
  C   C916      1.0  0.48747  0.24244  0.91495  1.0000
  C   C917      1.0  0.42624  0.46095  0.70701  1.0000
  C   C918      1.0  0.50796  0.23388  0.89714  1.0000
  C   C919      1.0  0.64529  0.02514  0.87987  1.0000
  H   H721      1.0  0.62147  0.09151  0.87748  1.0000
  C   C920      1.0  0.53466  0.23144  0.52436  1.0000
  C   C921      1.0  0.48423  0.03515  0.64599  1.0000
  C   C922      1.0  0.49032  0.04377  0.61381  1.0000
  C   C923      1.0  0.51109  0.03491  0.59736  1.0000
  S   S125      1.0  0.49709  0.34191  0.52419  1.0000
  C   C924      1.0  0.49870  0.02225  0.77078  1.0000
  H   H722      1.0  0.54195  0.21607  0.81600  1.0000
  C   C925      1.0  0.51053  0.05040  0.72727  1.0000
  C   C926      1.0  0.51817  0.06642  0.75262  1.0000
  C   C927      1.0  0.51574  0.06055  0.78696  1.0000
  C   C928      1.0  0.50600  0.03847  0.79604  1.0000
  H   H723      1.0  0.55759  0.32139  0.97128  1.0000
  C   C929      1.0  0.59469  0.30876  0.97214  1.0000
  C   C930      1.0  0.53067  0.26757  0.91962  1.0000
  H   H724      1.0  0.54342  0.31943  0.85401  1.0000
  C   C931      1.0  0.49885  0.01746  0.66189  1.0000
  C   C932      1.0  0.41946  0.00971  0.73228  1.0000
  S   S126      1.0  0.40413  0.46633  0.61710  1.0000
  C   C933      1.0  0.59050  0.29875  0.79819  1.0000
  C   C934      1.0  0.40975  0.45913  0.84135  1.0000
  H   H725      1.0  0.46829  0.04252  0.65866  1.0000
  H   H726      1.0  0.47918  0.05764  0.60177  1.0000
  H   H727      1.0  0.51594  0.04195  0.57266  1.0000
  C   C935      1.0  0.53386  0.47327  0.66708  1.0000
  C   C936      1.0  0.46645  0.46763  0.74893  1.0000
  H   H728      1.0  0.51285  0.05528  0.70087  1.0000
  H   H729      1.0  0.52623  0.08331  0.74564  1.0000
  H   H730      1.0  0.52177  0.07295  0.80656  1.0000
  C   C937      1.0  0.42365  0.41045  0.83575  1.0000
  H   H731      1.0  0.55260  0.01847  0.91961  1.0000
  H   H732      1.0  0.47315  0.26933  0.95002  1.0000
  C   C938      1.0  0.49035  0.99914  0.89887  1.0000
  H   H733      1.0  0.52622  0.46336  0.73971  1.0000
  C   C939      1.0  0.61577  0.30502  0.95312  1.0000
  H   H734      1.0  0.64516  0.03720  0.57797  1.0000
  H   H735      1.0  0.54743  0.27717  0.92191  1.0000
  H   H736      1.0  0.63201  0.29796  0.96534  1.0000
  C   C940      1.0  0.48875  0.26320  0.93533  1.0000
  H   H737      1.0  0.63246  0.30756  0.90403  1.0000
  C   C941      1.0  0.46090  0.16578  0.92483  1.0000
  C   C942      1.0  0.44352  0.98006  0.97773  1.0000
  C   C943      1.0  0.47872  0.23664  0.78266  1.0000
  C   C944      1.0  0.57464  0.36955  0.83346  1.0000
  C   C945      1.0  0.55515  0.38455  0.82389  1.0000
  C   C946      1.0  0.53156  0.37621  0.82545  1.0000
  C   C947      1.0  0.57400  0.32377  0.92184  1.0000
  H   H738      1.0  0.54806  0.21681  0.99865  1.0000
  H   H739      1.0  0.46957  0.99689  0.85254  1.0000
  C   C948      1.0  0.41517  0.98947  0.93204  1.0000
  C   C949      1.0  0.56413  0.99348  0.50954  1.0000
  C   C950      1.0  0.63847  0.33405  0.82087  1.0000
  H   H740      1.0  0.53758  0.23271  0.75804  1.0000
  H   H741      1.0  0.54537  0.24070  0.88531  1.0000
  C   C951      1.0  0.42288  0.99261  0.96569  1.0000
  H   H742      1.0  0.49153  0.00505  0.77816  1.0000
  H   H743      1.0  0.59265  0.37673  0.83237  1.0000
  H   H744      1.0  0.55837  0.40287  0.81583  1.0000
  H   H745      1.0  0.51656  0.38816  0.81870  1.0000
  S   S127      1.0  0.53814  0.07315  0.51132  1.0000
  C   C952      1.0  0.45960  0.45155  0.92348  1.0000
  C   C953      1.0  0.42876  0.45003  0.86166  1.0000
  H   H746      1.0  0.39650  0.45374  0.92076  1.0000
  C   C954      1.0  0.55067  0.44706  0.96787  1.0000
  H   H747      1.0  0.63340  0.31974  0.80370  1.0000
  H   H748      1.0  0.61600  0.07661  0.50368  1.0000
  C   C955      1.0  0.39785  0.44405  0.81846  1.0000
  S   S128      1.0  0.35968  0.47295  0.70488  1.0000
  H   H749      1.0  0.59996  0.06142  0.91119  1.0000
  C   C956      1.0  0.47014  0.06815  0.50604  1.0000
  C   C957      1.0  0.45272  0.15790  0.86527  1.0000
  H   H750      1.0  0.46113  0.24266  0.77335  1.0000
  H   H751      1.0  0.57102  0.11039  0.53697  1.0000
  H   H752      1.0  0.59272  0.27501  0.87810  1.0000
  H   H753      1.0  0.39901  0.99881  0.92302  1.0000
  H   H754      1.0  0.60267  0.99585  0.51067  1.0000
  H   H755      1.0  0.39543  0.40802  0.79792  1.0000
  H   H756      1.0  0.43194  0.45190  0.96266  1.0000
  H   H757      1.0  0.33885  0.46003  0.81092  1.0000
  H   H758      1.0  0.56945  0.04997  0.95643  1.0000
  C   C958      1.0  0.48101  0.22703  0.81540  1.0000
  H   H759      1.0  0.51254  0.41881  0.92913  1.0000
  C   C959      1.0  0.44698  0.99186  0.67768  1.0000
  C   C960      1.0  0.42639  0.45198  0.74004  1.0000
  H   H760      1.0  0.41076  0.44270  0.74923  1.0000
  H   H761      1.0  0.44339  0.09643  0.51409  1.0000
  P   P30       1.0  0.49102  0.00703  0.70386  1.0000
  S   S129      1.0  0.53500  0.27914  0.54526  1.0000
  H   H762      1.0  0.52548  0.99479  0.50309  1.0000
  C   C961      1.0  0.51964  0.00851  0.64510  1.0000
  C   C962      1.0  0.57385  0.31807  0.95646  1.0000
  C   C963      1.0  0.50863  0.44387  0.62189  1.0000
  C   C964      1.0  0.53387  0.44319  0.62204  1.0000
  H   H763      1.0  0.63350  0.98111  0.76712  1.0000
  H   H764      1.0  0.41063  0.45856  0.69080  1.0000
  S   S130      1.0  0.63244  0.00307  0.63220  1.0000
  H   H765      1.0  0.49419  0.40704  0.98365  1.0000
  H   H766      1.0  0.40404  0.47793  0.84315  1.0000
  H   H767      1.0  0.55864  0.42925  0.96472  1.0000
  H   H768      1.0  0.58617  0.23853  0.78199  1.0000
  H   H769      1.0  0.58744  0.27778  0.75198  1.0000
  C   C965      1.0  0.61596  0.31058  0.91842  1.0000
  C   C966      1.0  0.51034  0.27569  0.93784  1.0000
  C   C967      1.0  0.44644  0.45542  0.76110  1.0000
  H   H770      1.0  0.61511  0.01893  0.91304  1.0000
  H   H771      1.0  0.57266  0.37187  0.99147  1.0000
  H   H772      1.0  0.50450  0.03385  0.82270  1.0000
  C   C968      1.0  0.48621  0.99168  0.86532  1.0000
  C   C969      1.0  0.56719  0.98857  0.94920  1.0000
  S   S131      1.0  0.55642  0.34716  0.52821  1.0000
  C   C970      1.0  0.49908  0.23858  0.76196  1.0000
  C   C971      1.0  0.54648  0.45795  0.64453  1.0000
  C   C972      1.0  0.46972  0.17499  0.85609  1.0000
  C   C973      1.0  0.40473  0.41969  0.81569  1.0000
  H   H773      1.0  0.44989  0.41782  0.87442  1.0000
  C   C974      1.0  0.59504  0.32002  0.90248  1.0000
  C   C975      1.0  0.57065  0.34597  0.84475  1.0000
  C   C976      1.0  0.63225  0.03438  0.52648  1.0000
  S   S132      1.0  0.53018  0.16916  0.98786  1.0000
  H   H774      1.0  0.47358  0.17755  0.82939  1.0000
  C   C977      1.0  0.44832  0.15327  0.89962  1.0000
  C   C978      1.0  0.57904  0.43322  0.54998  1.0000
  C   C979      1.0  0.46211  0.42932  0.97658  1.0000
  C   C980      1.0  0.62464  0.03209  0.89828  1.0000
  H   H775      1.0  0.58271  0.29478  0.52354  1.0000
  C   C981      1.0  0.52744  0.35265  0.83606  1.0000
  C   C982      1.0  0.52417  0.22147  0.80683  1.0000
  H   H776      1.0  0.49070  0.44682  0.89042  1.0000
  H   H777      1.0  0.47700  0.01057  0.91181  1.0000
  C   C983      1.0  0.49505  0.42639  0.93633  1.0000
  C   C984      1.0  0.40825  0.99753  0.70555  1.0000
  C   C985      1.0  0.54728  0.46190  0.93961  1.0000
  C   C986      1.0  0.50655  0.97862  0.71227  1.0000
  C   C987      1.0  0.50842  0.47341  0.66809  1.0000
  H   H778      1.0  0.44335  0.14772  0.84581  1.0000
  P   P31       1.0  0.59561  0.32628  0.85733  1.0000
  C   C988      1.0  0.54692  0.33752  0.84540  1.0000
  H   H779      1.0  0.54368  0.43096  0.60509  1.0000
  H   H780      1.0  0.50914  0.34622  0.83760  1.0000
  C   C989      1.0  0.59249  0.29830  0.83382  1.0000
  S   S133      1.0  0.62933  0.47323  0.77880  1.0000
  C   C990      1.0  0.58838  0.27727  0.77957  1.0000
  C   C991      1.0  0.58905  0.25459  0.83198  1.0000
  H   H781      1.0  0.61436  0.04109  0.53321  1.0000
  H   H782      1.0  0.54200  0.01052  0.60048  1.0000
  C   C992      1.0  0.58171  0.98251  0.97747  1.0000
  H   H783      1.0  0.40247  0.46625  0.51776  1.0000
  H   H784      1.0  0.56608  0.45713  0.64500  1.0000
  H   H785      1.0  0.45404  0.42403  0.00043  1.0000
  C   C993      1.0  0.49592  0.45881  0.64483  1.0000
  P   P32       1.0  0.44249  0.46945  0.89307  1.0000
  C   C994      1.0  0.57305  0.03111  0.96210  1.0000
  H   H786      1.0  0.40869  0.01662  0.75341  1.0000
  H   H787      1.0  0.46642  0.39403  0.50828  1.0000
  H   H788      1.0  0.48896  0.43187  0.51435  1.0000
  H   H789      1.0  0.41267  0.00477  0.98224  1.0000
  H   H790      1.0  0.38892  0.99471  0.70621  1.0000
  C   C995      1.0  0.39711  0.47319  0.92356  1.0000
  H   H791      1.0  0.60910  0.44578  0.99884  1.0000
  C   C996      1.0  0.47173  0.98089  0.50444  1.0000
  C   C997      1.0  0.47836  0.99126  0.53587  1.0000
  C   C998      1.0  0.53032  0.97861  0.72498  1.0000
  C   C999      1.0  0.56868  0.42511  0.51962  1.0000
  H   H792      1.0  0.55283  0.45558  0.91455  1.0000
  H   H793      1.0  0.56380  0.98030  0.52983  1.0000
  H   H794      1.0  0.49079  0.98472  0.58716  1.0000
  H   H795      1.0  0.45802  0.02962  0.98471  1.0000
  Fe  Fe63      1.0  0.59862  0.98486  0.64864  1.0000
  C   C1000     1.0  0.46656  0.47638  0.71540  1.0000
  Fe  Fe64      1.0  0.52500  0.07820  0.99083  1.0000
  H   H796      1.0  0.56523  0.40608  0.51597  1.0000
  H   H797      1.0  0.36157  0.47597  0.94589  1.0000
  H   H798      1.0  0.54449  0.22799  0.54774  1.0000
  C   C1001     1.0  0.52742  0.25531  0.51643  1.0000
  H   H799      1.0  0.61383  0.98813  0.83434  1.0000
  C   C1002     1.0  0.59164  0.00059  0.99789  1.0000
  C   C1003     1.0  0.51503  0.19690  0.99890  1.0000
  C   C1004     1.0  0.52933  0.21193  0.50238  1.0000
  C   C1005     1.0  0.47135  0.43220  0.50214  1.0000
  P   P33       1.0  0.47658  0.53765  0.17846  1.0000
  H   H800      1.0  0.60228  0.92175  0.49566  1.0000
  S   S134      1.0  0.60373  0.92288  0.16018  1.0000
  C   C1006     1.0  0.32941  0.94522  0.44656  1.0000
  S   S135      1.0  0.43447  0.82720  0.02192  1.0000
  C   C1007     1.0  0.56443  0.90584  0.22544  1.0000
  Fe  Fe65      1.0  0.48313  0.86638  0.06959  1.0000
  S   S136      1.0  0.46634  0.83378  0.09340  1.0000
  S   S137      1.0  0.50160  0.89935  0.09260  1.0000
  Fe  Fe66      1.0  0.47096  0.81505  0.04201  1.0000
  C   C1008     1.0  0.48071  0.48557  0.30585  1.0000
  Fe  Fe67      1.0  0.43118  0.84770  0.07180  1.0000
  S   S138      1.0  0.39693  0.85062  0.10351  1.0000
  H   H801      1.0  0.58293  0.87833  0.13811  1.0000
  S   S139      1.0  0.44728  0.88106  0.05117  1.0000
  H   H802      1.0  0.35987  0.85842  0.35579  1.0000
  Fe  Fe68      1.0  0.37572  0.94055  0.26411  1.0000
  S   S140      1.0  0.34423  0.92451  0.29176  1.0000
  S   S141      1.0  0.39949  0.93151  0.21860  1.0000
  Fe  Fe69      1.0  0.32958  0.96276  0.29627  1.0000
  Fe  Fe70      1.0  0.36515  0.93351  0.33958  1.0000
  S   S142      1.0  0.36642  0.90753  0.38406  1.0000
  S   S143      1.0  0.39759  0.94614  0.31159  1.0000
  S   S144      1.0  0.43625  0.68420  0.47055  1.0000
  C   C1009     1.0  0.44542  0.50484  0.09576  1.0000
  S   S145      1.0  0.54752  0.50896  0.30320  1.0000
  C   C1010     1.0  0.33702  0.89707  0.08630  1.0000
  Fe  Fe71      1.0  0.36626  0.52820  0.16823  1.0000
  S   S146      1.0  0.38808  0.50148  0.19872  1.0000
  S   S147      1.0  0.38645  0.55983  0.14619  1.0000
  Fe  Fe72      1.0  0.36008  0.50641  0.23903  1.0000
  S   S148      1.0  0.37343  0.50563  0.29348  1.0000
  S   S149      1.0  0.33996  0.53559  0.21091  1.0000
  H   H803      1.0  0.32601  0.84976  0.07256  1.0000
  S   S150      1.0  0.41848  0.61981  0.45901  1.0000
  H   H804      1.0  0.32268  0.50439  0.30568  1.0000
  Fe  Fe73      1.0  0.48137  0.60702  0.41846  1.0000
  S   S151      1.0  0.45550  0.63556  0.39790  1.0000
  S   S152      1.0  0.51985  0.59776  0.40120  1.0000
  Fe  Fe74      1.0  0.44845  0.64632  0.45261  1.0000
  H   H805      1.0  0.37542  0.95943  0.41463  1.0000
  Fe  Fe75      1.0  0.42721  0.60759  0.40575  1.0000
  S   S153      1.0  0.39707  0.60460  0.36692  1.0000
  C   C1011     1.0  0.43797  0.72915  0.50024  1.0000
  S   S154      1.0  0.45343  0.57854  0.42250  1.0000
  C   C1012     1.0  0.38050  0.53326  0.31307  1.0000
  C   C1013     1.0  0.39682  0.53348  0.34052  1.0000
  C   C1014     1.0  0.40218  0.55525  0.35726  1.0000
  C   C1015     1.0  0.39093  0.57686  0.34687  1.0000
  C   C1016     1.0  0.37451  0.57657  0.31955  1.0000
  C   C1017     1.0  0.36947  0.55488  0.30248  1.0000
  H   H806      1.0  0.40552  0.51682  0.34869  1.0000
  H   H807      1.0  0.41486  0.55529  0.37825  1.0000
  H   H808      1.0  0.36579  0.59324  0.31140  1.0000
  H   H809      1.0  0.35669  0.55485  0.28157  1.0000
  C   C1018     1.0  0.39571  0.56009  0.10316  1.0000
  C   C1019     1.0  0.38837  0.54248  0.07991  1.0000
  C   C1020     1.0  0.39507  0.54401  0.04545  1.0000
  C   C1021     1.0  0.40969  0.56273  0.03423  1.0000
  C   C1022     1.0  0.41797  0.57967  0.05773  1.0000
  C   C1023     1.0  0.41043  0.57874  0.09188  1.0000
  H   H810      1.0  0.37705  0.52803  0.08830  1.0000
  H   H811      1.0  0.38871  0.53073  0.02737  1.0000
  C   C1024     1.0  0.47875  0.74934  0.01653  1.0000
  H   H812      1.0  0.41588  0.59259  0.10962  1.0000
  C   C1025     1.0  0.54055  0.53356  0.33095  1.0000
  C   C1026     1.0  0.51670  0.54295  0.33146  1.0000
  C   C1027     1.0  0.51000  0.56220  0.35336  1.0000
  C   C1028     1.0  0.52735  0.57292  0.37412  1.0000
  C   C1029     1.0  0.55137  0.56395  0.37299  1.0000
  C   C1030     1.0  0.55788  0.54407  0.35199  1.0000
  H   H813      1.0  0.50331  0.53542  0.31466  1.0000
  H   H814      1.0  0.49154  0.56908  0.35375  1.0000
  H   H815      1.0  0.56503  0.57242  0.38845  1.0000
  H   H816      1.0  0.57636  0.53725  0.35153  1.0000
  H   H817      1.0  0.56899  0.51782  0.02615  1.0000
  H   H818      1.0  0.33966  0.93866  0.20072  1.0000
  C   C1031     1.0  0.59386  0.48583  0.44278  1.0000
  C   C1032     1.0  0.54525  0.47946  0.39768  1.0000
  H   H819      1.0  0.40356  0.85166  0.34524  1.0000
  C   C1033     1.0  0.49257  0.95131  0.02892  1.0000
  C   C1034     1.0  0.60449  0.49997  0.09260  1.0000
  H   H820      1.0  0.50612  0.54134  0.42308  1.0000
  H   H821      1.0  0.41239  0.73688  0.30634  1.0000
  C   C1035     1.0  0.40771  0.93621  0.09104  1.0000
  C   C1036     1.0  0.39356  0.90213  0.40688  1.0000
  C   C1037     1.0  0.39400  0.88503  0.43313  1.0000
  C   C1038     1.0  0.41506  0.88102  0.45266  1.0000
  C   C1039     1.0  0.43575  0.89428  0.44625  1.0000
  C   C1040     1.0  0.43541  0.91114  0.41975  1.0000
  C   C1041     1.0  0.41446  0.91493  0.39997  1.0000
  H   H822      1.0  0.37797  0.87491  0.43844  1.0000
  C   C1042     1.0  0.37527  0.48052  0.37903  1.0000
  H   H823      1.0  0.45135  0.92144  0.41463  1.0000
  H   H824      1.0  0.41437  0.92805  0.37976  1.0000
  C   C1043     1.0  0.39792  0.87156  0.13761  1.0000
  C   C1044     1.0  0.37794  0.87498  0.15935  1.0000
  C   C1045     1.0  0.37826  0.89265  0.18548  1.0000
  C   C1046     1.0  0.39859  0.90695  0.18976  1.0000
  C   C1047     1.0  0.41863  0.90300  0.16862  1.0000
  C   C1048     1.0  0.41836  0.88542  0.14271  1.0000
  H   H825      1.0  0.36212  0.86413  0.15573  1.0000
  H   H826      1.0  0.36270  0.89548  0.20177  1.0000
  H   H827      1.0  0.43456  0.91363  0.17233  1.0000
  H   H828      1.0  0.43394  0.88278  0.12643  1.0000
  C   C1049     1.0  0.57537  0.91666  0.14094  1.0000
  C   C1050     1.0  0.55833  0.93496  0.13369  1.0000
  C   C1051     1.0  0.53608  0.92920  0.11839  1.0000
  C   C1052     1.0  0.53045  0.90518  0.11045  1.0000
  C   C1053     1.0  0.54749  0.88687  0.11760  1.0000
  C   C1054     1.0  0.56986  0.89263  0.13266  1.0000
  H   H829      1.0  0.56237  0.95352  0.13964  1.0000
  H   H830      1.0  0.52312  0.94344  0.11243  1.0000
  H   H831      1.0  0.54342  0.86829  0.11169  1.0000
  C   C1055     1.0  0.59740  0.51175  0.06272  1.0000
  S   S155      1.0  0.60481  0.48811  0.24924  1.0000
  H   H832      1.0  0.44021  0.86127  0.24170  1.0000
  P   P34       1.0  0.49424  0.93140  0.23319  1.0000
  C   C1056     1.0  0.41062  0.96280  0.04266  1.0000
  C   C1057     1.0  0.40979  0.68312  0.01931  1.0000
  H   H833      1.0  0.46880  0.57114  0.29489  1.0000
  Fe  Fe76      1.0  0.44734  0.59340  0.47538  1.0000
  C   C1058     1.0  0.48548  0.89531  0.18551  1.0000
  C   C1059     1.0  0.32859  0.90861  0.11591  1.0000
  H   H834      1.0  0.51011  0.72932  0.03443  1.0000
  S   S156      1.0  0.34897  0.97095  0.34581  1.0000
  P   P35       1.0  0.42673  0.48177  0.45461  1.0000
  C   C1060     1.0  0.51090  0.59921  0.15041  1.0000
  H   H835      1.0  0.44092  0.93003  0.11896  1.0000
  C   C1061     1.0  0.33344  0.53182  0.43510  1.0000
  C   C1062     1.0  0.39685  0.94815  0.06360  1.0000
  H   H836      1.0  0.48004  0.86721  0.14851  1.0000
  H   H837      1.0  0.45144  0.84500  0.18466  1.0000
  H   H838      1.0  0.49733  0.90504  0.16882  1.0000
  C   C1063     1.0  0.55409  0.51606  0.47649  1.0000
  H   H839      1.0  0.49314  0.96196  0.43858  1.0000
  H   H840      1.0  0.60994  0.52323  0.04969  1.0000
  H   H841      1.0  0.53046  0.89566  0.20517  1.0000
  H   H842      1.0  0.55770  0.47878  0.21603  1.0000
  C   C1064     1.0  0.57418  0.50864  0.04947  1.0000
  H   H843      1.0  0.44698  0.49609  0.19365  1.0000
  H   H844      1.0  0.64501  0.51854  0.43488  1.0000
  H   H845      1.0  0.31807  0.88230  0.48251  1.0000
  C   C1065     1.0  0.45961  0.86131  0.19427  1.0000
  P   P36       1.0  0.41013  0.77922  0.41810  1.0000
  C   C1066     1.0  0.33975  0.95455  0.18475  1.0000
  C   C1067     1.0  0.54295  0.93186  0.47662  1.0000
  C   C1068     1.0  0.47001  0.96327  0.27831  1.0000
  C   C1069     1.0  0.56519  0.48166  0.09580  1.0000
  C   C1070     1.0  0.56781  0.93562  0.47856  1.0000
  C   C1071     1.0  0.35670  0.82695  0.38731  1.0000
  H   H846      1.0  0.48500  0.50360  0.23396  1.0000
  C   C1072     1.0  0.45895  0.52035  0.11614  1.0000
  H   H847      1.0  0.42365  0.69221  0.39428  1.0000
  C   C1073     1.0  0.45126  0.50130  0.44384  1.0000
  P   P37       1.0  0.33486  0.88458  0.01739  1.0000
  C   C1074     1.0  0.54368  0.50491  0.18032  1.0000
  H   H848      1.0  0.45815  0.54084  0.01521  1.0000
  C   C1075     1.0  0.53937  0.90828  0.22174  1.0000
  H   H849      1.0  0.33784  0.90558  0.13989  1.0000
  C   C1076     1.0  0.54866  0.55895  0.46566  1.0000
  C   C1077     1.0  0.41110  0.75540  0.35487  1.0000
  H   H850      1.0  0.57431  0.89181  0.21152  1.0000
  C   C1078     1.0  0.61383  0.87004  0.46358  1.0000
  C   C1079     1.0  0.33306  0.87099  0.49114  1.0000
  C   C1080     1.0  0.48900  0.51866  0.02918  1.0000
  H   H851      1.0  0.60427  0.97642  0.36217  1.0000
  H   H852      1.0  0.58652  0.83144  0.48635  1.0000
  C   C1081     1.0  0.36923  0.84293  0.36688  1.0000
  H   H853      1.0  0.40191  0.97153  0.02124  1.0000
  C   C1082     1.0  0.51710  0.94516  0.03227  1.0000
  H   H854      1.0  0.45214  0.49219  0.38992  1.0000
  H   H855      1.0  0.56608  0.53402  0.43098  1.0000
  H   H856      1.0  0.35698  0.81449  0.47850  1.0000
  C   C1083     1.0  0.39390  0.83908  0.36089  1.0000
  H   H857      1.0  0.36018  0.54447  0.40000  1.0000
  H   H858      1.0  0.41514  0.86795  0.47297  1.0000
  H   H859      1.0  0.55347  0.95797  0.03223  1.0000
  C   C1084     1.0  0.40611  0.81933  0.37552  1.0000
  H   H860      1.0  0.40917  0.53191  0.45995  1.0000
  C   C1085     1.0  0.50578  0.57708  0.16545  1.0000
  H   H861      1.0  0.34854  0.91265  0.45998  1.0000
  C   C1086     1.0  0.43543  0.96552  0.04899  1.0000
  H   H862      1.0  0.47237  0.57692  0.04625  1.0000
  H   H863      1.0  0.42956  0.59384  0.04926  1.0000
  H   H864      1.0  0.39725  0.92417  0.10650  1.0000
  C   C1087     1.0  0.39684  0.96493  0.45982  1.0000
  H   H865      1.0  0.51864  0.56924  0.18330  1.0000
  S   S157      1.0  0.62972  0.96205  0.23481  1.0000
  C   C1088     1.0  0.46403  0.95902  0.19126  1.0000
  H   H866      1.0  0.42404  0.57258  0.29359  1.0000
  C   C1089     1.0  0.34818  0.81854  0.06117  1.0000
  H   H867      1.0  0.33754  0.82997  0.39169  1.0000
  S   S158      1.0  0.46223  0.89056  0.47103  1.0000
  C   C1090     1.0  0.40176  0.52196  0.48102  1.0000
  H   H868      1.0  0.52261  0.92661  0.03728  1.0000
  C   C1091     1.0  0.48012  0.51650  0.40309  1.0000
  C   C1092     1.0  0.43946  0.49116  0.28662  1.0000
  C   C1093     1.0  0.52384  0.51959  0.17115  1.0000
  C   C1094     1.0  0.46197  0.51537  0.46937  1.0000
  C   C1095     1.0  0.45900  0.97486  0.16445  1.0000
  H   H869      1.0  0.52047  0.47839  0.25032  1.0000
  C   C1096     1.0  0.41368  0.73503  0.33374  1.0000
  C   C1097     1.0  0.49098  0.53000  0.42885  1.0000
  H   H870      1.0  0.51335  0.48946  0.11848  1.0000
  H   H871      1.0  0.55118  0.57441  0.44942  1.0000
  C   C1098     1.0  0.50697  0.96339  0.18175  1.0000
  C   C1099     1.0  0.38768  0.48600  0.40912  1.0000
  C   C1100     1.0  0.33810  0.92800  0.46966  1.0000
  C   C1101     1.0  0.50265  0.51963  0.19073  1.0000
  H   H872      1.0  0.35883  0.79518  0.41800  1.0000
  C   C1102     1.0  0.48806  0.95336  0.20035  1.0000
  C   C1103     1.0  0.48166  0.52969  0.46183  1.0000
  C   C1104     1.0  0.50131  0.50425  0.21888  1.0000
  H   H873      1.0  0.53003  0.66549  0.06674  1.0000
  H   H874      1.0  0.49175  0.55506  0.24550  1.0000
  C   C1105     1.0  0.45168  0.70900  0.48870  1.0000
  C   C1106     1.0  0.46357  0.89179  0.23847  1.0000
  H   H875      1.0  0.52777  0.60797  0.15616  1.0000
  H   H876      1.0  0.33262  0.94264  0.41949  1.0000
  H   H877      1.0  0.44461  0.50733  0.06846  1.0000
  C   C1107     1.0  0.51067  0.66699  0.07074  1.0000
  C   C1108     1.0  0.50128  0.68282  0.09549  1.0000
  C   C1109     1.0  0.47626  0.68529  0.09989  1.0000
  C   C1110     1.0  0.46041  0.67218  0.07917  1.0000
  C   C1111     1.0  0.46999  0.65609  0.05464  1.0000
  P   P38       1.0  0.42808  0.67553  0.08504  1.0000
  C   C1112     1.0  0.41858  0.65654  0.11967  1.0000
  C   C1113     1.0  0.42086  0.70702  0.09347  1.0000
  C   C1114     1.0  0.40210  0.71383  0.11584  1.0000
  C   C1115     1.0  0.39672  0.73831  0.12205  1.0000
  C   C1116     1.0  0.41001  0.75612  0.10599  1.0000
  C   C1117     1.0  0.42864  0.74946  0.08364  1.0000
  C   C1118     1.0  0.43401  0.72506  0.07734  1.0000
  C   C1119     1.0  0.39443  0.64933  0.12172  1.0000
  C   C1120     1.0  0.38755  0.63264  0.14623  1.0000
  C   C1121     1.0  0.40456  0.62341  0.16935  1.0000
  C   C1122     1.0  0.42840  0.63113  0.16833  1.0000
  C   C1123     1.0  0.43541  0.64767  0.14367  1.0000
  C   C1124     1.0  0.41313  0.66665  0.04598  1.0000
  C   C1125     1.0  0.40602  0.64269  0.04118  1.0000
  S   S159      1.0  0.48674  0.77617  0.03936  1.0000
  H   H878      1.0  0.41950  0.90916  0.00245  1.0000
  C   C1126     1.0  0.36334  0.74742  0.48400  1.0000
  C   C1127     1.0  0.50541  0.55958  0.06345  1.0000
  C   C1128     1.0  0.60983  0.50499  0.44681  1.0000
  H   H879      1.0  0.56021  0.50511  0.16565  1.0000
  H   H880      1.0  0.51338  0.69356  0.11081  1.0000
  H   H881      1.0  0.46929  0.69776  0.11906  1.0000
  H   H882      1.0  0.45823  0.64603  0.03796  1.0000
  H   H883      1.0  0.39162  0.70035  0.12851  1.0000
  H   H884      1.0  0.38228  0.74350  0.13938  1.0000
  H   H885      1.0  0.40595  0.77509  0.11085  1.0000
  H   H886      1.0  0.43905  0.76322  0.07119  1.0000
  H   H887      1.0  0.44844  0.72029  0.05976  1.0000
  H   H888      1.0  0.38107  0.65596  0.10364  1.0000
  H   H889      1.0  0.36916  0.62629  0.14679  1.0000
  H   H890      1.0  0.39930  0.60994  0.18768  1.0000
  H   H891      1.0  0.44156  0.62387  0.18627  1.0000
  H   H892      1.0  0.45407  0.65300  0.14304  1.0000
  H   H893      1.0  0.40879  0.62954  0.06102  1.0000
  H   H894      1.0  0.45844  0.96127  0.36336  1.0000
  H   H895      1.0  0.37792  0.94541  0.05788  1.0000
  C   C1129     1.0  0.55724  0.53609  0.45546  1.0000
  H   H896      1.0  0.57428  0.95299  0.27908  1.0000
  C   C1130     1.0  0.42160  0.55710  0.24323  1.0000
  C   C1131     1.0  0.43446  0.54823  0.21502  1.0000
  H   H897      1.0  0.62938  0.86593  0.41352  1.0000
  C   C1132     1.0  0.63289  0.50357  0.43220  1.0000
  C   C1133     1.0  0.47217  0.59918  0.12163  1.0000
  H   H898      1.0  0.44917  0.95087  0.20463  1.0000
  C   C1134     1.0  0.47216  0.55526  0.24472  1.0000
  H   H899      1.0  0.34291  0.80911  0.08393  1.0000
  C   C1135     1.0  0.44674  0.49872  0.16635  1.0000
  C   C1136     1.0  0.34666  0.85463  0.02633  1.0000
  C   C1137     1.0  0.46023  0.50230  0.41042  1.0000
  H   H900      1.0  0.40199  0.55796  0.24252  1.0000
  H   H901      1.0  0.42456  0.54282  0.19250  1.0000
  H   H902      1.0  0.57532  0.95167  0.46757  1.0000
  H   H903      1.0  0.45904  0.60776  0.10483  1.0000
  C   C1138     1.0  0.45924  0.56445  0.27271  1.0000
  H   H904      1.0  0.48711  0.51714  0.37742  1.0000
  H   H905      1.0  0.53627  0.53786  0.07759  1.0000
  H   H906      1.0  0.31333  0.97389  0.21512  1.0000
  C   C1139     1.0  0.53333  0.91096  0.49030  1.0000
  H   H907      1.0  0.50017  0.69122  0.00414  1.0000
  C   C1140     1.0  0.41998  0.70983  0.38317  1.0000
  S   S160      1.0  0.35962  0.97808  0.26515  1.0000
  H   H908      1.0  0.38471  0.95523  0.47607  1.0000
  C   C1141     1.0  0.53933  0.94291  0.25981  1.0000
  C   C1142     1.0  0.41269  0.75305  0.39040  1.0000
  C   C1143     1.0  0.41736  0.73011  0.40432  1.0000
  C   C1144     1.0  0.51124  0.51762  0.04643  1.0000
  C   C1145     1.0  0.44001  0.78902  0.42995  1.0000
  Fe  Fe77      1.0  0.31813  0.50547  0.18824  1.0000
  H   H909      1.0  0.36820  0.97665  0.11542  1.0000
  H   H910      1.0  0.45701  0.75332  0.42709  1.0000
  C   C1146     1.0  0.47518  0.54008  0.02888  1.0000
  H   H911      1.0  0.38003  0.49956  0.42609  1.0000
  H   H912      1.0  0.49722  0.49302  0.31589  1.0000
  C   C1147     1.0  0.45947  0.77234  0.43196  1.0000
  C   C1148     1.0  0.48246  0.77998  0.44139  1.0000
  C   C1149     1.0  0.48624  0.80426  0.44902  1.0000
  C   C1150     1.0  0.46701  0.82098  0.44716  1.0000
  C   C1151     1.0  0.44392  0.81339  0.43810  1.0000
  C   C1152     1.0  0.47778  0.93362  0.33483  1.0000
  C   C1153     1.0  0.33604  0.84774  0.47740  1.0000
  C   C1154     1.0  0.47689  0.70954  0.49109  1.0000
  C   C1155     1.0  0.36236  0.84315  0.00299  1.0000
  C   C1156     1.0  0.51932  0.53819  0.06380  1.0000
  P   P39       1.0  0.56449  0.48648  0.46264  1.0000
  C   C1157     1.0  0.32637  0.53760  0.37480  1.0000
  H   H913      1.0  0.38750  0.88499  0.02823  1.0000
  H   H914      1.0  0.41271  0.79580  0.48907  1.0000
  H   H915      1.0  0.36720  0.94003  0.15119  1.0000
  H   H916      1.0  0.41918  0.72782  0.43157  1.0000
  H   H917      1.0  0.42525  0.81665  0.37057  1.0000
  H   H918      1.0  0.38643  0.65527  0.49498  1.0000
  H   H919      1.0  0.42017  0.69645  0.33160  1.0000
  H   H920      1.0  0.37210  0.78980  0.04367  1.0000
  C   C1158     1.0  0.39381  0.80354  0.39692  1.0000
  H   H921      1.0  0.48236  0.50293  0.01588  1.0000
  H   H922      1.0  0.49721  0.76688  0.44394  1.0000
  H   H923      1.0  0.50394  0.80998  0.45723  1.0000
  H   H924      1.0  0.46991  0.83978  0.45337  1.0000
  H   H925      1.0  0.42917  0.82659  0.43785  1.0000
  C   C1159     1.0  0.38254  0.89911  0.01037  1.0000
  H   H926      1.0  0.52499  0.53066  0.14864  1.0000
  C   C1160     1.0  0.43399  0.56527  0.27201  1.0000
  C   C1161     1.0  0.36889  0.80728  0.40224  1.0000
  H   H927      1.0  0.46913  0.53421  0.10401  1.0000
  S   S161      1.0  0.49071  0.84682  0.02011  1.0000
  C   C1162     1.0  0.37143  0.81983  0.00917  1.0000
  C   C1163     1.0  0.33892  0.84181  0.05488  1.0000
  H   H928      1.0  0.37111  0.74519  0.43056  1.0000
  C   C1164     1.0  0.43277  0.48616  0.11058  1.0000
  C   C1165     1.0  0.46691  0.57723  0.13700  1.0000
  H   H929      1.0  0.40789  0.77287  0.34337  1.0000
  S   S162      1.0  0.34341  0.49996  0.14297  1.0000
  H   H930      1.0  0.39077  0.61664  0.00673  1.0000
  H   H931      1.0  0.44945  0.56932  0.13274  1.0000
  C   C1166     1.0  0.46535  0.95571  0.33864  1.0000
  C   C1167     1.0  0.35483  0.83256  0.48888  1.0000
  C   C1168     1.0  0.64035  0.48280  0.41429  1.0000
  C   C1169     1.0  0.32489  0.97453  0.19283  1.0000
  C   C1170     1.0  0.41809  0.71225  0.34789  1.0000
  C   C1171     1.0  0.39147  0.96745  0.42523  1.0000
  H   H932      1.0  0.46107  0.51964  0.30700  1.0000
  C   C1172     1.0  0.45916  0.51784  0.15170  1.0000
  H   H933      1.0  0.49811  0.62731  0.11674  1.0000
  C   C1173     1.0  0.48329  0.56047  0.04619  1.0000
  H   H934      1.0  0.34540  0.53250  0.45698  1.0000
  C   C1174     1.0  0.53451  0.96282  0.02929  1.0000
  C   C1175     1.0  0.52117  0.48962  0.22792  1.0000
  C   C1176     1.0  0.45981  0.54681  0.21583  1.0000
  C   C1177     1.0  0.53629  0.56190  0.49641  1.0000
  C   C1178     1.0  0.46047  0.50061  0.30055  1.0000
  C   C1179     1.0  0.52655  0.92692  0.23882  1.0000
  S   S163      1.0  0.47688  0.62032  0.47259  1.0000
  P   P40       1.0  0.52827  0.48953  0.04747  1.0000
  H   H935      1.0  0.62253  0.50227  0.10284  1.0000
  C   C1180     1.0  0.48401  0.56559  0.15802  1.0000
  H   H936      1.0  0.52082  0.96215  0.38968  1.0000
  C   C1181     1.0  0.47561  0.87382  0.17381  1.0000
  H   H937      1.0  0.41592  0.70144  0.02158  1.0000
  C   C1182     1.0  0.49416  0.61017  0.12833  1.0000
  C   C1183     1.0  0.48022  0.90407  0.21837  1.0000
  C   C1184     1.0  0.45336  0.87046  0.22641  1.0000
  C   C1185     1.0  0.36461  0.80765  0.03850  1.0000
  H   H938      1.0  0.32366  0.84145  0.45803  1.0000
  C   C1186     1.0  0.55781  0.49372  0.06605  1.0000
  C   C1187     1.0  0.49505  0.65351  0.05052  1.0000
  H   H939      1.0  0.52567  0.95861  0.18726  1.0000
  C   C1188     1.0  0.32445  0.90005  0.05543  1.0000
  C   C1189     1.0  0.48647  0.92640  0.30280  1.0000
  H   H940      1.0  0.42393  0.50298  0.28192  1.0000
  H   H941      1.0  0.49624  0.90929  0.30023  1.0000
  C   C1190     1.0  0.40739  0.49728  0.48514  1.0000
  C   C1191     1.0  0.48229  0.94098  0.27414  1.0000
  H   H942      1.0  0.53003  0.95742  0.27336  1.0000
  H   H943      1.0  0.48053  0.92200  0.35666  1.0000
  H   H944      1.0  0.34973  0.73368  0.48276  1.0000
  H   H945      1.0  0.56240  0.79516  0.49542  1.0000
  C   C1192     1.0  0.34174  0.53860  0.40308  1.0000
  H   H946      1.0  0.35315  0.88556  0.08764  1.0000
  C   C1193     1.0  0.54232  0.48998  0.20870  1.0000
  H   H947      1.0  0.56147  0.48749  0.38784  1.0000
  H   H948      1.0  0.41845  0.72880  0.49893  1.0000
  H   H949      1.0  0.53118  0.94506  0.46439  1.0000
  Fe  Fe78      1.0  0.61546  0.95937  0.18130  1.0000
  H   H950      1.0  0.45792  0.89874  0.26304  1.0000
  H   H951      1.0  0.48914  0.54116  0.48141  1.0000
  C   C1194     1.0  0.41789  0.97479  0.47333  1.0000
  H   H952      1.0  0.59588  0.87400  0.45367  1.0000
  H   H953      1.0  0.59648  0.92026  0.24809  1.0000
  C   C1195     1.0  0.63275  0.86539  0.44072  1.0000
  C   C1196     1.0  0.49379  0.72854  0.01926  1.0000
  H   H954      1.0  0.33347  0.54202  0.35002  1.0000
  C   C1197     1.0  0.57698  0.92195  0.24602  1.0000
  C   C1198     1.0  0.56443  0.94042  0.26331  1.0000
  H   H955      1.0  0.51182  0.57552  0.07640  1.0000
  H   H956      1.0  0.60470  0.52091  0.46144  1.0000
  H   H957      1.0  0.46475  0.95655  0.08400  1.0000
  C   C1199     1.0  0.37561  0.75391  0.45447  1.0000
  Fe  Fe79      1.0  0.58168  0.48544  0.29597  1.0000
  C   C1200     1.0  0.48518  0.97554  0.02431  1.0000
  C   C1201     1.0  0.39373  0.77124  0.45599  1.0000
  C   C1202     1.0  0.58838  0.48500  0.10912  1.0000
  C   C1203     1.0  0.39888  0.78240  0.48727  1.0000
  C   C1204     1.0  0.46171  0.97061  0.31047  1.0000
  C   C1205     1.0  0.43219  0.93947  0.09811  1.0000
  C   C1206     1.0  0.44589  0.95433  0.07761  1.0000
  C   C1207     1.0  0.39567  0.63533  0.01040  1.0000
  H   H958      1.0  0.47949  0.93710  0.03056  1.0000
  H   H959      1.0  0.46636  0.94692  0.47779  1.0000
  C   C1208     1.0  0.48810  0.70675  0.00232  1.0000
  C   C1209     1.0  0.31682  0.96579  0.45824  1.0000
  Fe  Fe80      1.0  0.45384  0.85993  0.00329  1.0000
  H   H960      1.0  0.46684  0.97510  0.25698  1.0000
  H   H961      1.0  0.50236  0.64172  0.03075  1.0000
  H   H962      1.0  0.51411  0.90775  0.48826  1.0000
  H   H963      1.0  0.35846  0.48998  0.37285  1.0000
  H   H964      1.0  0.48768  0.69418  0.48234  1.0000
  H   H965      1.0  0.45500  0.51550  0.49516  1.0000
  C   C1210     1.0  0.35531  0.95534  0.15685  1.0000
  C   C1211     1.0  0.43368  0.48290  0.14579  1.0000
  C   C1212     1.0  0.35595  0.97606  0.13684  1.0000
  C   C1213     1.0  0.58301  0.91867  0.49459  1.0000
  C   C1214     1.0  0.53391  0.47848  0.00481  1.0000
  H   H966      1.0  0.64612  0.49021  0.20427  1.0000
  C   C1215     1.0  0.47231  0.95560  0.50110  1.0000
  C   C1216     1.0  0.61805  0.86940  0.49889  1.0000
  H   H967      1.0  0.42165  0.97287  0.50025  1.0000
  C   C1217     1.0  0.53540  0.89572  0.97851  1.0000
  H   H968      1.0  0.53890  0.79071  0.54850  1.0000
  S   S164      1.0  0.57656  0.96795  0.60611  1.0000
  Fe  Fe81      1.0  0.46254  0.86541  0.51631  1.0000
  S   S165      1.0  0.43902  0.83353  0.52579  1.0000
  H   H969      1.0  0.47794  0.95576  0.69364  1.0000
  Fe  Fe82      1.0  0.49108  0.85870  0.58233  1.0000
  S   S166      1.0  0.46985  0.82614  0.59641  1.0000
  S   S167      1.0  0.51903  0.87084  0.62094  1.0000
  Fe  Fe83      1.0  0.47355  0.81423  0.54196  1.0000
  C   C1218     1.0  0.47445  0.75056  0.51510  1.0000
  Fe  Fe84      1.0  0.43749  0.84813  0.57970  1.0000
  S   S168      1.0  0.40345  0.84899  0.61189  1.0000
  H   H970      1.0  0.54449  0.94347  0.56097  1.0000
  S   S169      1.0  0.45846  0.88133  0.56878  1.0000
  H   H971      1.0  0.44853  0.97594  0.79187  1.0000
  Fe  Fe85      1.0  0.36544  0.94609  0.75879  1.0000
  S   S170      1.0  0.33256  0.93129  0.78437  1.0000
  S   S171      1.0  0.38405  0.94007  0.70771  1.0000
  C   C1219     1.0  0.45600  0.84498  0.87710  1.0000
  Fe  Fe86      1.0  0.35493  0.93290  0.83267  1.0000
  S   S172      1.0  0.35554  0.90219  0.87074  1.0000
  S   S173      1.0  0.38822  0.94439  0.80586  1.0000
  H   H972      1.0  0.39783  0.54284  0.93197  1.0000
  H   H973      1.0  0.43566  0.72522  0.96475  1.0000
  S   S174      1.0  0.60098  0.52570  0.83544  1.0000
  Fe  Fe87      1.0  0.32835  0.49673  0.68708  1.0000
  Fe  Fe88      1.0  0.36282  0.53608  0.66336  1.0000
  S   S175      1.0  0.39588  0.51600  0.68151  1.0000
  S   S176      1.0  0.36660  0.57130  0.63500  1.0000
  Fe  Fe89      1.0  0.37412  0.50733  0.72743  1.0000
  S   S177      1.0  0.38998  0.50653  0.78080  1.0000
  S   S178      1.0  0.34195  0.53047  0.71189  1.0000
  Fe  Fe90      1.0  0.44394  0.58833  0.96528  1.0000
  S   S179      1.0  0.43332  0.61912  0.93122  1.0000
  C   C1220     1.0  0.35249  0.92231  0.97864  1.0000
  Fe  Fe91      1.0  0.49675  0.58971  0.94320  1.0000
  S   S180      1.0  0.49008  0.62129  0.90808  1.0000
  S   S181      1.0  0.53086  0.56663  0.95265  1.0000
  Fe  Fe92      1.0  0.46684  0.63751  0.95038  1.0000
  S   S182      1.0  0.45839  0.67797  0.96139  1.0000
  Fe  Fe93      1.0  0.45697  0.60107  0.89193  1.0000
  S   S183      1.0  0.44617  0.59764  0.83622  1.0000
  P   P41       1.0  0.34500  0.90893  0.53481  1.0000
  S   S184      1.0  0.46510  0.56893  0.92433  1.0000
  C   C1221     1.0  0.40619  0.53159  0.79573  1.0000
  C   C1222     1.0  0.41004  0.53452  0.83085  1.0000
  C   C1223     1.0  0.42265  0.55445  0.84354  1.0000
  C   C1224     1.0  0.43121  0.57179  0.82118  1.0000
  C   C1225     1.0  0.42726  0.56891  0.78603  1.0000
  C   C1226     1.0  0.41484  0.54886  0.77332  1.0000
  H   H974      1.0  0.40297  0.52153  0.84834  1.0000
  H   H975      1.0  0.42540  0.55664  0.87063  1.0000
  H   H976      1.0  0.43386  0.58225  0.76861  1.0000
  H   H977      1.0  0.41185  0.54681  0.74623  1.0000
  C   C1227     1.0  0.38825  0.56993  0.60187  1.0000
  C   C1228     1.0  0.40452  0.55032  0.59910  1.0000
  C   C1229     1.0  0.42238  0.54989  0.57377  1.0000
  C   C1230     1.0  0.42400  0.56888  0.55061  1.0000
  C   C1231     1.0  0.40748  0.58835  0.55279  1.0000
  C   C1232     1.0  0.38962  0.58883  0.57834  1.0000
  H   H978      1.0  0.40341  0.53535  0.61636  1.0000
  H   H979      1.0  0.43479  0.53454  0.57191  1.0000
  H   H980      1.0  0.40855  0.60307  0.53497  1.0000
  H   H981      1.0  0.37694  0.60394  0.58000  1.0000
  C   C1233     1.0  0.58036  0.53549  0.86772  1.0000
  C   C1234     1.0  0.56331  0.55402  0.86048  1.0000
  C   C1235     1.0  0.54759  0.56325  0.88592  1.0000
  C   C1236     1.0  0.54935  0.55466  0.91928  1.0000
  C   C1237     1.0  0.56650  0.53625  0.92658  1.0000
  C   C1238     1.0  0.58157  0.52634  0.90083  1.0000
  H   H982      1.0  0.56241  0.56144  0.83510  1.0000
  H   H983      1.0  0.53462  0.57753  0.87995  1.0000
  H   H984      1.0  0.56820  0.52963  0.95233  1.0000
  H   H985      1.0  0.59477  0.51230  0.90689  1.0000
  H   H986      1.0  0.34663  0.61043  0.71146  1.0000
  H   H987      1.0  0.36415  0.55591  0.78486  1.0000
  C   C1239     1.0  0.45047  0.55240  0.67875  1.0000
  H   H988      1.0  0.50089  0.91787  0.70145  1.0000
  C   C1240     1.0  0.37391  0.92027  0.54783  1.0000
  H   H989      1.0  0.43685  0.94365  0.57494  1.0000
  H   H990      1.0  0.42243  0.97231  0.88363  1.0000
  H   H991      1.0  0.43636  0.56285  0.69158  1.0000
  C   C1241     1.0  0.32131  0.95182  0.51632  1.0000
  H   H992      1.0  0.32136  0.55932  0.90853  1.0000
  C   C1242     1.0  0.38283  0.89563  0.89276  1.0000
  C   C1243     1.0  0.38391  0.87649  0.91605  1.0000
  C   C1244     1.0  0.40511  0.87167  0.93505  1.0000
  C   C1245     1.0  0.42547  0.88571  0.93034  1.0000
  C   C1246     1.0  0.42472  0.90403  0.90595  1.0000
  C   C1247     1.0  0.40342  0.90928  0.88764  1.0000
  H   H993      1.0  0.36832  0.86538  0.91940  1.0000
  C   C1248     1.0  0.31646  0.59579  0.78379  1.0000
  H   H994      1.0  0.44068  0.91425  0.90143  1.0000
  H   H995      1.0  0.40295  0.92393  0.86970  1.0000
  C   C1249     1.0  0.39946  0.87299  0.64158  1.0000
  C   C1250     1.0  0.37931  0.87357  0.66334  1.0000
  C   C1251     1.0  0.37481  0.89351  0.68517  1.0000
  C   C1252     1.0  0.39050  0.91295  0.68530  1.0000
  C   C1253     1.0  0.41098  0.91198  0.66434  1.0000
  C   C1254     1.0  0.41555  0.89205  0.64284  1.0000
  H   H996      1.0  0.36686  0.85881  0.66271  1.0000
  H   H997      1.0  0.35878  0.89425  0.70085  1.0000
  H   H998      1.0  0.42324  0.92691  0.66435  1.0000
  H   H999      1.0  0.43130  0.89172  0.62682  1.0000
  C   C1255     1.0  0.56014  0.94131  0.61127  1.0000
  C   C1256     1.0  0.56176  0.92776  0.64110  1.0000
  C   C1257     1.0  0.54912  0.90611  0.64370  1.0000
  C   C1258     1.0  0.53447  0.89814  0.61681  1.0000
  C   C1259     1.0  0.53279  0.91171  0.58708  1.0000
  C   C1260     1.0  0.54568  0.93318  0.58424  1.0000
  H   H1000     1.0  0.57305  0.93377  0.66189  1.0000
  H   H1001     1.0  0.55072  0.89547  0.66660  1.0000
  H   H1002     1.0  0.52158  0.90560  0.56630  1.0000
  S   S185      1.0  0.49725  0.84544  0.52889  1.0000
  C   C1261     1.0  0.39930  0.94126  0.58838  1.0000
  C   C1262     1.0  0.36888  0.75834  0.51518  1.0000
  H   H1003     1.0  0.36767  0.85232  0.98011  1.0000
  C   C1263     1.0  0.38142  0.59062  0.88748  1.0000
  H   H1004     1.0  0.36635  0.94950  0.94544  1.0000
  C   C1264     1.0  0.58928  0.97782  0.87360  1.0000
  H   H1005     1.0  0.62004  0.93737  0.61137  1.0000
  C   C1265     1.0  0.36668  0.58251  0.86101  1.0000
  P   P42       1.0  0.55508  0.96534  0.92158  1.0000
  C   C1266     1.0  0.61439  0.86895  0.59234  1.0000
  C   C1267     1.0  0.57665  0.82974  0.50989  1.0000
  C   C1268     1.0  0.35282  0.57635  0.92878  1.0000
  H   H1006     1.0  0.45554  0.95103  0.84327  1.0000
  C   C1269     1.0  0.33798  0.56824  0.90234  1.0000
  C   C1270     1.0  0.45195  0.72603  0.97998  1.0000
  H   H1007     1.0  0.36149  0.93597  0.59559  1.0000
  H   H1008     1.0  0.43867  0.76512  0.52228  1.0000
  H   H1009     1.0  0.39780  0.68834  0.96763  1.0000
  H   H1010     1.0  0.58382  0.49265  0.53142  1.0000
  C   C1271     1.0  0.36182  0.65512  0.53749  1.0000
  C   C1272     1.0  0.56358  0.84532  0.56480  1.0000
  C   C1273     1.0  0.38691  0.53418  0.50455  1.0000
  H   H1011     1.0  0.38607  0.59369  0.94182  1.0000
  C   C1274     1.0  0.33348  0.93082  0.50467  1.0000
  C   C1275     1.0  0.37665  0.93283  0.57873  1.0000
  C   C1276     1.0  0.54736  0.93829  0.94448  1.0000
  H   H1012     1.0  0.44509  0.48071  0.66932  1.0000
  C   C1277     1.0  0.57799  0.95872  0.89000  1.0000
  C   C1278     1.0  0.35798  0.58289  0.74676  1.0000
  C   C1279     1.0  0.34934  0.87944  0.51575  1.0000
  H   H1013     1.0  0.52237  0.54416  0.54055  1.0000
  H   H1014     1.0  0.57355  0.89121  0.98787  1.0000
  C   C1280     1.0  0.44782  0.95643  0.79018  1.0000
  C   C1281     1.0  0.33402  0.89513  0.60097  1.0000
  C   C1282     1.0  0.62472  0.87671  0.62297  1.0000
  H   H1015     1.0  0.40585  0.85706  0.95314  1.0000
  H   H1016     1.0  0.49857  0.90457  0.96494  1.0000
  C   C1283     1.0  0.35244  0.57061  0.77660  1.0000
  C   C1284     1.0  0.48576  0.97665  0.56302  1.0000
  H   H1017     1.0  0.40917  0.94058  0.96047  1.0000
  C   C1285     1.0  0.31848  0.89102  0.62824  1.0000
  C   C1286     1.0  0.55007  0.82464  0.56978  1.0000
  C   C1287     1.0  0.52859  0.52935  0.77308  1.0000
  H   H1018     1.0  0.33329  0.88529  0.94223  1.0000
  C   C1288     1.0  0.39490  0.93088  0.97263  1.0000
  H   H1019     1.0  0.32787  0.94932  0.63144  1.0000
  H   H1020     1.0  0.37983  0.86947  0.54804  1.0000
  C   C1289     1.0  0.51727  0.90997  0.96340  1.0000
  C   C1290     1.0  0.41926  0.93750  0.56710  1.0000
  C   C1291     1.0  0.49055  0.52753  0.84656  1.0000
  C   C1292     1.0  0.54848  0.89403  0.50650  1.0000
  P   P43       1.0  0.49213  0.49218  0.69883  1.0000
  Fe  Fe94      1.0  0.32262  0.96986  0.79715  1.0000
  H   H1021     1.0  0.55472  0.51547  0.80914  1.0000
  C   C1293     1.0  0.57724  0.84791  0.53504  1.0000
  C   C1294     1.0  0.46229  0.49095  0.87382  1.0000
  C   C1295     1.0  0.32184  0.60785  0.75361  1.0000
  H   H1022     1.0  0.38477  0.82877  0.52393  1.0000
  H   H1023     1.0  0.31360  0.52957  0.77738  1.0000
  C   C1296     1.0  0.34567  0.48972  0.84526  1.0000
  C   C1297     1.0  0.53085  0.49353  0.97636  1.0000
  H   H1024     1.0  0.54263  0.91816  0.72482  1.0000
  S   S186      1.0  0.34670  0.50430  0.63697  1.0000
  H   H1025     1.0  0.57406  0.91981  0.89039  1.0000
  C   C1298     1.0  0.39388  0.91717  0.52618  1.0000
  H   H1026     1.0  0.48019  0.92162  0.52562  1.0000
  C   C1299     1.0  0.54974  0.80655  0.54483  1.0000
  S   S187      1.0  0.48944  0.77655  0.53037  1.0000
  C   C1300     1.0  0.34259  0.60138  0.73509  1.0000
  H   H1027     1.0  0.53938  0.82292  0.59271  1.0000
  C   C1301     1.0  0.37769  0.52194  0.53246  1.0000
  C   C1302     1.0  0.39938  0.67575  0.98854  1.0000
  H   H1028     1.0  0.37388  0.57759  0.73220  1.0000
  C   C1303     1.0  0.51220  0.50002  0.73344  1.0000
  C   C1304     1.0  0.40073  0.91289  0.99616  1.0000
  C   C1305     1.0  0.31469  0.94999  0.68278  1.0000
  C   C1306     1.0  0.61145  0.94946  0.83759  1.0000
  H   H1029     1.0  0.63483  0.90746  0.65345  1.0000
  C   C1307     1.0  0.44929  0.74980  0.51331  1.0000
  H   H1030     1.0  0.44791  0.57299  0.63261  1.0000
  C   C1308     1.0  0.43152  0.65018  0.70741  1.0000
  C   C1309     1.0  0.41935  0.62844  0.71001  1.0000
  C   C1310     1.0  0.41012  0.61745  0.68076  1.0000
  C   C1311     1.0  0.41312  0.62815  0.64899  1.0000
  C   C1312     1.0  0.42523  0.65006  0.64602  1.0000
  C   C1313     1.0  0.43450  0.66097  0.67558  1.0000
  P   P44       1.0  0.42995  0.66293  0.60427  1.0000
  C   C1314     1.0  0.43667  0.69476  0.60669  1.0000
  C   C1315     1.0  0.45509  0.64728  0.58379  1.0000
  C   C1316     1.0  0.45885  0.62236  0.58831  1.0000
  C   C1317     1.0  0.47866  0.61042  0.57319  1.0000
  C   C1318     1.0  0.49489  0.62326  0.55354  1.0000
  C   C1319     1.0  0.49084  0.64790  0.54793  1.0000
  C   C1320     1.0  0.47081  0.65980  0.56249  1.0000
  C   C1321     1.0  0.42029  0.71229  0.59395  1.0000
  C   C1322     1.0  0.42673  0.73653  0.59261  1.0000
  C   C1323     1.0  0.44956  0.74350  0.60378  1.0000
  C   C1324     1.0  0.46583  0.72627  0.61690  1.0000
  C   C1325     1.0  0.45942  0.70203  0.61845  1.0000
  C   C1326     1.0  0.40327  0.65925  0.57834  1.0000
  C   C1327     1.0  0.38022  0.65899  0.59328  1.0000
  C   C1328     1.0  0.35961  0.65663  0.57290  1.0000
  C   C1329     1.0  0.54189  0.48750  0.77595  1.0000
  S   S188      1.0  0.44703  0.56744  0.51963  1.0000
  C   C1330     1.0  0.40530  0.65790  0.54278  1.0000
  H   H1031     1.0  0.43876  0.65862  0.73015  1.0000
  H   H1032     1.0  0.41713  0.62011  0.73469  1.0000
  H   H1033     1.0  0.40066  0.60055  0.68254  1.0000
  H   H1034     1.0  0.40598  0.61924  0.62669  1.0000
  H   H1035     1.0  0.44402  0.67773  0.67432  1.0000
  H   H1036     1.0  0.44635  0.61196  0.60288  1.0000
  H   H1037     1.0  0.48105  0.59109  0.57601  1.0000
  H   H1038     1.0  0.51006  0.61394  0.54151  1.0000
  H   H1039     1.0  0.50282  0.65766  0.53145  1.0000
  H   H1040     1.0  0.46756  0.67867  0.55661  1.0000
  H   H1041     1.0  0.40281  0.70729  0.58411  1.0000
  H   H1042     1.0  0.41431  0.74987  0.58197  1.0000
  H   H1043     1.0  0.45484  0.76216  0.60163  1.0000
  H   H1044     1.0  0.48365  0.73167  0.62505  1.0000
  H   H1045     1.0  0.47255  0.68879  0.62769  1.0000
  H   H1046     1.0  0.37813  0.66054  0.62062  1.0000
  H   H1047     1.0  0.34590  0.65327  0.52164  1.0000
  C   C1331     1.0  0.41767  0.48569  0.91333  1.0000
  C   C1332     1.0  0.58326  0.93488  0.87940  1.0000
  H   H1048     1.0  0.42282  0.65844  0.53062  1.0000
  C   C1333     1.0  0.51325  0.52383  0.74585  1.0000
  C   C1334     1.0  0.47884  0.83420  0.87272  1.0000
  C   C1335     1.0  0.49040  0.83549  0.84124  1.0000
  C   C1336     1.0  0.47911  0.84754  0.81410  1.0000
  C   C1337     1.0  0.45615  0.85859  0.81836  1.0000
  C   C1338     1.0  0.44481  0.85738  0.85025  1.0000
  P   P45       1.0  0.44074  0.87370  0.78346  1.0000
  C   C1339     1.0  0.45401  0.86488  0.74325  1.0000
  C   C1340     1.0  0.40943  0.86510  0.78384  1.0000
  C   C1341     1.0  0.39113  0.88089  0.77199  1.0000
  C   C1342     1.0  0.36703  0.87384  0.77213  1.0000
  C   C1343     1.0  0.36097  0.85113  0.78416  1.0000
  C   C1344     1.0  0.37911  0.83515  0.79544  1.0000
  C   C1345     1.0  0.40327  0.84199  0.79498  1.0000
  C   C1346     1.0  0.47708  0.87303  0.73481  1.0000
  C   C1347     1.0  0.48781  0.86608  0.70404  1.0000
  C   C1348     1.0  0.47535  0.85152  0.68119  1.0000
  C   C1349     1.0  0.45201  0.84412  0.68867  1.0000
  C   C1350     1.0  0.44134  0.85068  0.71970  1.0000
  C   C1351     1.0  0.44348  0.90607  0.78651  1.0000
  C   C1352     1.0  0.44955  0.91728  0.81744  1.0000
  C   C1353     1.0  0.45164  0.94238  0.81921  1.0000
  H   H1049     1.0  0.50771  0.73055  0.50578  1.0000
  C   C1354     1.0  0.44190  0.94537  0.75929  1.0000
  C   C1355     1.0  0.43979  0.92031  0.75740  1.0000
  C   C1356     1.0  0.36774  0.86384  0.52784  1.0000
  H   H1050     1.0  0.31845  0.48571  0.76754  1.0000
  H   H1051     1.0  0.50803  0.82690  0.83780  1.0000
  H   H1052     1.0  0.48830  0.84775  0.78992  1.0000
  H   H1053     1.0  0.42709  0.86570  0.85426  1.0000
  H   H1054     1.0  0.39533  0.89857  0.76249  1.0000
  H   H1055     1.0  0.35298  0.88603  0.76295  1.0000
  H   H1056     1.0  0.34222  0.84595  0.78471  1.0000
  H   H1057     1.0  0.37445  0.81748  0.80464  1.0000
  H   H1058     1.0  0.41710  0.82921  0.80340  1.0000
  H   H1059     1.0  0.48684  0.88454  0.75224  1.0000
  H   H1060     1.0  0.50579  0.87194  0.69760  1.0000
  H   H1061     1.0  0.48387  0.84612  0.65760  1.0000
  H   H1062     1.0  0.44212  0.83341  0.67031  1.0000
  H   H1063     1.0  0.42322  0.84478  0.72487  1.0000
  H   H1064     1.0  0.45233  0.90677  0.84026  1.0000
  C   C1357     1.0  0.33104  0.52918  0.82660  1.0000
  H   H1065     1.0  0.63108  0.86361  0.64148  1.0000
  H   H1066     1.0  0.43466  0.91213  0.73336  1.0000
  S   S189      1.0  0.41585  0.56512  0.99035  1.0000
  C   C1358     1.0  0.37720  0.48573  0.93753  1.0000
  C   C1359     1.0  0.37079  0.93580  0.96414  1.0000
  C   C1360     1.0  0.47322  0.51633  0.82628  1.0000
  C   C1361     1.0  0.46701  0.70522  0.98272  1.0000
  H   H1067     1.0  0.44592  0.76363  0.99421  1.0000
  H   H1068     1.0  0.36215  0.52067  0.95157  1.0000
  C   C1362     1.0  0.61859  0.91823  0.60594  1.0000
  C   C1363     1.0  0.31541  0.88161  0.95170  1.0000
  H   H1069     1.0  0.50249  0.53824  0.73460  1.0000
  C   C1364     1.0  0.47950  0.51872  0.67832  1.0000
  C   C1365     1.0  0.48614  0.52474  0.64500  1.0000
  C   C1366     1.0  0.46156  0.53271  0.69507  1.0000
  C   C1367     1.0  0.34470  0.57145  0.86820  1.0000
  C   C1368     1.0  0.45912  0.49810  0.83980  1.0000
  H   H1070     1.0  0.43798  0.95623  0.73705  1.0000
  C   C1369     1.0  0.45635  0.96454  0.95550  1.0000
  H   H1071     1.0  0.50006  0.97121  0.82245  1.0000
  H   H1072     1.0  0.60117  0.92414  0.55809  1.0000
  H   H1073     1.0  0.39845  0.59894  0.88155  1.0000
  H   H1074     1.0  0.60413  0.91191  0.84535  1.0000
  H   H1075     1.0  0.49965  0.51410  0.63133  1.0000
  H   H1076     1.0  0.45581  0.52813  0.72056  1.0000
  C   C1370     1.0  0.38464  0.65602  0.52246  1.0000
  S   S190      1.0  0.45240  0.88085  0.95379  1.0000
  C   C1371     1.0  0.52660  0.48188  0.74882  1.0000
  C   C1372     1.0  0.47993  0.50216  0.89390  1.0000
  C   C1373     1.0  0.49400  0.52033  0.88025  1.0000
  H   H1077     1.0  0.50875  0.94176  0.93499  1.0000
  C   C1374     1.0  0.34281  0.51460  0.85095  1.0000
  C   C1375     1.0  0.47990  0.94110  0.52830  1.0000
  C   C1376     1.0  0.53252  0.54194  0.51712  1.0000
  H   H1078     1.0  0.53072  0.87941  0.99186  1.0000
  H   H1079     1.0  0.52960  0.54775  0.78250  1.0000
  C   C1377     1.0  0.53722  0.48507  0.94384  1.0000
  H   H1080     1.0  0.35956  0.75311  0.53812  1.0000
  C   C1378     1.0  0.54315  0.95688  0.72985  1.0000
  S   S191      1.0  0.47600  0.60723  0.98706  1.0000
  H   H1081     1.0  0.50095  0.54218  0.83649  1.0000
  H   H1082     1.0  0.37281  0.58482  0.83516  1.0000
  H   H1083     1.0  0.35314  0.89074  0.60378  1.0000
  H   H1084     1.0  0.38491  0.64609  0.95987  1.0000
  C   C1379     1.0  0.41649  0.92558  0.53588  1.0000
  H   H1085     1.0  0.53720  0.95786  0.85181  1.0000
  H   H1086     1.0  0.50706  0.52946  0.89612  1.0000
  H   H1087     1.0  0.44699  0.84370  0.90145  1.0000
  C   C1380     1.0  0.50896  0.93479  0.70864  1.0000
  C   C1381     1.0  0.54281  0.51119  0.78815  1.0000
  H   H1088     1.0  0.43320  0.52119  0.90908  1.0000
  C   C1382     1.0  0.32491  0.90458  0.57029  1.0000
  H   H1089     1.0  0.39199  0.90810  0.50187  1.0000
  H   H1090     1.0  0.47013  0.52238  0.80041  1.0000
  C   C1383     1.0  0.49600  0.95649  0.70399  1.0000
  H   H1091     1.0  0.45943  0.95053  0.90453  1.0000
  C   C1384     1.0  0.39764  0.52338  0.92996  1.0000
  C   C1385     1.0  0.48651  0.95161  0.55925  1.0000
  H   H1092     1.0  0.49185  0.94035  0.58056  1.0000
  H   H1093     1.0  0.37679  0.48817  0.55915  1.0000
  H   H1094     1.0  0.61316  0.84976  0.58740  1.0000
  C   C1386     1.0  0.47482  0.54434  0.62865  1.0000
  H   H1095     1.0  0.52915  0.57957  0.50368  1.0000
  H   H1096     1.0  0.58441  0.92787  0.95665  1.0000
  C   C1387     1.0  0.45703  0.55815  0.64553  1.0000
  C   C1388     1.0  0.41781  0.51090  0.91686  1.0000
  H   H1097     1.0  0.54415  0.48468  0.68398  1.0000
  H   H1098     1.0  0.47939  0.54851  0.60256  1.0000
  H   H1099     1.0  0.34193  0.65591  0.58458  1.0000
  H   H1100     1.0  0.48746  0.82475  0.89376  1.0000
  C   C1389     1.0  0.53249  0.93497  0.72168  1.0000
  C   C1390     1.0  0.37446  0.58767  0.92133  1.0000
  H   H1101     1.0  0.44526  0.49040  0.82390  1.0000
  C   C1391     1.0  0.57344  0.89784  0.50903  1.0000
  Fe  Fe95      1.0  0.37918  0.48361  0.65698  1.0000
  H   H1102     1.0  0.38399  0.81132  0.99139  1.0000
  C   C1392     1.0  0.38337  0.49746  0.53691  1.0000
  C   C1393     1.0  0.44900  0.96206  0.92162  1.0000
  C   C1394     1.0  0.60014  0.93030  0.85352  1.0000
  C   C1395     1.0  0.60590  0.97319  0.84754  1.0000
  H   H1103     1.0  0.31850  0.95488  0.54332  1.0000
  H   H1104     1.0  0.56155  0.95717  0.73947  1.0000
  C   C1396     1.0  0.56298  0.80912  0.51487  1.0000
  P   P46       1.0  0.59342  0.87543  0.52816  1.0000
  H   H1105     1.0  0.58537  0.96398  0.98418  1.0000
  H   H1106     1.0  0.52420  0.51201  0.97905  1.0000
  H   H1107     1.0  0.32569  0.88405  0.65200  1.0000
  H   H1108     1.0  0.53508  0.49677  0.92200  1.0000
  P   P47       1.0  0.32528  0.56099  0.83428  1.0000
  C   C1397     1.0  0.56553  0.92349  0.95910  1.0000
  H   H1109     1.0  0.33210  0.94518  0.69389  1.0000
  H   H1110     1.0  0.36679  0.53158  0.55129  1.0000
  Fe  Fe96      1.0  0.61642  0.48731  0.83016  1.0000
  H   H1111     1.0  0.39105  0.78425  0.54099  1.0000
  H   H1112     1.0  0.34997  0.52230  0.87414  1.0000
  C   C1398     1.0  0.52317  0.93119  0.94655  1.0000
  H   H1113     1.0  0.43186  0.92251  0.51923  1.0000
  H   H1114     1.0  0.56315  0.85941  0.58408  1.0000
  C   C1399     1.0  0.60585  0.88582  0.56830  1.0000
  C   C1400     1.0  0.37054  0.84058  0.51428  1.0000
  C   C1401     1.0  0.45775  0.74792  0.99665  1.0000
  H   H1115     1.0  0.54056  0.87807  0.51706  1.0000
  H   H1116     1.0  0.53730  0.50369  0.52288  1.0000
  H   H1117     1.0  0.64530  0.86306  0.53788  1.0000
  C   C1402     1.0  0.60793  0.91057  0.57548  1.0000
  C   C1403     1.0  0.37747  0.51085  0.94069  1.0000
  C   C1404     1.0  0.55952  0.90246  0.97634  1.0000
  H   H1118     1.0  0.40141  0.95032  0.61270  1.0000
  H   H1119     1.0  0.48230  0.49748  0.92046  1.0000
  C   C1405     1.0  0.54114  0.51904  0.50705  1.0000
  H   H1120     1.0  0.62413  0.94595  0.81706  1.0000
  H   H1121     1.0  0.47202  0.95430  0.96415  1.0000
  H   H1122     1.0  0.33390  0.92629  0.97158  1.0000
  H   H1123     1.0  0.34775  0.57371  0.95511  1.0000
  S   S192      1.0  0.61611  0.97135  0.69689  1.0000
  C   C1406     1.0  0.39233  0.65189  0.98407  1.0000
  C   C1407     1.0  0.32521  0.49371  0.79092  1.0000
  C   C1408     1.0  0.62686  0.90136  0.62973  1.0000
  C   C1409     1.0  0.39811  0.48512  0.51335  1.0000
  C   C1410     1.0  0.33179  0.57704  0.79552  1.0000
  C   C1411     1.0  0.52438  0.96948  0.86530  1.0000
  C   C1412     1.0  0.42834  0.97440  0.90986  1.0000
  C   C1413     1.0  0.48819  0.73021  0.50432  1.0000
  C   C1414     1.0  0.33670  0.47927  0.81538  1.0000
  C   C1415     1.0  0.38659  0.77588  0.51679  1.0000
  C   C1416     1.0  0.52869  0.97677  0.89910  1.0000
  C   C1417     1.0  0.64146  0.86384  0.51090  1.0000
  S   S193      1.0  0.34333  0.97085  0.84722  1.0000
  C   C1418     1.0  0.32253  0.51857  0.79646  1.0000
  H   H1124     1.0  0.35501  0.47859  0.86388  1.0000
  H   H1125     1.0  0.38325  0.55338  0.50181  1.0000
  C   C1419     1.0  0.50327  0.97699  0.84849  1.0000
  C   C1420     1.0  0.35832  0.90325  0.00083  1.0000
  H   H1126     1.0  0.94445  0.00482  0.04648  1.0000
  C   C1421     1.0  0.79343  0.46221  0.29835  1.0000
  C   C1422     1.0  0.94350  0.47234  0.42729  1.0000
  Fe  Fe97      1.0  0.87677  0.02186  0.32896  1.0000
  H   H1127     1.0  0.90243  0.17299  0.28590  1.0000
  S   S194      1.0  0.88303  0.05168  0.36790  1.0000
  Fe  Fe98      1.0  0.89009  0.00678  0.25615  1.0000
  S   S195      1.0  0.91632  0.00812  0.21226  1.0000
  S   S196      1.0  0.86501  0.03521  0.27744  1.0000
  S   S197      1.0  0.96256  0.05111  0.48482  1.0000
  S   S198      1.0  0.93522  0.11732  0.02638  1.0000
  H   H1128     1.0  0.96287  0.35792  0.12426  1.0000
  Fe  Fe99      1.0  0.94825  0.10235  0.07640  1.0000
  S   S199      1.0  0.92135  0.10119  0.11992  1.0000
  H   H1129     1.0  0.72460  0.36941  0.44355  1.0000
  C   C1423     1.0  0.66102  0.01899  0.48487  1.0000
  C   C1424     1.0  0.88234  0.36542  0.45266  1.0000
  Fe  Fe100     1.0  0.85680  0.43909  0.16624  1.0000
  S   S200      1.0  0.88560  0.45922  0.19383  1.0000
  S   S201      1.0  0.86194  0.41170  0.12359  1.0000
  Fe  Fe101     1.0  0.86388  0.45325  0.24115  1.0000
  S   S202      1.0  0.88173  0.44977  0.29351  1.0000
  S   S203      1.0  0.83702  0.42991  0.21426  1.0000
  C   C1425     1.0  0.68572  0.40006  0.28829  1.0000
  Fe  Fe102     1.0  0.95134  0.35234  0.40414  1.0000
  S   S204      1.0  0.92788  0.35340  0.35639  1.0000
  Fe  Fe103     1.0  0.95544  0.36901  0.47800  1.0000
  S   S205      1.0  0.96472  0.38494  0.06071  1.0000
  S   S206      1.0  0.93837  0.33640  0.45343  1.0000
  H   H1130     1.0  0.70191  0.45963  0.11440  1.0000
  P   P48       1.0  0.66269  0.42505  0.11988  1.0000
  H   H1131     1.0  0.83686  0.02529  0.18348  1.0000
  C   C1426     1.0  0.94189  0.14489  0.34050  1.0000
  H   H1132     1.0  0.75059  0.37260  0.09338  1.0000
  C   C1427     1.0  0.72593  0.45181  0.22585  1.0000
  C   C1428     1.0  0.70366  0.45893  0.24093  1.0000
  H   H1133     1.0  0.78646  0.40376  0.35063  1.0000
  H   H1134     1.0  0.72732  0.43484  0.21216  1.0000
  H   H1135     1.0  0.68815  0.44750  0.23867  1.0000
  C   C1429     1.0  0.89482  0.42285  0.31015  1.0000
  C   C1430     1.0  0.90870  0.42404  0.34015  1.0000
  C   C1431     1.0  0.91915  0.40299  0.35442  1.0000
  C   C1432     1.0  0.91577  0.38051  0.33883  1.0000
  C   C1433     1.0  0.90192  0.37936  0.30881  1.0000
  C   C1434     1.0  0.89141  0.40040  0.29458  1.0000
  H   H1136     1.0  0.91138  0.44131  0.35248  1.0000
  H   H1137     1.0  0.92960  0.40409  0.37762  1.0000
  H   H1138     1.0  0.89915  0.36206  0.29661  1.0000
  H   H1139     1.0  0.88051  0.39919  0.27174  1.0000
  C   C1435     1.0  0.93600  0.39175  0.07803  1.0000
  C   C1436     1.0  0.93442  0.40679  0.10696  1.0000
  C   C1437     1.0  0.91180  0.41366  0.12057  1.0000
  C   C1438     1.0  0.89063  0.40490  0.10597  1.0000
  C   C1439     1.0  0.89221  0.38984  0.07707  1.0000
  C   C1440     1.0  0.91483  0.38341  0.06295  1.0000
  H   H1140     1.0  0.95075  0.41334  0.11868  1.0000
  H   H1141     1.0  0.91080  0.42525  0.14279  1.0000
  H   H1142     1.0  0.87588  0.38303  0.06566  1.0000
  Fe  Fe104     1.0  0.83673  0.00651  0.27897  1.0000
  C   C1441     1.0  0.90454  0.05053  0.40123  1.0000
  C   C1442     1.0  0.91904  0.03000  0.40732  1.0000
  C   C1443     1.0  0.93644  0.03031  0.43357  1.0000
  C   C1444     1.0  0.93963  0.05116  0.45354  1.0000
  C   C1445     1.0  0.92496  0.07157  0.44768  1.0000
  C   C1446     1.0  0.90743  0.07115  0.42169  1.0000
  H   H1143     1.0  0.91678  0.01393  0.39191  1.0000
  H   H1144     1.0  0.94754  0.01436  0.43837  1.0000
  H   H1145     1.0  0.66272  0.02546  0.35368  1.0000
  H   H1146     1.0  0.89612  0.08693  0.41720  1.0000
  C   C1447     1.0  0.91668  0.03394  0.18645  1.0000
  C   C1448     1.0  0.93303  0.03444  0.15939  1.0000
  C   C1449     1.0  0.93443  0.05485  0.13862  1.0000
  C   C1450     1.0  0.91958  0.07507  0.14503  1.0000
  C   C1451     1.0  0.90270  0.07439  0.17164  1.0000
  C   C1452     1.0  0.90112  0.05378  0.19217  1.0000
  H   H1147     1.0  0.94477  0.01899  0.15463  1.0000
  H   H1148     1.0  0.94711  0.05500  0.11782  1.0000
  H   H1149     1.0  0.89088  0.08987  0.17642  1.0000
  H   H1150     1.0  0.88816  0.05343  0.21269  1.0000
  H   H1151     1.0  0.74861  0.03363  0.04566  1.0000
  H   H1152     1.0  0.89924  0.13309  0.37565  1.0000
  C   C1453     1.0  0.96296  0.09663  0.38672  1.0000
  H   H1153     1.0  0.69185  0.02216  0.05578  1.0000
  C   C1454     1.0  0.73213  0.39803  0.12659  1.0000
  H   H1154     1.0  0.94560  0.09388  0.37458  1.0000
  H   H1155     1.0  0.87988  0.39838  0.19503  1.0000
  C   C1455     1.0  0.95464  0.33158  0.25608  1.0000
  C   C1456     1.0  0.97697  0.33205  0.16079  1.0000
  H   H1156     1.0  0.84014  0.41089  0.49700  1.0000
  S   S207      1.0  0.86138  0.97899  0.25366  1.0000
  C   C1457     1.0  0.92571  0.14317  0.41376  1.0000
  C   C1458     1.0  0.76634  0.03200  0.05733  1.0000
  H   H1157     1.0  0.91591  0.37190  0.04060  1.0000
  C   C1459     1.0  0.94366  0.36732  0.19512  1.0000
  H   H1158     1.0  0.93538  0.05373  0.34259  1.0000
  C   C1460     1.0  0.92336  0.16060  0.32903  1.0000
  C   C1461     1.0  0.75856  0.38617  0.45424  1.0000
  C   C1462     1.0  0.94770  0.99050  0.06469  1.0000
  C   C1463     1.0  0.65261  0.46244  0.16635  1.0000
  C   C1464     1.0  0.77487  0.40361  0.44418  1.0000
  C   C1465     1.0  0.93921  0.38833  0.21449  1.0000
  C   C1466     1.0  0.91632  0.39955  0.21442  1.0000
  C   C1467     1.0  0.89757  0.38962  0.19544  1.0000
  C   C1468     1.0  0.90170  0.36852  0.17647  1.0000
  C   C1469     1.0  0.92458  0.35726  0.17649  1.0000
  C   C1470     1.0  0.69064  0.40868  0.11111  1.0000
  C   C1471     1.0  0.92820  0.07520  0.26237  1.0000
  C   C1472     1.0  0.77134  0.00654  0.25397  1.0000
  C   C1473     1.0  0.93449  0.43880  0.01938  1.0000
  H   H1159     1.0  0.75481  0.03870  0.23275  1.0000
  C   C1474     1.0  0.78836  0.42044  0.33683  1.0000
  H   H1160     1.0  0.86597  0.44995  0.06222  1.0000
  H   H1161     1.0  0.71212  0.99220  0.17123  1.0000
  C   C1475     1.0  0.95445  0.13025  0.31673  1.0000
  H   H1162     1.0  0.91403  0.17265  0.34675  1.0000
  C   C1476     1.0  0.72914  0.00995  0.23456  1.0000
  C   C1477     1.0  0.95272  0.45373  0.00812  1.0000
  C   C1478     1.0  0.82498  0.46143  0.43927  1.0000
  C   C1479     1.0  0.97533  0.33592  0.23657  1.0000
  H   H1163     1.0  0.71129  0.46974  0.32664  1.0000
  C   C1480     1.0  0.85221  0.46015  0.39098  1.0000
  C   C1481     1.0  0.75202  0.02014  0.23979  1.0000
  H   H1164     1.0  0.91301  0.41585  0.22928  1.0000
  C   C1482     1.0  0.68879  0.02865  0.10967  1.0000
  H   H1165     1.0  0.74591  0.41035  0.29214  1.0000
  H   H1166     1.0  0.92716  0.34067  0.16209  1.0000
  C   C1483     1.0  0.76970  0.43813  0.33674  1.0000
  C   C1484     1.0  0.96869  0.47420  0.34016  1.0000
  H   H1167     1.0  0.74754  0.40014  0.14344  1.0000
  C   C1485     1.0  0.95684  0.32061  0.28792  1.0000
  C   C1486     1.0  0.80963  0.42400  0.31859  1.0000
  C   C1487     1.0  0.95405  0.19308  0.40845  1.0000
  C   C1488     1.0  0.79137  0.02880  0.10788  1.0000
  S   S208      1.0  0.77392  0.45643  0.20808  1.0000
  H   H1168     1.0  0.87965  0.33936  0.41187  1.0000
  C   C1489     1.0  0.67860  0.40986  0.31969  1.0000
  Fe  Fe105     1.0  0.95635  0.08674  0.00212  1.0000
  H   H1169     1.0  0.95325  0.39581  0.23015  1.0000
  C   C1490     1.0  0.71001  0.40024  0.27866  1.0000
  H   H1170     1.0  0.65331  0.04220  0.41080  1.0000
  C   C1491     1.0  0.72728  0.41010  0.30047  1.0000
  H   H1171     1.0  0.96558  0.43593  0.34813  1.0000
  C   C1492     1.0  0.93485  0.99026  0.09524  1.0000
  C   C1493     1.0  0.90258  0.13706  0.40224  1.0000
  C   C1494     1.0  0.76730  0.98187  0.16103  1.0000
  C   C1495     1.0  0.97048  0.12005  0.39463  1.0000
  C   C1496     1.0  0.71498  0.47611  0.35223  1.0000
  C   C1497     1.0  0.96536  0.21525  0.41199  1.0000
  H   H1172     1.0  0.88717  0.36114  0.16132  1.0000
  H   H1173     1.0  0.78267  0.43124  0.40820  1.0000
  H   H1174     1.0  0.67744  0.43551  0.04939  1.0000
  C   C1498     1.0  0.87690  0.35808  0.41946  1.0000
  H   H1175     1.0  0.92147  0.00440  0.10060  1.0000
  S   S209      1.0  0.83368  0.47199  0.15504  1.0000
  H   H1176     1.0  0.82412  0.41046  0.31883  1.0000
  C   C1499     1.0  0.88350  0.13538  0.42539  1.0000
  C   C1500     1.0  0.93547  0.47339  0.23935  1.0000
  S   S210      1.0  0.84694  0.99484  0.33220  1.0000
  C   C1501     1.0  0.83393  0.06194  0.20051  1.0000
  C   C1502     1.0  0.83376  0.08626  0.19146  1.0000
  C   C1503     1.0  0.83617  0.09266  0.15733  1.0000
  C   C1504     1.0  0.83884  0.07473  0.13227  1.0000
  C   C1505     1.0  0.84013  0.05024  0.14129  1.0000
  C   C1506     1.0  0.83714  0.04396  0.17563  1.0000
  P   P49       1.0  0.84161  0.02730  0.10830  1.0000
  C   C1507     1.0  0.81233  0.02852  0.08774  1.0000
  C   C1508     1.0  0.86616  0.03116  0.07860  1.0000
  C   C1509     1.0  0.87019  0.01385  0.05271  1.0000
  H   H1177     1.0  0.65970  0.40993  0.32705  1.0000
  C   C1510     1.0  0.97962  0.31387  0.30055  1.0000
  C   C1511     1.0  0.90024  0.05353  0.05758  1.0000
  C   C1512     1.0  0.88184  0.05064  0.08141  1.0000
  H   H1178     1.0  0.93679  0.33703  0.24724  1.0000
  H   H1179     1.0  0.89152  0.00362  0.00868  1.0000
  P   P50       1.0  0.74215  0.43355  0.36024  1.0000
  C   C1513     1.0  0.65789  0.43639  0.05070  1.0000
  C   C1514     1.0  0.81003  0.03028  0.05220  1.0000
  C   C1515     1.0  0.69701  0.01592  0.08090  1.0000
  H   H1180     1.0  0.76240  0.37519  0.47644  1.0000
  H   H1181     1.0  0.91772  0.03920  0.01265  1.0000
  C   C1516     1.0  0.85092  0.44703  0.04502  1.0000
  H   H1182     1.0  0.97378  0.03847  0.31768  1.0000
  C   C1517     1.0  0.90040  0.47680  0.43664  1.0000
  H   H1183     1.0  0.83134  0.05697  0.22687  1.0000
  H   H1184     1.0  0.83149  0.10010  0.21092  1.0000
  H   H1185     1.0  0.83588  0.11153  0.15024  1.0000
  H   H1186     1.0  0.83997  0.08003  0.10583  1.0000
  H   H1187     1.0  0.92727  0.08773  0.46288  1.0000
  H   H1188     1.0  0.85885  0.99824  0.05067  1.0000
  Fe  Fe106     1.0  0.81487  0.46398  0.20486  1.0000
  C   C1518     1.0  0.69224  0.39249  0.08346  1.0000
  H   H1189     1.0  0.91195  0.06889  0.05966  1.0000
  H   H1190     1.0  0.88026  0.06366  0.10192  1.0000
  H   H1191     1.0  0.95649  0.22991  0.42590  1.0000
  H   H1192     1.0  0.68984  0.42781  0.36541  1.0000
  Fe  Fe107     1.0  0.66035  0.98361  0.21423  1.0000
  C   C1519     1.0  0.81216  0.44489  0.29945  1.0000
  H   H1193     1.0  0.82578  0.03100  0.03602  1.0000
  C   C1520     1.0  0.96133  0.04895  0.30205  1.0000
  H   H1194     1.0  0.95928  0.00182  0.25824  1.0000
  H   H1195     1.0  0.71447  0.02071  0.22387  1.0000
  H   H1196     1.0  0.71505  0.36730  0.05547  1.0000
  H   H1197     1.0  0.86571  0.13051  0.41643  1.0000
  H   H1198     1.0  0.88592  0.39521  0.48719  1.0000
  H   H1199     1.0  0.93997  0.44464  0.27544  1.0000
  H   H1200     1.0  0.94087  0.31784  0.30324  1.0000
  C   C1521     1.0  0.97388  0.32479  0.09971  1.0000
  H   H1201     1.0  0.95272  0.06930  0.22096  1.0000
  H   H1202     1.0  0.93029  0.47015  0.14644  1.0000
  C   C1522     1.0  0.97673  0.99763  0.38135  1.0000
  H   H1203     1.0  0.93429  0.43329  0.04568  1.0000
  C   C1523     1.0  0.92912  0.14599  0.27121  1.0000
  C   C1524     1.0  0.97046  0.33993  0.12802  1.0000
  S   S211      1.0  0.96659  0.07011  0.05219  1.0000
  H   H1204     1.0  0.92415  0.14635  0.24446  1.0000
  C   C1525     1.0  0.97623  0.20711  0.00445  1.0000
  C   C1526     1.0  0.86798  0.99425  0.14689  1.0000
  C   C1527     1.0  0.70859  0.99907  0.14594  1.0000
  S   S212      1.0  0.90448  0.99570  0.30736  1.0000
  H   H1205     1.0  0.78550  0.03344  0.00968  1.0000
  C   C1528     1.0  0.72536  0.98585  0.24307  1.0000
  H   H1206     1.0  0.70946  0.42230  0.15561  1.0000
  C   C1529     1.0  0.71099  0.99470  0.08462  1.0000
  S   S213      1.0  0.80019  0.02000  0.25775  1.0000
  H   H1207     1.0  0.75911  0.99849  0.15196  1.0000
  H   H1208     1.0  0.82612  0.43971  0.08565  1.0000
  H   H1209     1.0  0.67679  0.38968  0.06701  1.0000
  C   C1530     1.0  0.71704  0.98625  0.11727  1.0000
  H   H1210     1.0  0.79140  0.40612  0.45856  1.0000
  C   C1531     1.0  0.94974  0.06634  0.24781  1.0000
  C   C1532     1.0  0.96842  0.44403  0.23788  1.0000
  C   C1533     1.0  0.76848  0.03059  0.09272  1.0000
  H   H1211     1.0  0.93634  0.19114  0.41959  1.0000
  C   C1534     1.0  0.91685  0.16095  0.29457  1.0000
  C   C1535     1.0  0.80780  0.47411  0.41967  1.0000
  C   C1536     1.0  0.78710  0.03184  0.03709  1.0000
  S   S214      1.0  0.96610  0.38551  0.42829  1.0000
  C   C1537     1.0  0.88752  0.13931  0.46016  1.0000
  P   P51       1.0  0.87001  0.43854  0.45012  1.0000
  C   C1538     1.0  0.89881  0.45176  0.44129  1.0000
  C   C1539     1.0  0.91981  0.43718  0.43880  1.0000
  C   C1540     1.0  0.94195  0.44747  0.43138  1.0000
  H   H1212     1.0  0.79180  0.43176  0.04689  1.0000
  C   C1541     1.0  0.69576  0.41990  0.34144  1.0000
  C   C1542     1.0  0.72029  0.41990  0.33217  1.0000
  C   C1543     1.0  0.87165  0.40693  0.43829  1.0000
  C   C1544     1.0  0.86604  0.39936  0.40500  1.0000
  C   C1545     1.0  0.86877  0.37504  0.39566  1.0000
  C   C1546     1.0  0.73383  0.38253  0.09840  1.0000
  H   H1213     1.0  0.76597  0.97897  0.07590  1.0000
  C   C1547     1.0  0.64819  0.01805  0.36851  1.0000
  H   H1214     1.0  0.65346  0.12744  0.13870  1.0000
  C   C1548     1.0  0.92969  0.14658  0.44877  1.0000
  H   H1215     1.0  0.91931  0.41787  0.44268  1.0000
  H   H1216     1.0  0.95797  0.43609  0.42925  1.0000
  H   H1217     1.0  0.67722  0.04460  0.10689  1.0000
  C   C1549     1.0  0.73727  0.38291  0.43568  1.0000
  C   C1550     1.0  0.83495  0.47262  0.37143  1.0000
  H   H1218     1.0  0.86032  0.41210  0.38577  1.0000
  H   H1219     1.0  0.86538  0.36941  0.36961  1.0000
  C   C1551     1.0  0.94803  0.13081  0.28226  1.0000
  C   C1552     1.0  0.76988  0.41779  0.41560  1.0000
  H   H1220     1.0  0.71568  0.39409  0.39312  1.0000
  H   H1221     1.0  0.66583  0.01373  0.45919  1.0000
  C   C1553     1.0  0.96657  0.05321  0.26762  1.0000
  C   C1554     1.0  0.93968  0.05762  0.31634  1.0000
  H   H1222     1.0  0.90357  0.41812  0.00538  1.0000
  C   C1555     1.0  0.91063  0.14486  0.47182  1.0000
  H   H1223     1.0  0.90255  0.47269  0.09781  1.0000
  C   C1556     1.0  0.88024  0.38977  0.46187  1.0000
  H   H1224     1.0  0.91516  0.08510  0.24690  1.0000
  C   C1557     1.0  0.92312  0.07076  0.29654  1.0000
  H   H1225     1.0  0.96902  0.33118  0.07448  1.0000
  H   H1226     1.0  0.88889  0.35234  0.47108  1.0000
  C   C1558     1.0  0.78777  0.98304  0.18185  1.0000
  C   C1559     1.0  0.69466  0.02026  0.14217  1.0000
  C   C1560     1.0  0.71053  0.41080  0.13320  1.0000
  H   H1227     1.0  0.87281  0.13785  0.47811  1.0000
  C   C1561     1.0  0.84738  0.45447  0.42509  1.0000
  P   P52       1.0  0.95078  0.14545  0.38479  1.0000
  H   H1228     1.0  0.94755  0.15074  0.45829  1.0000
  C   C1562     1.0  0.85400  0.44872  0.00979  1.0000
  C   C1563     1.0  0.74862  0.41450  0.39657  1.0000
  C   C1564     1.0  0.71384  0.37962  0.07700  1.0000
  H   H1229     1.0  0.71547  0.39306  0.25404  1.0000
  H   H1230     1.0  0.96632  0.45930  0.02623  1.0000
  H   H1231     1.0  0.90613  0.07709  0.30757  1.0000
  H   H1232     1.0  0.68766  0.02968  0.16451  1.0000
  C   C1565     1.0  0.84739  0.99795  0.12650  1.0000
  C   C1566     1.0  0.94729  0.45319  0.25307  1.0000
  C   C1567     1.0  0.96575  0.47513  0.19475  1.0000
  Fe  Fe108     1.0  0.97046  0.36684  0.00906  1.0000
  H   H1233     1.0  0.67234  0.39257  0.27131  1.0000
  H   H1234     1.0  0.87991  0.00903  0.15240  1.0000
  C   C1568     1.0  0.73226  0.39702  0.40699  1.0000
  H   H1235     1.0  0.86934  0.45494  0.37936  1.0000
  C   C1569     1.0  0.68956  0.46600  0.13403  1.0000
  H   H1236     1.0  0.75240  0.03125  0.10848  1.0000
  C   C1570     1.0  0.74646  0.46636  0.22840  1.0000
  C   C1571     1.0  0.82845  0.44111  0.05831  1.0000
  H   H1237     1.0  0.66173  0.41618  0.19371  1.0000
  C   C1572     1.0  0.90353  0.03676  0.03119  1.0000
  H   H1238     1.0  0.79278  0.02812  0.13540  1.0000
  C   C1573     1.0  0.88870  0.01676  0.02897  1.0000
  C   C1574     1.0  0.97663  0.99551  0.26812  1.0000
  H   H1239     1.0  0.82859  0.44752  0.28522  1.0000
  C   C1575     1.0  0.80910  0.43662  0.03641  1.0000
  H   H1240     1.0  0.97773  0.42861  0.24888  1.0000
  Fe  Fe109     1.0  0.96990  0.13830  0.02673  1.0000
  H   H1241     1.0  0.96940  0.11862  0.32449  1.0000
  H   H1242     1.0  0.74490  0.46083  0.42527  1.0000
  C   C1576     1.0  0.95691  0.24606  0.49506  1.0000
  H   H1243     1.0  0.79508  0.00039  0.18878  1.0000
  C   C1577     1.0  0.86353  0.44172  0.49519  1.0000
  C   C1578     1.0  0.66880  0.45303  0.14192  1.0000
  C   C1579     1.0  0.97770  0.45492  0.20884  1.0000
  H   H1244     1.0  0.82082  0.45736  0.46550  1.0000
  P   P53       1.0  0.97298  0.35227  0.19697  1.0000
  C   C1580     1.0  0.96554  0.17394  0.39068  1.0000
  S   S215      1.0  0.96311  0.17826  0.01180  1.0000
  H   H1245     1.0  0.95779  0.11953  0.26400  1.0000
  C   C1581     1.0  0.77227  0.45890  0.31695  1.0000
  H   H1246     1.0  0.83889  0.47681  0.34509  1.0000
  C   C1582     1.0  0.72954  0.46230  0.37442  1.0000
  H   H1247     1.0  0.91391  0.14787  0.49877  1.0000
  C   C1583     1.0  0.76746  0.98255  0.26294  1.0000
  H   H1248     1.0  0.96424  0.01177  0.37310  1.0000
  C   C1584     1.0  0.97554  0.44997  0.33561  1.0000
  Fe  Fe110     1.0  0.97548  0.31818  0.45618  1.0000
  H   H1249     1.0  0.94328  0.26036  0.49421  1.0000
  C   C1585     1.0  0.64941  0.40397  0.18134  1.0000
  H   H1250     1.0  0.75785  0.47237  0.31524  1.0000
  H   H1251     1.0  0.71630  0.98459  0.06208  1.0000
  H   H1252     1.0  0.79512  0.47799  0.28245  1.0000
  C   C1586     1.0  0.97742  0.07659  0.39539  1.0000
  H   H1253     1.0  0.97115  0.05857  0.39009  1.0000
  H   H1254     1.0  0.81659  0.98069  0.10322  1.0000
  C   C1587     1.0  0.73391  0.47108  0.40749  1.0000
  C   C1588     1.0  0.83241  0.97843  0.11923  1.0000
  C   C1589     1.0  0.87379  0.46029  0.51463  1.0000
  C   C1590     1.0  0.97156  0.47269  0.76510  1.0000
  Fe  Fe111     1.0  0.81416  0.00391  0.78352  1.0000
  Fe  Fe112     1.0  0.85568  0.03252  0.81555  1.0000
  S   S216      1.0  0.88375  0.01600  0.78067  1.0000
  S   S217      1.0  0.86169  0.06290  0.85364  1.0000
  Fe  Fe113     1.0  0.85606  0.02041  0.73921  1.0000
  S   S218      1.0  0.86185  0.03116  0.68430  1.0000
  S   S219      1.0  0.82957  0.04021  0.77278  1.0000
  H   H1255     1.0  0.84317  0.44874  0.82460  1.0000
  S   S220      1.0  0.94433  0.11014  0.54655  1.0000
  Fe  Fe114     1.0  0.97409  0.13702  0.53802  1.0000
  Fe  Fe115     1.0  0.96432  0.10056  0.59475  1.0000
  S   S221      1.0  0.95088  0.09642  0.64891  1.0000
  C   C1591     1.0  0.86990  0.46170  0.54981  1.0000
  Fe  Fe116     1.0  0.83419  0.46753  0.71709  1.0000
  C   C1592     1.0  0.83105  0.46429  0.82708  1.0000
  Fe  Fe117     1.0  0.87193  0.43486  0.68210  1.0000
  S   S222      1.0  0.90347  0.45061  0.71030  1.0000
  S   S223      1.0  0.87417  0.40384  0.64353  1.0000
  Fe  Fe118     1.0  0.87965  0.44980  0.75661  1.0000
  S   S224      1.0  0.89421  0.44736  0.81111  1.0000
  S   S225      1.0  0.84934  0.43067  0.72979  1.0000
  H   H1256     1.0  0.95459  0.18870  0.94009  1.0000
  Fe  Fe119     1.0  0.96022  0.35574  0.93422  1.0000
  S   S226      1.0  0.93397  0.35460  0.88961  1.0000
  C   C1593     1.0  0.70636  0.08979  0.75879  1.0000
  H   H1257     1.0  0.80186  0.41442  0.91077  1.0000
  S   S227      1.0  0.95456  0.33448  0.98258  1.0000
  H   H1258     1.0  0.72264  0.02129  0.95205  1.0000
  S   S228      1.0  0.69962  0.44424  0.79861  1.0000
  H   H1259     1.0  0.93500  0.46750  0.64079  1.0000
  H   H1260     1.0  0.92249  0.14547  0.79733  1.0000
  C   C1594     1.0  0.65792  0.04225  0.86110  1.0000
  C   C1595     1.0  0.95357  0.47323  0.64207  1.0000
  H   H1261     1.0  0.65153  0.00645  0.88043  1.0000
  C   C1596     1.0  0.72527  0.45414  0.77510  1.0000
  C   C1597     1.0  0.94706  0.17346  0.92662  1.0000
  C   C1598     1.0  0.65561  0.00299  0.79957  1.0000
  C   C1599     1.0  0.90699  0.42141  0.83080  1.0000
  C   C1600     1.0  0.90439  0.39828  0.81706  1.0000
  C   C1601     1.0  0.91329  0.37798  0.83498  1.0000
  C   C1602     1.0  0.92512  0.38067  0.86650  1.0000
  C   C1603     1.0  0.92828  0.40388  0.87976  1.0000
  C   C1604     1.0  0.91918  0.42413  0.86202  1.0000
  H   H1262     1.0  0.89502  0.39596  0.79306  1.0000
  H   H1263     1.0  0.91071  0.36007  0.82461  1.0000
  H   H1264     1.0  0.93718  0.40612  0.90408  1.0000
  H   H1265     1.0  0.92143  0.44196  0.87266  1.0000
  C   C1605     1.0  0.92334  0.40044  0.54918  1.0000
  C   C1606     1.0  0.90741  0.38184  0.55586  1.0000
  C   C1607     1.0  0.89228  0.38324  0.58469  1.0000
  C   C1608     1.0  0.89301  0.40316  0.60710  1.0000
  C   C1609     1.0  0.90878  0.42183  0.60020  1.0000
  C   C1610     1.0  0.92383  0.42048  0.57136  1.0000
  H   H1266     1.0  0.96073  0.03353  0.85754  1.0000
  H   H1267     1.0  0.88010  0.36873  0.58986  1.0000
  H   H1268     1.0  0.90934  0.43724  0.61717  1.0000
  H   H1269     1.0  0.93616  0.43488  0.56651  1.0000
  C   C1611     1.0  0.88574  0.06157  0.88336  1.0000
  C   C1612     1.0  0.90249  0.04229  0.88349  1.0000
  C   C1613     1.0  0.92127  0.04169  0.90772  1.0000
  C   C1614     1.0  0.92360  0.06036  0.93183  1.0000
  C   C1615     1.0  0.90689  0.07965  0.93172  1.0000
  C   C1616     1.0  0.88805  0.08027  0.90750  1.0000
  H   H1270     1.0  0.90087  0.02778  0.86506  1.0000
  H   H1271     1.0  0.93402  0.02666  0.90784  1.0000
  H   H1272     1.0  0.90843  0.09397  0.95043  1.0000
  H   H1273     1.0  0.87508  0.09519  0.90760  1.0000
  C   C1617     1.0  0.88667  0.04927  0.67486  1.0000
  C   C1618     1.0  0.89221  0.05396  0.64072  1.0000
  C   C1619     1.0  0.91163  0.06875  0.63246  1.0000
  C   C1620     1.0  0.92579  0.07864  0.65830  1.0000
  C   C1621     1.0  0.92020  0.07400  0.69247  1.0000
  C   C1622     1.0  0.90078  0.05923  0.70074  1.0000
  H   H1274     1.0  0.88150  0.04612  0.62059  1.0000
  H   H1275     1.0  0.91557  0.07269  0.60618  1.0000
  H   H1276     1.0  0.93096  0.08176  0.71261  1.0000
  H   H1277     1.0  0.89655  0.05579  0.72709  1.0000
  Fe  Fe120     1.0  0.86548  0.98110  0.79190  1.0000
  H   H1278     1.0  0.77112  0.01922  0.86656  1.0000
  C   C1623     1.0  0.82245  0.06090  0.55480  1.0000
  S   S229      1.0  0.94305  0.39967  0.51368  1.0000
  C   C1624     1.0  0.68788  0.07378  0.75151  1.0000
  C   C1625     1.0  0.67277  0.02283  0.54424  1.0000
  H   H1279     1.0  0.94678  0.99158  0.85909  1.0000
  C   C1626     1.0  0.95938  0.03595  0.80245  1.0000
  C   C1627     1.0  0.87406  0.46739  0.90208  1.0000
  C   C1628     1.0  0.92215  0.00627  0.58473  1.0000
  C   C1629     1.0  0.78430  0.09898  0.70669  1.0000
  C   C1630     1.0  0.71049  0.07285  0.81529  1.0000
  H   H1280     1.0  0.93694  0.36995  0.61918  1.0000
  C   C1631     1.0  0.95899  0.16323  0.89832  1.0000
  C   C1632     1.0  0.74739  0.44112  0.77808  1.0000
  C   C1633     1.0  0.91694  0.43065  0.99672  1.0000
  C   C1634     1.0  0.78289  0.04858  0.57349  1.0000
  H   H1281     1.0  0.91986  0.97968  0.93977  1.0000
  H   H1282     1.0  0.79358  0.05115  0.52085  1.0000
  H   H1283     1.0  0.82003  0.05958  0.64119  1.0000
  C   C1635     1.0  0.94030  0.08605  0.79676  1.0000
  C   C1636     1.0  0.97018  0.25023  0.99089  1.0000
  H   H1284     1.0  0.78245  0.09367  0.65251  1.0000
  C   C1637     1.0  0.91548  0.14412  0.92152  1.0000
  H   H1285     1.0  0.93253  0.21956  0.51453  1.0000
  C   C1638     1.0  0.68085  0.05713  0.77596  1.0000
  H   H1286     1.0  0.96662  0.28000  0.61649  1.0000
  C   C1639     1.0  0.96430  0.47725  0.67379  1.0000
  C   C1640     1.0  0.76785  0.46927  0.74093  1.0000
  S   S230      1.0  0.85526  0.47088  0.66784  1.0000
  H   H1287     1.0  0.83401  0.41330  0.55928  1.0000
  H   H1288     1.0  0.68331  0.37474  0.83069  1.0000
  C   C1641     1.0  0.96611  0.02667  0.66606  1.0000
  C   C1642     1.0  0.95691  0.02430  0.83384  1.0000
  C   C1643     1.0  0.69629  0.04141  0.64630  1.0000
  H   H1289     1.0  0.94881  0.08235  0.86727  1.0000
  C   C1644     1.0  0.89480  0.98009  0.64878  1.0000
  C   C1645     1.0  0.64934  0.06630  0.86049  1.0000
  C   C1646     1.0  0.73351  0.02563  0.85490  1.0000
  H   H1290     1.0  0.95932  0.11954  0.80100  1.0000
  H   H1291     1.0  0.84134  0.42252  0.87431  1.0000
  H   H1292     1.0  0.90682  0.36634  0.53899  1.0000
  C   C1647     1.0  0.86003  0.38858  0.88069  1.0000
  H   H1293     1.0  0.85312  0.44539  0.59322  1.0000
  C   C1648     1.0  0.84850  0.42522  0.51136  1.0000
  C   C1649     1.0  0.90356  0.99503  0.56676  1.0000
  C   C1650     1.0  0.87165  0.37287  0.90341  1.0000
  C   C1651     1.0  0.84989  0.41042  0.89243  1.0000
  C   C1652     1.0  0.77224  0.43802  0.89712  1.0000
  C   C1653     1.0  0.79537  0.43300  0.91021  1.0000
  H   H1294     1.0  0.74825  0.42514  0.79371  1.0000
  C   C1654     1.0  0.92058  0.03972  0.54550  1.0000
  C   C1655     1.0  0.65088  0.98265  0.77962  1.0000
  C   C1656     1.0  0.68891  0.05944  0.62361  1.0000
  H   H1295     1.0  0.76143  0.42356  0.88690  1.0000
  C   C1657     1.0  0.94193  0.11128  0.79829  1.0000
  S   S231      1.0  0.97228  0.38908  0.96159  1.0000
  H   H1296     1.0  0.65853  0.07982  0.84596  1.0000
  H   H1297     1.0  0.78483  0.09899  0.76164  1.0000
  H   H1298     1.0  0.76511  0.04209  0.56719  1.0000
  C   C1658     1.0  0.79907  0.05342  0.54719  1.0000
  H   H1299     1.0  0.81129  0.01817  0.67339  1.0000
  C   C1659     1.0  0.81367  0.05843  0.61506  1.0000
  H   H1300     1.0  0.97884  0.27749  0.90552  1.0000
  H   H1301     1.0  0.95708  0.03975  0.68254  1.0000
  H   H1302     1.0  0.78878  0.11785  0.70478  1.0000
  C   C1660     1.0  0.78198  0.08842  0.73871  1.0000
  H   H1303     1.0  0.96694  0.10065  0.74141  1.0000
  C   C1661     1.0  0.83463  0.44430  0.98753  1.0000
  C   C1662     1.0  0.70619  0.07238  0.60589  1.0000
  C   C1663     1.0  0.85934  0.46933  0.93113  1.0000
  H   H1304     1.0  0.74399  0.07800  0.59771  1.0000
  C   C1664     1.0  0.89846  0.11560  0.79265  1.0000
  C   C1665     1.0  0.89667  0.09051  0.79130  1.0000
  C   C1666     1.0  0.91745  0.07577  0.79363  1.0000
  H   H1305     1.0  0.89882  0.13662  0.93073  1.0000
  H   H1306     1.0  0.89505  0.99069  0.70175  1.0000
  P   P54       1.0  0.83889  0.44546  0.94189  1.0000
  H   H1307     1.0  0.94139  0.99016  0.75020  1.0000
  C   C1667     1.0  0.85108  0.41664  0.92714  1.0000
  H   H1308     1.0  0.71938  0.07296  0.83988  1.0000
  H   H1309     1.0  0.95776  0.47478  0.58778  1.0000
  H   H1310     1.0  0.67912  0.07406  0.72676  1.0000
  C   C1668     1.0  0.97852  0.26626  0.60554  1.0000
  C   C1669     1.0  0.90266  0.02825  0.52667  1.0000
  C   C1670     1.0  0.95880  0.00274  0.66527  1.0000
  P   P55       1.0  0.77010  0.04297  0.64160  1.0000
  H   H1311     1.0  0.67074  0.34151  0.79237  1.0000
  H   H1312     1.0  0.94431  0.25524  0.88127  1.0000
  C   C1671     1.0  0.96333  0.22075  0.88101  1.0000
  C   C1672     1.0  0.84640  0.98745  0.58296  1.0000
  C   C1673     1.0  0.70608  0.02661  0.90281  1.0000
  C   C1674     1.0  0.96119  0.24568  0.88668  1.0000
  H   H1313     1.0  0.88224  0.12690  0.79117  1.0000
  H   H1314     1.0  0.87907  0.08241  0.78898  1.0000
  H   H1315     1.0  0.91545  0.05643  0.79335  1.0000
  C   C1675     1.0  0.78988  0.05169  0.60763  1.0000
  C   C1676     1.0  0.71751  0.08946  0.79078  1.0000
  C   C1677     1.0  0.84480  0.42660  0.54657  1.0000
  C   C1678     1.0  0.94899  0.00053  0.83491  1.0000
  H   H1316     1.0  0.68296  0.03144  0.66031  1.0000
  C   C1679     1.0  0.94881  0.14338  0.88163  1.0000
  H   H1317     1.0  0.69627  0.00909  0.50460  1.0000
  C   C1680     1.0  0.77716  0.01138  0.64826  1.0000
  C   C1681     1.0  0.77328  0.05016  0.71166  1.0000
  C   C1682     1.0  0.92706  0.13397  0.89306  1.0000
  H   H1318     1.0  0.69305  0.01686  0.73221  1.0000
  C   C1683     1.0  0.69586  0.98695  0.81141  1.0000
  C   C1684     1.0  0.82123  0.98763  0.57978  1.0000
  C   C1685     1.0  0.85558  0.44474  0.56579  1.0000
  H   H1319     1.0  0.95763  0.13500  0.86000  1.0000
  C   C1686     1.0  0.79912  0.00461  0.66388  1.0000
  H   H1320     1.0  0.76908  0.03131  0.71399  1.0000
  H   H1321     1.0  0.77442  0.05580  0.76592  1.0000
  C   C1687     1.0  0.72890  0.01218  0.75389  1.0000
  H   H1322     1.0  0.95474  0.03241  0.74782  1.0000
  C   C1688     1.0  0.70950  0.00598  0.73239  1.0000
  C   C1689     1.0  0.96839  0.08287  0.86821  1.0000
  C   C1690     1.0  0.87315  0.37896  0.93790  1.0000
  C   C1691     1.0  0.94364  0.98823  0.80475  1.0000
  H   H1323     1.0  0.91925  0.11862  0.88011  1.0000
  H   H1324     1.0  0.70039  0.08664  0.58877  1.0000
  C   C1692     1.0  0.71129  0.98548  0.71152  1.0000
  H   H1325     1.0  0.84797  0.06882  0.59471  1.0000
  C   C1693     1.0  0.91668  0.43879  0.96311  1.0000
  H   H1326     1.0  0.74537  0.99800  0.62238  1.0000
  H   H1327     1.0  0.73177  0.10196  0.79648  1.0000
  C   C1694     1.0  0.95158  0.35671  0.61645  1.0000
  H   H1328     1.0  0.85944  0.38405  0.85379  1.0000
  C   C1695     1.0  0.95192  0.47217  0.78739  1.0000
  H   H1329     1.0  0.72633  0.02279  0.66967  1.0000
  S   S232      1.0  0.64791  0.47028  0.85833  1.0000
  C   C1696     1.0  0.80963  0.45178  0.92284  1.0000
  C   C1697     1.0  0.95316  0.46123  0.97407  1.0000
  C   C1698     1.0  0.93428  0.45466  0.95215  1.0000
  H   H1330     1.0  0.73693  0.02682  0.82791  1.0000
  C   C1699     1.0  0.67840  0.01627  0.51067  1.0000
  H   H1331     1.0  0.94728  0.45544  0.79970  1.0000
  C   C1700     1.0  0.76209  0.99337  0.63539  1.0000
  C   C1701     1.0  0.73088  0.06725  0.61077  1.0000
  H   H1332     1.0  0.94400  0.99727  0.68121  1.0000
  H   H1333     1.0  0.88005  0.35619  0.89412  1.0000
  C   C1702     1.0  0.73840  0.04878  0.63300  1.0000
  H   H1334     1.0  0.90309  0.43260  0.94540  1.0000
  H   H1335     1.0  0.79885  0.44337  0.82401  1.0000
  C   C1703     1.0  0.76841  0.44844  0.76089  1.0000
  H   H1336     1.0  0.91696  0.17142  0.96094  1.0000
  C   C1704     1.0  0.69251  0.05608  0.80776  1.0000
  H   H1337     1.0  0.95503  0.36154  0.56228  1.0000
  H   H1338     1.0  0.81084  0.00380  0.58624  1.0000
  H   H1339     1.0  0.86427  0.40492  0.97666  1.0000
  C   C1705     1.0  0.72091  0.03634  0.65129  1.0000
  H   H1340     1.0  0.66979  0.06361  0.62015  1.0000
  S   S233      1.0  0.83864  0.99744  0.82923  1.0000
  H   H1341     1.0  0.94464  0.03738  0.58862  1.0000
  C   C1706     1.0  0.94605  0.99967  0.77342  1.0000
  C   C1707     1.0  0.77621  0.06409  0.74115  1.0000
  P   P56       1.0  0.96736  0.06732  0.80057  1.0000
  H   H1342     1.0  0.68818  0.02868  0.91352  1.0000
  S   S234      1.0  0.95928  0.17490  0.52303  1.0000
  H   H1343     1.0  0.94792  0.21119  0.87116  1.0000
  S   S235      1.0  0.94776  0.05875  0.96130  1.0000
  C   C1708     1.0  0.66706  0.36488  0.83611  1.0000
  C   C1709     1.0  0.80609  0.46129  0.82651  1.0000
  H   H1344     1.0  0.85514  0.00358  0.59214  1.0000
  H   H1345     1.0  0.78510  0.43801  0.76313  1.0000
  C   C1710     1.0  0.75035  0.99802  0.75493  1.0000
  C   C1711     1.0  0.95370  0.02352  0.77224  1.0000
  C   C1712     1.0  0.77580  0.06053  0.67948  1.0000
  H   H1346     1.0  0.92702  0.05708  0.53749  1.0000
  C   C1713     1.0  0.92555  0.16379  0.93837  1.0000
  C   C1714     1.0  0.92110  0.12601  0.79618  1.0000
  C   C1715     1.0  0.80572  0.98022  0.66704  1.0000
  C   C1716     1.0  0.86281  0.40069  0.94983  1.0000
  C   C1717     1.0  0.93050  0.02861  0.57429  1.0000
  H   H1347     1.0  0.88502  0.47354  0.50294  1.0000
  C   C1718     1.0  0.96006  0.34400  0.64485  1.0000
  C   C1719     1.0  0.97956  0.09011  0.89848  1.0000
  S   S236      1.0  0.77266  0.00468  0.78630  1.0000
  Fe  Fe121     1.0  0.96910  0.08288  0.52058  1.0000
  C   C1720     1.0  0.95085  0.22281  0.50648  1.0000
  H   H1348     1.0  0.71365  0.98835  0.82256  1.0000
  H   H1349     1.0  0.88269  0.36691  0.95524  1.0000
  H   H1350     1.0  0.95804  0.26525  0.98517  1.0000
  H   H1351     1.0  0.87340  0.45185  0.88532  1.0000
  H   H1352     1.0  0.68618  0.02077  0.56425  1.0000
  H   H1353     1.0  0.92737  0.46084  0.51166  1.0000
  H   H1354     1.0  0.88028  0.99728  0.52233  1.0000
  Fe  Fe122     1.0  0.65907  0.45336  0.80800  1.0000
  C   C1721     1.0  0.82975  0.06333  0.58872  1.0000
  H   H1355     1.0  0.96896  0.43867  0.91296  1.0000
  C   C1722     1.0  0.78096  0.08516  0.67713  1.0000
  H   H1356     1.0  0.72720  0.02799  0.76997  1.0000
  C   C1723     1.0  0.76291  0.46167  0.89738  1.0000
  C   C1724     1.0  0.74910  0.01982  0.91192  1.0000
  C   C1725     1.0  0.75300  0.02140  0.87691  1.0000
  H   H1357     1.0  0.95182  0.34734  0.66952  1.0000
  C   C1726     1.0  0.65984  0.34625  0.81442  1.0000
  C   C1727     1.0  0.70986  0.02819  0.86752  1.0000
  H   H1358     1.0  0.97183  0.00084  0.55771  1.0000
  C   C1728     1.0  0.97900  0.32697  0.64136  1.0000
  H   H1359     1.0  0.71201  0.10246  0.73966  1.0000
  H   H1360     1.0  0.96863  0.09540  0.92030  1.0000
  H   H1361     1.0  0.95984  0.99295  0.92047  1.0000
  C   C1729     1.0  0.96175  0.35205  0.58447  1.0000
  C   C1730     1.0  0.89415  0.00596  0.53724  1.0000
  C   C1731     1.0  0.67829  0.00552  0.81525  1.0000
  C   C1732     1.0  0.96821  0.20377  0.50776  1.0000
  H   H1362     1.0  0.83502  0.06458  0.53444  1.0000
  H   H1363     1.0  0.76429  0.01653  0.92888  1.0000
  H   H1364     1.0  0.79703  0.43409  0.98470  1.0000
  C   C1733     1.0  0.72566  0.02247  0.92488  1.0000
  P   P57       1.0  0.68489  0.03306  0.83818  1.0000
  H   H1365     1.0  0.93355  0.46130  0.92632  1.0000
  H   H1366     1.0  0.65376  0.44335  0.99685  1.0000
  H   H1367     1.0  0.93018  0.99784  0.60679  1.0000
  C   C1734     1.0  0.65302  0.37120  0.86445  1.0000
  H   H1368     1.0  0.89153  0.99842  0.64025  1.0000
  C   C1735     1.0  0.96087  0.22704  0.99682  1.0000
  S   S237      1.0  0.83949  0.98433  0.74756  1.0000
  H   H1369     1.0  0.66660  0.04488  0.76957  1.0000
  C   C1736     1.0  0.94235  0.47286  0.51527  1.0000
  C   C1737     1.0  0.96364  0.98106  0.51219  1.0000
  H   H1370     1.0  0.95091  0.23938  0.60578  1.0000
  C   C1738     1.0  0.97454  0.98395  0.54412  1.0000
  C   C1739     1.0  0.96595  0.46389  0.51084  1.0000
  H   H1371     1.0  0.95357  0.47452  0.69637  1.0000
  C   C1740     1.0  0.97049  0.98595  0.64377  1.0000
  H   H1372     1.0  0.97619  0.19989  0.81859  1.0000
  C   C1741     1.0  0.72452  0.47461  0.75436  1.0000
  C   C1742     1.0  0.96637  0.47752  0.61223  1.0000
  H   H1373     1.0  0.95221  0.99546  0.50192  1.0000
  H   H1374     1.0  0.74497  0.46552  0.88721  1.0000
  C   C1743     1.0  0.64969  0.03196  0.55206  1.0000
  C   C1744     1.0  0.80009  0.47547  0.92304  1.0000
  H   H1375     1.0  0.87830  0.47567  0.56492  1.0000
  H   H1376     1.0  0.89558  0.03662  0.50372  1.0000
  H   H1377     1.0  0.94155  0.22458  0.99570  1.0000
  H   H1378     1.0  0.65837  0.38593  0.88100  1.0000
  Fe  Fe123     1.0  0.64870  0.99302  0.68290  1.0000
  C   C1745     1.0  0.96951  0.24321  0.59967  1.0000
  H   H1379     1.0  0.96856  0.44507  0.50379  1.0000
  H   H1380     1.0  0.97728  0.20728  0.58059  1.0000
  C   C1746     1.0  0.81218  0.43805  0.00114  1.0000
  H   H1381     1.0  0.87154  0.45327  0.99998  1.0000
  H   H1382     1.0  0.96449  0.70618  0.03029  1.0000
  H   H1383     1.0  0.90259  0.95658  0.37151  1.0000
  C   C1747     1.0  0.96787  0.95990  0.49329  1.0000
  H   H1384     1.0  0.96231  0.96233  0.28679  1.0000
  H   H1385     1.0  0.91276  0.49722  0.04746  1.0000
  H   H1386     1.0  0.67065  0.85638  0.43515  1.0000
  S   S238      1.0  0.88235  0.92976  0.31497  1.0000
  H   H1387     1.0  0.96711  0.72994  0.45190  1.0000
  C   C1748     1.0  0.85812  0.95223  0.15367  1.0000
  H   H1388     1.0  0.96276  0.54627  0.47059  1.0000
  S   S239      1.0  0.92594  0.57936  0.04910  1.0000
  H   H1389     1.0  0.76164  0.92076  0.15829  1.0000
  H   H1390     1.0  0.89637  0.88908  0.19774  1.0000
  S   S240      1.0  0.88332  0.52607  0.17884  1.0000
  C   C1749     1.0  0.95706  0.95389  0.11247  1.0000
  H   H1391     1.0  0.70165  0.52418  0.40378  1.0000
  H   H1392     1.0  0.72064  0.51244  0.27491  1.0000
  H   H1393     1.0  0.86216  0.93469  0.16460  1.0000
  C   C1750     1.0  0.91544  0.56314  0.08487  1.0000
  C   C1751     1.0  0.89549  0.54801  0.08112  1.0000
  C   C1752     1.0  0.88609  0.53559  0.10926  1.0000
  C   C1753     1.0  0.89623  0.53864  0.14167  1.0000
  C   C1754     1.0  0.91623  0.55372  0.14532  1.0000
  C   C1755     1.0  0.92594  0.56568  0.11708  1.0000
  H   H1394     1.0  0.88711  0.54606  0.05638  1.0000
  H   H1395     1.0  0.87052  0.52433  0.10612  1.0000
  H   H1396     1.0  0.92408  0.55650  0.17022  1.0000
  H   H1397     1.0  0.94108  0.57750  0.12041  1.0000
  H   H1398     1.0  0.93904  0.91083  0.27740  1.0000
  C   C1756     1.0  0.96988  0.74294  0.01367  1.0000
  H   H1399     1.0  0.88379  0.51115  0.31319  1.0000
  C   C1757     1.0  0.94020  0.92787  0.17384  1.0000
  C   C1758     1.0  0.93758  0.90837  0.39734  1.0000
  C   C1759     1.0  0.93050  0.89147  0.37287  1.0000
  C   C1760     1.0  0.91316  0.89806  0.34803  1.0000
  C   C1761     1.0  0.90328  0.92166  0.34714  1.0000
  C   C1762     1.0  0.91032  0.93846  0.37173  1.0000
  C   C1763     1.0  0.92710  0.93170  0.39703  1.0000
  H   H1400     1.0  0.93836  0.87340  0.37306  1.0000
  H   H1401     1.0  0.90767  0.88494  0.32917  1.0000
  H   H1402     1.0  0.88444  0.48843  0.43862  1.0000
  H   H1403     1.0  0.93226  0.94475  0.41619  1.0000
  H   H1404     1.0  0.95345  0.96901  0.36572  1.0000
  C   C1764     1.0  0.70910  0.93823  0.13839  1.0000
  C   C1765     1.0  0.75753  0.95947  0.15254  1.0000
  H   H1405     1.0  0.93316  0.56373  0.42949  1.0000
  H   H1406     1.0  0.95830  0.88048  0.23975  1.0000
  C   C1766     1.0  0.92532  0.49580  0.06858  1.0000
  C   C1767     1.0  0.94468  0.48442  0.21038  1.0000
  C   C1768     1.0  0.92102  0.53505  0.25429  1.0000
  C   C1769     1.0  0.89971  0.52723  0.26918  1.0000
  C   C1770     1.0  0.90015  0.51817  0.30227  1.0000
  C   C1771     1.0  0.92177  0.51757  0.32085  1.0000
  C   C1772     1.0  0.94316  0.52605  0.30639  1.0000
  C   C1773     1.0  0.94279  0.53388  0.27243  1.0000
  C   C1774     1.0  0.74577  0.94654  0.08390  1.0000
  C   C1775     1.0  0.72202  0.49541  0.26130  1.0000
  C   C1776     1.0  0.70498  0.49831  0.36280  1.0000
  C   C1777     1.0  0.91097  0.92267  0.49927  1.0000
  Fe  Fe124     1.0  0.86156  0.49186  0.18588  1.0000
  H   H1407     1.0  0.79683  0.92322  0.19713  1.0000
  C   C1778     1.0  0.96775  0.88584  0.26254  1.0000
  C   C1779     1.0  0.97065  0.97349  0.37713  1.0000
  H   H1408     1.0  0.92392  0.50635  0.42680  1.0000
  C   C1780     1.0  0.70149  0.48089  0.25866  1.0000
  C   C1781     1.0  0.76201  0.96108  0.06642  1.0000
  H   H1409     1.0  0.96090  0.48008  0.42248  1.0000
  C   C1782     1.0  0.95331  0.75734  0.12036  1.0000
  H   H1410     1.0  0.95103  0.80289  0.06268  1.0000
  H   H1411     1.0  0.93811  0.90466  0.09160  1.0000
  H   H1412     1.0  0.77788  0.92253  0.00188  1.0000
  C   C1783     1.0  0.76868  0.93826  0.16498  1.0000
  H   H1413     1.0  0.97123  0.63623  0.44234  1.0000
  C   C1784     1.0  0.95976  0.87332  0.07851  1.0000
  C   C1785     1.0  0.92561  0.90744  0.17347  1.0000
  H   H1414     1.0  0.88301  0.52756  0.25461  1.0000
  H   H1415     1.0  0.75008  0.89626  0.03336  1.0000
  H   H1416     1.0  0.92179  0.51014  0.34626  1.0000
  C   C1786     1.0  0.68891  0.91842  0.18505  1.0000
  S   S241      1.0  0.64770  0.97819  0.16001  1.0000
  H   H1417     1.0  0.95927  0.53888  0.25973  1.0000
  C   C1787     1.0  0.83784  0.95563  0.13274  1.0000
  H   H1418     1.0  0.81360  0.96312  0.21228  1.0000
  C   C1788     1.0  0.96042  0.80317  0.19917  1.0000
  C   C1789     1.0  0.93655  0.94550  0.19941  1.0000
  H   H1419     1.0  0.69376  0.50875  0.34529  1.0000
  C   C1790     1.0  0.74182  0.92297  0.07210  1.0000
  H   H1420     1.0  0.72720  0.50000  0.44360  1.0000
  H   H1421     1.0  0.68814  0.91395  0.21184  1.0000
  C   C1791     1.0  0.95082  0.81635  0.17191  1.0000
  C   C1792     1.0  0.90400  0.92257  0.22316  1.0000
  C   C1793     1.0  0.97345  0.85107  0.18993  1.0000
  C   C1794     1.0  0.93963  0.97219  0.11925  1.0000
  C   C1795     1.0  0.94911  0.54559  0.38586  1.0000
  H   H1422     1.0  0.72237  0.93659  0.19043  1.0000
  H   H1423     1.0  0.93523  0.50009  0.19995  1.0000
  H   H1424     1.0  0.92398  0.77701  0.09610  1.0000
  H   H1425     1.0  0.95150  0.51913  0.04615  1.0000
  C   C1796     1.0  0.96787  0.91009  0.31412  1.0000
  C   C1797     1.0  0.75324  0.91445  0.04245  1.0000
  H   H1426     1.0  0.97847  0.86960  0.18592  1.0000
  C   C1798     1.0  0.90757  0.90486  0.19802  1.0000
  C   C1799     1.0  0.66976  0.91264  0.16345  1.0000
  H   H1427     1.0  0.65423  0.90340  0.17336  1.0000
  H   H1428     1.0  0.92987  0.97289  0.14306  1.0000
  H   H1429     1.0  0.89003  0.92061  0.24224  1.0000
  C   C1800     1.0  0.79827  0.96196  0.19510  1.0000
  H   H1430     1.0  0.95942  0.95755  0.46855  1.0000
  C   C1801     1.0  0.65600  0.86000  0.45289  1.0000
  C   C1802     1.0  0.95739  0.84027  0.16724  1.0000
  C   C1803     1.0  0.94714  0.55119  0.42059  1.0000
  H   H1431     1.0  0.75974  0.49980  0.24831  1.0000
  P   P58       1.0  0.73251  0.95754  0.12311  1.0000
  C   C1804     1.0  0.95472  0.89459  0.09682  1.0000
  H   H1432     1.0  0.71167  0.49625  0.14731  1.0000
  H   H1433     1.0  0.97501  0.97261  0.03408  1.0000
  C   C1805     1.0  0.67013  0.91968  0.12939  1.0000
  C   C1806     1.0  0.70941  0.50694  0.39568  1.0000
  C   C1807     1.0  0.70848  0.93121  0.17264  1.0000
  C   C1808     1.0  0.96373  0.54128  0.44383  1.0000
  C   C1809     1.0  0.68964  0.93257  0.11691  1.0000
  H   H1434     1.0  0.73022  0.91100  0.08588  1.0000
  H   H1435     1.0  0.68395  0.51137  0.19268  1.0000
  C   C1810     1.0  0.87317  0.97155  0.16067  1.0000
  C   C1811     1.0  0.95668  0.90318  0.28380  1.0000
  C   C1812     1.0  0.91855  0.94282  0.22391  1.0000
  H   H1436     1.0  0.74199  0.95362  0.26395  1.0000
  H   H1437     1.0  0.82614  0.94066  0.12733  1.0000
  H   H1438     1.0  0.92068  0.54138  0.22824  1.0000
  H   H1439     1.0  0.93977  0.89592  0.49552  1.0000
  H   H1440     1.0  0.92813  0.89338  0.15454  1.0000
  H   H1441     1.0  0.95901  0.92320  0.33080  1.0000
  C   C1813     1.0  0.66033  0.85920  0.48794  1.0000
  C   C1814     1.0  0.96314  0.50648  0.09526  1.0000
  C   C1815     1.0  0.94713  0.50802  0.06776  1.0000
  S   S242      1.0  0.95967  0.90172  0.42856  1.0000
  Fe  Fe125     1.0  0.87410  0.96954  0.30655  1.0000
  C   C1816     1.0  0.69505  0.48694  0.15233  1.0000
  H   H1442     1.0  0.91573  0.95660  0.24339  1.0000
  H   H1443     1.0  0.65813  0.48173  0.40276  1.0000
  C   C1817     1.0  0.65808  0.48349  0.18442  1.0000
  H   H1444     1.0  0.68918  0.93875  0.09083  1.0000
  H   H1445     1.0  0.96564  0.57256  0.30242  1.0000
  H   H1446     1.0  0.93668  0.55414  0.36806  1.0000
  C   C1818     1.0  0.78875  0.93955  0.18664  1.0000
  H   H1447     1.0  0.94151  0.74564  0.13431  1.0000
  C   C1819     1.0  0.77341  0.95252  0.03681  1.0000
  C   C1820     1.0  0.94341  0.77503  0.09893  1.0000
  P   P59       1.0  0.97138  0.52347  0.32949  1.0000
  H   H1448     1.0  0.93829  0.80805  0.15439  1.0000
  C   C1821     1.0  0.67942  0.49555  0.17775  1.0000
  C   C1822     1.0  0.96736  0.52950  0.37432  1.0000
  C   C1823     1.0  0.76895  0.92923  0.02475  1.0000
  S   S243      1.0  0.69725  0.97155  0.23586  1.0000
  C   C1824     1.0  0.74431  0.48824  0.24633  1.0000
  S   S244      1.0  0.67389  0.49101  0.27842  1.0000
  H   H1449     1.0  0.95013  0.85039  0.14588  1.0000
  H   H1450     1.0  0.95536  0.78457  0.20266  1.0000
  H   H1451     1.0  0.94722  0.86718  0.05921  1.0000
  C   C1825     1.0  0.97652  0.81393  0.22192  1.0000
  C   C1826     1.0  0.95698  0.49361  0.12454  1.0000
  C   C1827     1.0  0.97826  0.97318  0.28444  1.0000
  H   H1452     1.0  0.94758  0.96143  0.20044  1.0000
  H   H1453     1.0  0.65478  0.91588  0.11313  1.0000
  C   C1828     1.0  0.97492  0.71777  0.01420  1.0000
  H   H1454     1.0  0.79939  0.48928  0.37047  1.0000
  P   P60       1.0  0.96465  0.93099  0.14368  1.0000
  H   H1455     1.0  0.97293  0.59293  0.42647  1.0000
  C   C1829     1.0  0.74467  0.97227  0.25729  1.0000
  P   P61       1.0  0.97842  0.49090  0.15922  1.0000
  C   C1830     1.0  0.97128  0.90311  0.12102  1.0000
  H   H1456     1.0  0.96952  0.54214  0.13935  1.0000
  H   H1457     1.0  0.78588  0.96383  0.02337  1.0000
  C   C1831     1.0  0.91946  0.48215  0.09704  1.0000
  H   H1458     1.0  0.95549  0.75037  0.02939  1.0000
  H   H1459     1.0  0.88882  0.96909  0.17703  1.0000
  C   C1832     1.0  0.95862  0.78975  0.08033  1.0000
  S   S245      1.0  0.84079  0.48695  0.23489  1.0000
  C   C1833     1.0  0.72385  0.49332  0.41804  1.0000
  H   H1460     1.0  0.90485  0.91972  0.47331  1.0000
  H   H1461     1.0  0.78212  0.97181  0.27371  1.0000
  C   C1834     1.0  0.92272  0.48704  0.42982  1.0000
  C   C1835     1.0  0.96942  0.95397  0.08123  1.0000
  H   H1462     1.0  0.91895  0.48030  0.25100  1.0000
  C   C1836     1.0  0.97842  0.75408  0.12271  1.0000
  C   C1837     1.0  0.96495  0.97235  0.05770  1.0000
  Fe  Fe126     1.0  0.96273  0.59729  0.04644  1.0000
  C   C1838     1.0  0.93520  0.48104  0.12493  1.0000
  S   S246      1.0  0.97815  0.63037  0.07207  1.0000
  H   H1463     1.0  0.95331  0.47863  0.35614  1.0000
  C   C1839     1.0  0.81273  0.47959  0.38572  1.0000
  H   H1464     1.0  0.79066  0.47973  0.43081  1.0000
  H   H1465     1.0  0.67836  0.85494  0.49737  1.0000
  S   S247      1.0  0.86311  0.48656  0.74670  1.0000
  H   H1466     1.0  0.81380  0.92955  0.55378  1.0000
  S   S248      1.0  0.93025  0.89326  0.92599  1.0000
  C   C1840     1.0  0.79382  0.55458  0.85528  1.0000
  H   H1467     1.0  0.79881  0.53605  0.70784  1.0000
  H   H1468     1.0  0.76887  0.96694  0.73347  1.0000
  S   S249      1.0  0.89124  0.94845  0.79441  1.0000
  C   C1841     1.0  0.73430  0.51047  0.82960  1.0000
  H   H1469     1.0  0.82424  0.56221  0.93024  1.0000
  H   H1470     1.0  0.91857  0.54735  0.98804  1.0000
  S   S250      1.0  0.94784  0.57994  0.56774  1.0000
  C   C1842     1.0  0.79030  0.96240  0.65517  1.0000
  H   H1471     1.0  0.88408  0.95018  0.50998  1.0000
  S   S251      1.0  0.91090  0.51837  0.69345  1.0000
  H   H1472     1.0  0.80576  0.61470  0.85393  1.0000
  H   H1473     1.0  0.80666  0.52324  0.76645  1.0000
  S   S252      1.0  0.97600  0.79026  0.99389  1.0000
  C   C1843     1.0  0.95782  0.51206  0.52980  1.0000
  C   C1844     1.0  0.93919  0.56142  0.60225  1.0000
  C   C1845     1.0  0.94853  0.56471  0.63503  1.0000
  C   C1846     1.0  0.93961  0.55128  0.66244  1.0000
  C   C1847     1.0  0.92182  0.53389  0.65737  1.0000
  C   C1848     1.0  0.91285  0.53013  0.62444  1.0000
  C   C1849     1.0  0.92125  0.54410  0.59715  1.0000
  H   H1474     1.0  0.96189  0.57832  0.63944  1.0000
  H   H1475     1.0  0.94633  0.55456  0.68788  1.0000
  H   H1476     1.0  0.89895  0.51702  0.62024  1.0000
  H   H1477     1.0  0.91356  0.54173  0.57204  1.0000
  C   C1850     1.0  0.96275  0.55064  0.92841  1.0000
  H   H1478     1.0  0.78611  0.58342  0.81949  1.0000
  C   C1851     1.0  0.76602  0.55605  0.72012  1.0000
  H   H1479     1.0  0.82488  0.60432  0.90931  1.0000
  C   C1852     1.0  0.92155  0.91039  0.88979  1.0000
  C   C1853     1.0  0.93250  0.90681  0.85804  1.0000
  C   C1854     1.0  0.92329  0.91898  0.82920  1.0000
  C   C1855     1.0  0.90340  0.93520  0.83194  1.0000
  C   C1856     1.0  0.89320  0.93964  0.86398  1.0000
  C   C1857     1.0  0.90207  0.92708  0.89267  1.0000
  H   H1480     1.0  0.94740  0.89393  0.85546  1.0000
  H   H1481     1.0  0.93128  0.91540  0.80452  1.0000
  H   H1482     1.0  0.87790  0.95204  0.86642  1.0000
  H   H1483     1.0  0.89347  0.92991  0.91711  1.0000
  C   C1858     1.0  0.89974  0.95223  0.69564  1.0000
  C   C1859     1.0  0.96220  0.51044  0.95273  1.0000
  H   H1484     1.0  0.97382  0.57354  0.83869  1.0000
  H   H1485     1.0  0.76251  0.56130  0.69402  1.0000
  C   C1860     1.0  0.95549  0.62422  0.74761  1.0000
  C   C1861     1.0  0.66866  0.96461  0.77515  1.0000
  H   H1486     1.0  0.90082  0.94891  0.72279  1.0000
  C   C1862     1.0  0.84040  0.48742  0.82949  1.0000
  H   H1487     1.0  0.94098  0.63065  0.73113  1.0000
  H   H1488     1.0  0.93684  0.57652  0.94892  1.0000
  C   C1863     1.0  0.90731  0.94372  0.55370  1.0000
  C   C1864     1.0  0.92817  0.93126  0.56519  1.0000
  H   H1489     1.0  0.80459  0.53052  0.89604  1.0000
  H   H1490     1.0  0.96132  0.59114  0.71931  1.0000
  C   C1865     1.0  0.79425  0.57847  0.84362  1.0000
  C   C1866     1.0  0.89662  0.97578  0.68375  1.0000
  H   H1491     1.0  0.66532  0.94934  0.75851  1.0000
  C   C1867     1.0  0.79094  0.53467  0.76139  1.0000
  H   H1492     1.0  0.79529  0.94351  0.65826  1.0000
  C   C1868     1.0  0.73304  0.97177  0.71161  1.0000
  C   C1869     1.0  0.93309  0.54144  0.97119  1.0000
  H   H1493     1.0  0.96554  0.53123  0.73952  1.0000
  H   H1494     1.0  0.74493  0.49830  0.72229  1.0000
  C   C1870     1.0  0.94339  0.55791  0.94913  1.0000
  C   C1871     1.0  0.97816  0.94645  0.97134  1.0000
  C   C1872     1.0  0.96267  0.63813  0.77557  1.0000
  C   C1873     1.0  0.89875  0.93715  0.63758  1.0000
  C   C1874     1.0  0.90070  0.93291  0.67258  1.0000
  P   P62       1.0  0.89243  0.96633  0.58026  1.0000
  H   H1495     1.0  0.75438  0.54622  0.89432  1.0000
  S   S253      1.0  0.96866  0.85807  0.98744  1.0000
  C   C1875     1.0  0.71148  0.50541  0.84249  1.0000
  H   H1496     1.0  0.95425  0.92314  0.99810  1.0000
  H   H1497     1.0  0.93577  0.93510  0.59001  1.0000
  H   H1498     1.0  0.73379  0.57359  0.73980  1.0000
  H   H1499     1.0  0.84909  0.49245  0.97379  1.0000
  H   H1500     1.0  0.91998  0.50389  0.52861  1.0000
  C   C1876     1.0  0.95550  0.93890  0.98205  1.0000
  H   H1501     1.0  0.75645  0.95516  0.63029  1.0000
  C   C1877     1.0  0.89002  0.48571  0.89412  1.0000
  C   C1878     1.0  0.97215  0.52701  0.93017  1.0000
  S   S254      1.0  0.68708  0.97660  0.68455  1.0000
  H   H1502     1.0  0.70509  0.95298  0.78715  1.0000
  H   H1503     1.0  0.89852  0.92185  0.62027  1.0000
  H   H1504     1.0  0.91696  0.94438  0.97808  1.0000
  H   H1505     1.0  0.92156  0.49209  0.80847  1.0000
  C   C1879     1.0  0.94264  0.51414  0.77541  1.0000
  C   C1880     1.0  0.71986  0.52958  0.89252  1.0000
  C   C1881     1.0  0.81584  0.56673  0.90607  1.0000
  C   C1882     1.0  0.81620  0.59045  0.89429  1.0000
  C   C1883     1.0  0.93825  0.49696  0.52475  1.0000
  C   C1884     1.0  0.77468  0.54127  0.78739  1.0000
  C   C1885     1.0  0.96246  0.51483  0.75347  1.0000
  C   C1886     1.0  0.74984  0.56290  0.74590  1.0000
  H   H1506     1.0  0.69931  0.49421  0.82787  1.0000
  H   H1507     1.0  0.70775  0.48484  0.75159  1.0000
  C   C1887     1.0  0.82478  0.50761  0.83094  1.0000
  H   H1508     1.0  0.71403  0.53724  0.91670  1.0000
  H   H1509     1.0  0.87781  0.52427  0.95995  1.0000
  Fe  Fe127     1.0  0.96540  0.87160  0.93385  1.0000
  C   C1888     1.0  0.74278  0.53459  0.87968  1.0000
  C   C1889     1.0  0.76849  0.96898  0.63932  1.0000
  C   C1890     1.0  0.93450  0.95091  0.97080  1.0000
  H   H1510     1.0  0.74128  0.56084  0.79903  1.0000
  H   H1511     1.0  0.90407  0.52018  0.90901  1.0000
  C   C1891     1.0  0.93740  0.49285  0.79241  1.0000
  C   C1892     1.0  0.94231  0.51776  0.97283  1.0000
  P   P63       1.0  0.77963  0.53118  0.83052  1.0000
  C   C1893     1.0  0.89151  0.50611  0.91507  1.0000
  C   C1894     1.0  0.75413  0.55557  0.77943  1.0000
  C   C1895     1.0  0.79958  0.50479  0.83029  1.0000
  H   H1512     1.0  0.68639  0.51117  0.88370  1.0000
  H   H1513     1.0  0.81046  0.49016  0.93331  1.0000
  C   C1896     1.0  0.93615  0.97066  0.94906  1.0000
  H   H1514     1.0  0.83245  0.52540  0.83149  1.0000
  H   H1515     1.0  0.95527  0.90369  0.55348  1.0000
  H   H1516     1.0  0.73945  0.50340  0.80488  1.0000
  C   C1897     1.0  0.80542  0.59631  0.86310  1.0000
  C   C1898     1.0  0.89651  0.96087  0.62530  1.0000
  C   C1899     1.0  0.93078  0.90931  0.51167  1.0000
  C   C1900     1.0  0.87672  0.50839  0.94376  1.0000
  H   H1517     1.0  0.73470  0.95594  0.69544  1.0000
  C   C1901     1.0  0.69105  0.96665  0.79133  1.0000
  C   C1902     1.0  0.86006  0.96650  0.57489  1.0000
  H   H1518     1.0  0.93071  0.52983  0.77799  1.0000
  H   H1519     1.0  0.97519  0.83680  0.60618  1.0000
  H   H1520     1.0  0.82285  0.97518  0.67869  1.0000
  H   H1521     1.0  0.85980  0.48966  0.82895  1.0000
  H   H1522     1.0  0.95367  0.65534  0.78082  1.0000
  C   C1903     1.0  0.84814  0.94550  0.56488  1.0000
  C   C1904     1.0  0.95880  0.97812  0.93812  1.0000
  C   C1905     1.0  0.82293  0.94577  0.56168  1.0000
  C   C1906     1.0  0.70424  0.51494  0.87397  1.0000
  C   C1907     1.0  0.80469  0.54885  0.88667  1.0000
  C   C1908     1.0  0.75252  0.97804  0.73305  1.0000
  C   C1909     1.0  0.96695  0.60196  0.74094  1.0000
  C   C1910     1.0  0.75031  0.52477  0.84822  1.0000
  H   H1523     1.0  0.96311  0.53102  0.84749  1.0000
  H   H1524     1.0  0.96051  0.82144  0.55044  1.0000
  C   C1911     1.0  0.89929  0.93987  0.52014  1.0000
  C   C1912     1.0  0.93945  0.91367  0.54452  1.0000
  C   C1913     1.0  0.78657  0.54201  0.72791  1.0000
  C   C1914     1.0  0.86055  0.49020  0.95162  1.0000
  H   H1525     1.0  0.95471  0.53075  0.53750  1.0000
  H   H1526     1.0  0.90245  0.91462  0.68202  1.0000
  H   H1527     1.0  0.85821  0.92887  0.55983  1.0000
  H   H1528     1.0  0.93445  0.50551  0.99076  1.0000
  H   H1529     1.0  0.97133  0.56367  0.91227  1.0000
  C   C1915     1.0  0.79040  0.48143  0.82777  1.0000
  H   H1530     1.0  0.90123  0.48397  0.87155  1.0000
  Fe  Fe128     1.0  0.88555  0.48655  0.69899  1.0000
  H   H1531     1.0  0.76944  0.49856  0.91118  1.0000
  C   C1916     1.0  0.74570  0.48221  0.73773  1.0000
  S   S255      1.0  0.79413  0.48008  0.71981  1.0000
  H   H1532     1.0  0.93747  0.96984  0.80571  1.0000
  H   H1533     1.0  0.96444  0.96750  0.64349  1.0000
  C   C1917     1.0  0.77678  0.48033  0.91059  1.0000
  S   S256      1.0  0.97546  0.60890  0.99464  1.0000
  P   P64       1.0  0.97632  0.48106  0.95943  1.0000
  C   C1918     1.0  0.97715  0.49413  0.74823  1.0000
  H   H1534     1.0  0.97816  0.93520  0.82582  1.0000
  H   H1535     1.0  0.78997  0.96701  0.56674  1.0000
  C   C1919     1.0  0.80949  0.96685  0.56897  1.0000
  H   H1536     1.0  0.77122  0.47851  0.82610  1.0000
  C   C1920     1.0  0.97877  0.81718  0.55888  1.0000
