data_image0
_chemical_formula_structural       SFeSCFeSHFeSFeSCH2C6H6C2PC2HCHCH2C2HCH2CHCHCH2CHC8H2CSC9H7C6PC14HC2H9CH3CH3C4PCHC8SC2HSCHSH3CH2CHCHCH2CH2CH2C2HCH3SHFeSFeSFeSFeHS2FeS2FeSFeSFeS3CH2CHC7H4C6H4C10HCH6C6HCH2CHC2HC2HCHCH2CPCH2C3PC2H4CH4CHCH2SC2HCH2C2HC3H2C5H2SHPHSFeHCFeS2FeCFeCS2HC2HCHSC3H2C6H4C6PC2H2C8H4C2H4C2H2CH7C3HC2H3C3H3CSC3SCH4CH2C6HC2H3PC4H5C4HC4H2C2HCHC2HCH3C2H7C2HCHSFeS2FeSFeCS2PC6H2CH2CHCHPC2HCFeCH3C2SCH3C2HCHC4PC4HC9H2C5H3CHCH8CH2C2HC2HCH2C3H3SH3C3H3CH2C2H2C4HC3HCFeS2FeS2Fe2S2CPH2C2HC3HC7H4CH2C2H2CH2CH3C3HC4H2C4H2CHP2HC2HC11SC5HCH3CHCH4CH2C4HCH3C2HCH3C8H4C4SCH6C3HCHC2H2CH3CH2C2H4CHC3HSC2H4CH2C3HCHCSC6HC4H2CHCH2CSFeS2CHFeCSHC8H5FeCSC2HCH2CSCHPHC6PC3HC11FeHC2H2CHCH2C2HCH8C3H2C3HC2H2SH2CH3C4H2CHCHCHC3HCH2CHSFeHFeS2FeHFeS3H3C6H3CHC4PCH2C2H6C3HCH2C2H4C6H2PH4C2HC4HC6HC3HCHCH4C3H2CHCH3CSHCFeSHFeSCFeSFeS3CHCHC2HC2H2C4H2C7H5C6PC4H3C2HC3HCH2CH5CH5SHC2H5CHCHC3PCH3CH3SH3CHC2HCHC5HSC2H3CHCH2C2HC6H3C3H3CHCHCHC2FeSFeSFeCFeS3FeS2FeSFeSFeS3HC7H5CH2C6H5CH2SH2C2PC9HCH5C3H2CHC4HC4H2C4H2CHC4H2CSHC2HC4H2PHCHC2HCSHFeS2FeHFeS2H2FeC7H3C2HCH6C3S2C2HC2PC4H2C12H2CHCH12CHCHPC9HC7HCH3CH3C2H4C2HCH2CH2CH2SC2SCH
_chemical_formula_sum              "S96 Fe48 C720 H576 P24"
_cell_length_a       35.6649
_cell_length_b       35.8729
_cell_length_c       32.2524
_cell_angle_alpha    89.9652
_cell_angle_beta     90.1104
_cell_angle_gamma    120.082

_space_group_name_H-M_alt    "P 1"
_space_group_IT_number       1

loop_
  _space_group_symop_operation_xyz
  'x, y, z'

loop_
  _atom_site_type_symbol
  _atom_site_label
  _atom_site_symmetry_multiplicity
  _atom_site_fract_x
  _atom_site_fract_y
  _atom_site_fract_z
  _atom_site_occupancy
  S   S1        1.0  0.24009  0.35024  0.29097  1.0000
  Fe  Fe1       1.0  0.09021  0.37132  0.04640  1.0000
  S   S2        1.0  0.06546  0.31316  0.08723  1.0000
  C   C1        1.0  0.35531  0.44147  0.29464  1.0000
  Fe  Fe2       1.0  0.02322  0.39458  0.07698  1.0000
  S   S3        1.0  0.99371  0.33764  0.12066  1.0000
  H   H1        1.0  0.41292  0.46402  0.22295  1.0000
  Fe  Fe3       1.0  0.06238  0.35518  0.13700  1.0000
  S   S4        1.0  0.08018  0.35460  0.20524  1.0000
  Fe  Fe4       1.0  0.99932  0.30036  0.06752  1.0000
  S   S5        1.0  0.09139  0.41478  0.09739  1.0000
  C   C2        1.0  0.43888  0.45695  0.21994  1.0000
  H   H2        1.0  0.35042  0.26463  0.07927  1.0000
  H   H3        1.0  0.23902  0.12484  0.07796  1.0000
  C   C3        1.0  0.19517  0.35108  0.26765  1.0000
  C   C4        1.0  0.19270  0.35226  0.22411  1.0000
  C   C5        1.0  0.15775  0.35312  0.20440  1.0000
  C   C6        1.0  0.12474  0.35280  0.22810  1.0000
  C   C7        1.0  0.12703  0.35119  0.27162  1.0000
  C   C8        1.0  0.16190  0.35019  0.29128  1.0000
  H   H4        1.0  0.21772  0.35212  0.20540  1.0000
  H   H5        1.0  0.15635  0.35408  0.17093  1.0000
  H   H6        1.0  0.10166  0.35081  0.29029  1.0000
  H   H7        1.0  0.28704  0.31537  0.18707  1.0000
  H   H8        1.0  0.39374  0.44691  0.11743  1.0000
  H   H9        1.0  0.27805  0.99094  0.25650  1.0000
  C   C9        1.0  0.25729  0.04487  0.03946  1.0000
  C   C10       1.0  0.15584  0.98672  0.18716  1.0000
  P   P1        1.0  0.37912  0.38114  0.17960  1.0000
  C   C11       1.0  0.30753  0.00549  0.23839  1.0000
  C   C12       1.0  0.23319  0.01845  0.17726  1.0000
  H   H10       1.0  0.41128  0.05417  0.17076  1.0000
  C   C13       1.0  0.32444  0.11294  0.04816  1.0000
  H   H11       1.0  0.31026  0.05319  0.07796  1.0000
  C   C14       1.0  0.97800  0.46203  0.03987  1.0000
  H   H12       1.0  0.35951  0.02052  0.05932  1.0000
  H   H13       1.0  0.21074  0.05389  0.26685  1.0000
  C   C15       1.0  0.37165  0.03184  0.02837  1.0000
  C   C16       1.0  0.39886  0.41373  0.32424  1.0000
  H   H14       1.0  0.13621  0.00566  0.24257  1.0000
  C   C17       1.0  0.24741  0.46711  0.28279  1.0000
  H   H15       1.0  0.24909  0.18220  0.02857  1.0000
  H   H16       1.0  0.29278  0.46567  0.32547  1.0000
  C   C18       1.0  0.31472  0.07539  0.31614  1.0000
  H   H17       1.0  0.10521  0.20556  0.27810  1.0000
  C   C19       1.0  0.34781  0.46726  0.12962  1.0000
  H   H18       1.0  0.25975  0.02137  0.15849  1.0000
  C   C20       1.0  0.43188  0.41907  0.20030  1.0000
  H   H19       1.0  0.37471  0.41458  0.00678  1.0000
  H   H20       1.0  0.43861  0.06285  0.04703  1.0000
  C   C21       1.0  0.38268  0.04095  0.19021  1.0000
  H   H21       1.0  0.35608  0.13125  0.06240  1.0000
  C   C22       1.0  0.36195  0.31536  0.12254  1.0000
  C   C23       1.0  0.99096  0.26382  0.24228  1.0000
  C   C24       1.0  0.30931  0.13386  0.02182  1.0000
  C   C25       1.0  0.31363  0.46232  0.15450  1.0000
  C   C26       1.0  0.38727  0.35951  0.13189  1.0000
  C   C27       1.0  0.32797  0.98166  0.23036  1.0000
  C   C28       1.0  0.29849  0.09153  0.28556  1.0000
  C   C29       1.0  0.11564  0.20913  0.24607  1.0000
  H   H22       1.0  0.32603  0.43501  0.27873  1.0000
  H   H23       1.0  0.17670  0.26622  0.25806  1.0000
  C   C30       1.0  0.31795  0.40721  0.19408  1.0000
  S   S6        1.0  0.99824  0.44240  0.07971  1.0000
  C   C31       1.0  0.42859  0.36957  0.06875  1.0000
  C   C32       1.0  0.30443  0.31102  0.21245  1.0000
  C   C33       1.0  0.34951  0.33797  0.21639  1.0000
  C   C34       1.0  0.37116  0.33102  0.24933  1.0000
  C   C35       1.0  0.34787  0.29892  0.27874  1.0000
  C   C36       1.0  0.30290  0.27331  0.27535  1.0000
  C   C37       1.0  0.28127  0.27912  0.24203  1.0000
  C   C38       1.0  0.29860  0.06866  0.05696  1.0000
  C   C39       1.0  0.28520  0.12093  0.29716  1.0000
  H   H24       1.0  0.30657  0.38542  0.22020  1.0000
  H   H25       1.0  0.27317  0.42948  0.20692  1.0000
  H   H26       1.0  0.33621  0.37446  0.29582  1.0000
  H   H27       1.0  0.40582  0.35093  0.25318  1.0000
  H   H28       1.0  0.36453  0.29449  0.30477  1.0000
  H   H29       1.0  0.28473  0.24935  0.29886  1.0000
  H   H30       1.0  0.24638  0.25948  0.23973  1.0000
  C   C40       1.0  0.27136  0.34173  0.09147  1.0000
  C   C41       1.0  0.25581  0.37000  0.08441  1.0000
  C   C42       1.0  0.21137  0.35492  0.08599  1.0000
  C   C43       1.0  0.18226  0.31129  0.09320  1.0000
  C   C44       1.0  0.19740  0.28231  0.09926  1.0000
  C   C45       1.0  0.24238  0.29822  0.09962  1.0000
  P   P2        1.0  0.15957  0.22595  0.10949  1.0000
  C   C46       1.0  0.11209  0.20738  0.07682  1.0000
  C   C47       1.0  0.18499  0.19396  0.09976  1.0000
  C   C48       1.0  0.21006  0.20110  0.06391  1.0000
  C   C49       1.0  0.22977  0.17650  0.05631  1.0000
  C   C50       1.0  0.19935  0.13688  0.11983  1.0000
  C   C51       1.0  0.17978  0.16159  0.12768  1.0000
  C   C52       1.0  0.10583  0.18149  0.04184  1.0000
  C   C53       1.0  0.06821  0.16624  0.01780  1.0000
  C   C54       1.0  0.03682  0.17707  0.02814  1.0000
  C   C55       1.0  0.04273  0.20267  0.06286  1.0000
  C   C56       1.0  0.08003  0.21761  0.08719  1.0000
  C   C57       1.0  0.14240  0.21971  0.16295  1.0000
  C   C58       1.0  0.16930  0.24903  0.19325  1.0000
  C   C59       1.0  0.15597  0.24352  0.23468  1.0000
  H   H31       1.0  0.40956  0.31279  0.03190  1.0000
  C   C60       1.0  0.08876  0.17964  0.21613  1.0000
  C   C61       1.0  0.10218  0.18468  0.17477  1.0000
  H   H32       1.0  0.30585  0.35348  0.08999  1.0000
  H   H33       1.0  0.27807  0.40351  0.07730  1.0000
  H   H34       1.0  0.19922  0.37682  0.08045  1.0000
  H   H35       1.0  0.14805  0.30049  0.09347  1.0000
  H   H36       1.0  0.25528  0.27714  0.10554  1.0000
  H   H37       1.0  0.21417  0.22555  0.04167  1.0000
  H   H38       1.0  0.19496  0.11166  0.14117  1.0000
  H   H39       1.0  0.16046  0.15505  0.15539  1.0000
  H   H40       1.0  0.12997  0.17342  0.03248  1.0000
  C   C62       1.0  0.42065  0.38648  0.10453  1.0000
  H   H41       1.0  0.01833  0.21101  0.07092  1.0000
  H   H42       1.0  0.08368  0.23710  0.11421  1.0000
  H   H43       1.0  0.20039  0.27630  0.18502  1.0000
  C   C63       1.0  0.36673  0.44178  0.13656  1.0000
  H   H44       1.0  0.16313  0.34902  0.32474  1.0000
  H   H45       1.0  0.05741  0.15301  0.22495  1.0000
  H   H46       1.0  0.08106  0.16133  0.15201  1.0000
  C   C64       1.0  0.36548  0.99933  0.20618  1.0000
  C   C65       1.0  0.36139  0.40682  0.30369  1.0000
  C   C66       1.0  0.32466  0.04742  0.22258  1.0000
  C   C67       1.0  0.36247  0.06502  0.19837  1.0000
  P   P3        1.0  0.29633  0.07672  0.23147  1.0000
  C   C68       1.0  0.32128  0.12604  0.20148  1.0000
  H   H47       1.0  0.33607  0.29356  0.14274  1.0000
  C   C69       1.0  0.24114  0.04188  0.21432  1.0000
  C   C70       1.0  0.22425  0.14430  0.08416  1.0000
  C   C71       1.0  0.35780  0.16279  0.21746  1.0000
  C   C72       1.0  0.37836  0.20087  0.19434  1.0000
  C   C73       1.0  0.36281  0.20256  0.15501  1.0000
  C   C74       1.0  0.32655  0.16627  0.13889  1.0000
  C   C75       1.0  0.30585  0.12804  0.16185  1.0000
  C   C76       1.0  0.16337  0.00950  0.22428  1.0000
  S   S7        1.0  0.34094  0.19054  0.01555  1.0000
  C   C77       1.0  0.29902  0.43261  0.18694  1.0000
  C   C78       1.0  0.37011  0.29862  0.08670  1.0000
  H   H48       1.0  0.37608  0.09686  0.18502  1.0000
  S   S8        1.0  0.22190  0.99016  0.05253  1.0000
  C   C79       1.0  0.99453  0.26991  0.28524  1.0000
  H   H49       1.0  0.37083  0.16187  0.24758  1.0000
  S   S9        1.0  0.02446  0.35580  0.02255  1.0000
  H   H50       1.0  0.37924  0.23174  0.13665  1.0000
  H   H51       1.0  0.31509  0.16764  0.10807  1.0000
  H   H52       1.0  0.27842  0.10026  0.14809  1.0000
  C   C80       1.0  0.20584  0.03694  0.23791  1.0000
  H   H53       1.0  0.27334  0.13445  0.27404  1.0000
  H   H54       1.0  0.01662  0.26288  0.22518  1.0000
  C   C81       1.0  0.35160  0.41101  0.16851  1.0000
  H   H55       1.0  0.21946  0.44198  0.29888  1.0000
  C   C82       1.0  0.40348  0.32571  0.05991  1.0000
  H   H56       1.0  0.32664  0.05396  0.30817  1.0000
  C   C83       1.0  0.24247  0.06560  0.01256  1.0000
  H   H57       1.0  0.40677  0.22893  0.20665  1.0000
  H   H58       1.0  0.45414  0.39053  0.04758  1.0000
  C   C84       1.0  0.43036  0.45544  0.33566  1.0000
  H   H59       1.0  0.02301  0.27320  0.30060  1.0000
  H   H60       1.0  0.98339  0.36122  0.32284  1.0000
  C   C85       1.0  0.40825  0.44006  0.00726  1.0000
  H   H61       1.0  0.44107  0.42055  0.11086  1.0000
  H   H62       1.0  0.15877  0.99028  0.32466  1.0000
  C   C86       1.0  0.41626  0.05592  0.02150  1.0000
  C   C87       1.0  0.19073  0.99113  0.16375  1.0000
  H   H63       1.0  0.40280  0.38667  0.33265  1.0000
  C   C88       1.0  0.26847  0.10977  0.00345  1.0000
  H   H64       1.0  0.00799  0.16588  0.00923  1.0000
  H   H65       1.0  0.46127  0.38103  0.18339  1.0000
  H   H66       1.0  0.38055  0.98034  0.19887  1.0000
  S   S10       1.0  0.14961  0.39276  0.00607  1.0000
  H   H67       1.0  0.09982  0.29961  0.00463  1.0000
  Fe  Fe5       1.0  0.27456  0.00430  0.56275  1.0000
  S   S11       1.0  0.33097  0.03065  0.51864  1.0000
  Fe  Fe6       1.0  0.32785  0.06802  0.63342  1.0000
  S   S12       1.0  0.38767  0.09721  0.59345  1.0000
  Fe  Fe7       1.0  0.34398  0.09532  0.54197  1.0000
  S   S13       1.0  0.36685  0.15467  0.50122  1.0000
  Fe  Fe8       1.0  0.36914  0.02985  0.57396  1.0000
  H   H68       1.0  0.35615  0.45535  0.66396  1.0000
  S   S14       1.0  0.28516  0.06940  0.58256  1.0000
  S   S15       1.0  0.31176  0.00003  0.61722  1.0000
  Fe  Fe9       1.0  0.25507  0.28682  0.42806  1.0000
  S   S16       1.0  0.27786  0.33802  0.47753  1.0000
  S   S17       1.0  0.23782  0.21741  0.43963  1.0000
  Fe  Fe10      1.0  0.24947  0.34493  0.36078  1.0000
  S   S18       1.0  0.27225  0.40036  0.40525  1.0000
  Fe  Fe11      1.0  0.32154  0.38333  0.42815  1.0000
  S   S19       1.0  0.39298  0.43633  0.43118  1.0000
  Fe  Fe12      1.0  0.22673  0.35086  0.45117  1.0000
  S   S20       1.0  0.18562  0.36858  0.49131  1.0000
  S   S21       1.0  0.30200  0.33083  0.38024  1.0000
  S   S22       1.0  0.20069  0.29661  0.40513  1.0000
  C   C89       1.0  0.16677  0.98075  0.42908  1.0000
  H   H69       1.0  0.45237  0.16331  0.48861  1.0000
  H   H70       1.0  0.97639  0.46099  0.43842  1.0000
  C   C90       1.0  0.26557  0.21320  0.63315  1.0000
  H   H71       1.0  0.43979  0.08897  0.49510  1.0000
  C   C91       1.0  0.41736  0.31094  0.58494  1.0000
  C   C92       1.0  0.04260  0.27628  0.52413  1.0000
  C   C93       1.0  0.06870  0.25993  0.50962  1.0000
  C   C94       1.0  0.11216  0.28784  0.49821  1.0000
  C   C95       1.0  0.13006  0.33242  0.50160  1.0000
  C   C96       1.0  0.10375  0.34880  0.51534  1.0000
  C   C97       1.0  0.06014  0.32090  0.52639  1.0000
  H   H72       1.0  0.05528  0.22546  0.50746  1.0000
  H   H73       1.0  0.13203  0.27489  0.48745  1.0000
  H   H74       1.0  0.11726  0.38328  0.51774  1.0000
  H   H75       1.0  0.04032  0.33391  0.53719  1.0000
  C   C98       1.0  0.33073  0.17226  0.48531  1.0000
  C   C99       1.0  0.28584  0.14480  0.48668  1.0000
  C   C100      1.0  0.25790  0.15952  0.47343  1.0000
  C   C101      1.0  0.27447  0.20159  0.45825  1.0000
  C   C102      1.0  0.31936  0.22911  0.45682  1.0000
  C   C103      1.0  0.34736  0.21438  0.47011  1.0000
  H   H76       1.0  0.27266  0.11217  0.49793  1.0000
  H   H77       1.0  0.22321  0.13826  0.47511  1.0000
  H   H78       1.0  0.33244  0.26145  0.44487  1.0000
  H   H79       1.0  0.38208  0.23573  0.46870  1.0000
  C   C104      1.0  0.09346  0.36154  0.39543  1.0000
  C   C105      1.0  0.18420  0.02403  0.44008  1.0000
  C   C106      1.0  0.31071  0.41886  0.56912  1.0000
  C   C107      1.0  0.30974  0.24215  0.63902  1.0000
  C   C108      1.0  0.20244  0.28118  0.59613  1.0000
  C   C109      1.0  0.15885  0.25553  0.58430  1.0000
  C   C110      1.0  0.14748  0.22535  0.55234  1.0000
  C   C111      1.0  0.17937  0.22019  0.53243  1.0000
  C   C112      1.0  0.22260  0.24481  0.54480  1.0000
  C   C113      1.0  0.23414  0.27515  0.57653  1.0000
  H   H80       1.0  0.16404  0.34009  0.58495  1.0000
  C   C114      1.0  0.34099  0.23458  0.62070  1.0000
  H   H81       1.0  0.11395  0.20632  0.54261  1.0000
  H   H82       1.0  0.17074  0.19732  0.50719  1.0000
  H   H83       1.0  0.24727  0.24066  0.52935  1.0000
  H   H84       1.0  0.26789  0.29404  0.58555  1.0000
  H   H85       1.0  0.21810  0.15445  0.60349  1.0000
  H   H86       1.0  0.38678  0.42412  0.52164  1.0000
  C   C115      1.0  0.45220  0.46369  0.54496  1.0000
  C   C116      1.0  0.31668  0.08772  0.35764  1.0000
  C   C117      1.0  0.27332  0.38113  0.58117  1.0000
  C   C118      1.0  0.43222  0.98979  0.49774  1.0000
  C   C119      1.0  0.42829  0.24475  0.62994  1.0000
  C   C120      1.0  0.02185  0.30162  0.37913  1.0000
  H   H87       1.0  0.24983  0.36170  0.55764  1.0000
  C   C121      1.0  0.44841  0.37003  0.51905  1.0000
  H   H88       1.0  0.37972  0.19123  0.66563  1.0000
  H   H89       1.0  0.39107  0.32411  0.48630  1.0000
  C   C122      1.0  0.12585  0.35484  0.62590  1.0000
  H   H90       1.0  0.19121  0.03352  0.47239  1.0000
  C   C123      1.0  0.26620  0.36896  0.62310  1.0000
  C   C124      1.0  0.44036  0.98808  0.53992  1.0000
  H   H91       1.0  0.09287  0.26667  0.40103  1.0000
  C   C125      1.0  0.43176  0.45662  0.47207  1.0000
  C   C126      1.0  0.18340  0.04247  0.36801  1.0000
  H   H92       1.0  0.03915  0.36890  0.38042  1.0000
  C   C127      1.0  0.42023  0.44602  0.51364  1.0000
  H   H93       1.0  0.30508  0.12649  0.40106  1.0000
  C   C128      1.0  0.08092  0.28875  0.39601  1.0000
  H   H94       1.0  0.13353  0.25875  0.59935  1.0000
  H   H95       1.0  0.20607  0.08842  0.41805  1.0000
  C   C129      1.0  0.05015  0.34603  0.38451  1.0000
  P   P4        1.0  0.21816  0.31959  0.63796  1.0000
  C   C130      1.0  0.15679  0.34293  0.61706  1.0000
  H   H96       1.0  0.30250  0.98605  0.34709  1.0000
  H   H97       1.0  0.10911  0.36055  0.60081  1.0000
  C   C131      1.0  0.29559  0.39664  0.65306  1.0000
  C   C132      1.0  0.10888  0.33297  0.40090  1.0000
  C   C133      1.0  0.03755  0.27307  0.38521  1.0000
  P   P5        1.0  0.39798  0.27286  0.62739  1.0000
  C   C134      1.0  0.32738  0.19821  0.59540  1.0000
  C   C135      1.0  0.19266  0.05490  0.40953  1.0000
  H   H98       1.0  0.31610  0.42772  0.53659  1.0000
  H   H99       1.0  0.27271  0.14147  0.57004  1.0000
  H   H100      1.0  0.11513  0.39576  0.39995  1.0000
  H   H101      1.0  0.35082  0.19202  0.58018  1.0000
  C   C136      1.0  0.28316  0.16953  0.58938  1.0000
  H   H102      1.0  0.27726  0.15609  0.34760  1.0000
  H   H103      1.0  0.01635  0.23870  0.38138  1.0000
  H   H104      1.0  0.24157  0.21882  0.64784  1.0000
  H   H105      1.0  0.36380  0.27159  0.54351  1.0000
  C   C137      1.0  0.25229  0.17690  0.60826  1.0000
  H   H106      1.0  0.32937  0.07539  0.38121  1.0000
  C   C138      1.0  0.40939  0.33119  0.51491  1.0000
  H   H107      1.0  0.44525  0.97762  0.43531  1.0000
  H   H108      1.0  0.14242  0.34510  0.40952  1.0000
  S   S23       1.0  0.98897  0.23969  0.54047  1.0000
  C   C139      1.0  0.39392  0.30162  0.54763  1.0000
  C   C140      1.0  0.16639  0.99926  0.35684  1.0000
  H   H109      1.0  0.41131  0.00198  0.48820  1.0000
  C   C141      1.0  0.41137  0.20559  0.65148  1.0000
  H   H110      1.0  0.35262  0.00123  0.40655  1.0000
  H   H111      1.0  0.46029  0.39301  0.49373  1.0000
  C   C142      1.0  0.97175  0.46649  0.47046  1.0000
  C   C143      1.0  0.17813  0.33486  0.64941  1.0000
  H   H112      1.0  0.45853  0.46048  0.35308  1.0000
  C   C144      1.0  0.11670  0.35975  0.66694  1.0000
  C   C145      1.0  0.30304  0.11664  0.36890  1.0000
  C   C146      1.0  0.45649  0.35021  0.58887  1.0000
  H   H113      1.0  0.31944  0.27023  0.65806  1.0000
  H   H114      1.0  0.18929  0.06643  0.34460  1.0000
  C   C147      1.0  0.33313  0.43434  0.64089  1.0000
  C   C148      1.0  0.45140  0.97586  0.46786  1.0000
  C   C149      1.0  0.34092  0.44519  0.59889  1.0000
  C   C150      1.0  0.43519  0.18449  0.65502  1.0000
  C   C151      1.0  0.28740  0.13332  0.33868  1.0000
  H   H115      1.0  0.40382  0.35558  0.64857  1.0000
  H   H116      1.0  0.44292  0.45535  0.57702  1.0000
  S   S24       1.0  0.41762  0.00580  0.57897  1.0000
  H   H117      1.0  0.37007  0.47427  0.58937  1.0000
  P   P6        1.0  0.96627  0.28095  0.36297  1.0000
  H   H118      1.0  0.96653  0.25262  0.44828  1.0000
  S   S25       1.0  0.33502  0.09023  0.70189  1.0000
  Fe  Fe13      1.0  0.26603  0.26360  0.94503  1.0000
  H   H119      1.0  0.40039  0.24896  0.71457  1.0000
  C   C152      1.0  0.02406  0.43109  0.89255  1.0000
  Fe  Fe14      1.0  0.31820  0.24836  0.87797  1.0000
  S   S26       1.0  0.37520  0.26989  0.92111  1.0000
  S   S27       1.0  0.31100  0.22867  0.80892  1.0000
  Fe  Fe15      1.0  0.32595  0.22971  0.96965  1.0000
  C   C153      1.0  0.31583  0.12920  0.90814  1.0000
  Fe  Fe16      1.0  0.36393  0.32384  0.94186  1.0000
  C   C154      1.0  0.18632  0.29083  0.97275  1.0000
  S   S28       1.0  0.26974  0.20527  0.92569  1.0000
  S   S29       1.0  0.31055  0.30569  0.89451  1.0000
  H   H120      1.0  0.23773  0.22624  0.77103  1.0000
  C   C155      1.0  0.01046  0.38814  0.88202  1.0000
  C   C156      1.0  0.23432  0.24486  0.74633  1.0000
  H   H121      1.0  0.00694  0.44686  0.88117  1.0000
  C   C157      1.0  0.27110  0.27730  0.72662  1.0000
  H   H122      1.0  0.18715  0.33701  0.71608  1.0000
  S   S30       1.0  0.42447  0.39107  0.94992  1.0000
  C   C158      1.0  0.21777  0.33459  0.97199  1.0000
  C   C159      1.0  0.26825  0.04570  0.87628  1.0000
  C   C160      1.0  0.38988  0.00525  0.79511  1.0000
  H   H123      1.0  0.25072  0.34432  0.96336  1.0000
  H   H124      1.0  0.40779  0.35526  0.78154  1.0000
  C   C161      1.0  0.32775  0.12892  0.73077  1.0000
  C   C162      1.0  0.34263  0.13789  0.77210  1.0000
  C   C163      1.0  0.33797  0.16820  0.79632  1.0000
  C   C164      1.0  0.31779  0.18981  0.77982  1.0000
  C   C165      1.0  0.30315  0.18111  0.73838  1.0000
  C   C166      1.0  0.30788  0.15084  0.71409  1.0000
  H   H125      1.0  0.35822  0.12145  0.78548  1.0000
  H   H126      1.0  0.35037  0.17504  0.82767  1.0000
  H   H127      1.0  0.28777  0.19769  0.72495  1.0000
  H   H128      1.0  0.00189  0.20197  0.84226  1.0000
  C   C167      1.0  0.14210  0.21066  0.86770  1.0000
  C   C168      1.0  0.18372  0.23573  0.85141  1.0000
  C   C169      1.0  0.19497  0.27439  0.83123  1.0000
  C   C170      1.0  0.16466  0.28807  0.82740  1.0000
  C   C171      1.0  0.12299  0.26347  0.84446  1.0000
  C   C172      1.0  0.11177  0.22439  0.86430  1.0000
  P   P7        1.0  0.08508  0.28291  0.84154  1.0000
  C   C173      1.0  0.11578  0.34033  0.85082  1.0000
  C   C174      1.0  0.05879  0.27178  0.79136  1.0000
  H   H129      1.0  0.02421  0.33612  0.88916  1.0000
  H   H130      1.0  0.41481  0.97531  0.83615  1.0000
  C   C175      1.0  0.06953  0.39218  0.92326  1.0000
  C   C176      1.0  0.40570  0.46853  0.84577  1.0000
  C   C177      1.0  0.07623  0.26176  0.75697  1.0000
  C   C178      1.0  0.14662  0.35673  0.88290  1.0000
  C   C179      1.0  0.17044  0.40105  0.89042  1.0000
  C   C180      1.0  0.16432  0.42943  0.86554  1.0000
  C   C181      1.0  0.13447  0.41351  0.83293  1.0000
  C   C182      1.0  0.11027  0.36911  0.82554  1.0000
  H   H131      1.0  0.08699  0.37719  0.93580  1.0000
  H   H132      1.0  0.37786  0.98166  0.89804  1.0000
  H   H133      1.0  0.44959  0.06839  0.67965  1.0000
  H   H134      1.0  0.29610  0.14442  0.68248  1.0000
  C   C183      1.0  0.45657  0.98388  0.97492  1.0000
  C   C184      1.0  0.02079  0.37924  0.78528  1.0000
  H   H135      1.0  0.13401  0.18140  0.88449  1.0000
  H   H136      1.0  0.20759  0.22570  0.85542  1.0000
  H   H137      1.0  0.22753  0.29407  0.81931  1.0000
  H   H138      1.0  0.17413  0.31838  0.81209  1.0000
  C   C185      1.0  0.43202  0.06997  0.98150  1.0000
  C   C186      1.0  0.04381  0.25679  0.88094  1.0000
  H   H139      1.0  0.41604  0.07061  0.91751  1.0000
  H   H140      1.0  0.33411  0.16153  0.92070  1.0000
  C   C187      1.0  0.28062  0.11824  0.88179  1.0000
  H   H141      1.0  0.10575  0.26040  0.75974  1.0000
  H   H142      1.0  0.15201  0.33525  0.90248  1.0000
  H   H143      1.0  0.19329  0.41334  0.91600  1.0000
  H   H144      1.0  0.00823  0.36179  0.68110  1.0000
  H   H145      1.0  0.12999  0.43569  0.81360  1.0000
  H   H146      1.0  0.08747  0.35749  0.80011  1.0000
  H   H147      1.0  0.40366  0.28432  0.78050  1.0000
  C   C188      1.0  0.40684  0.36007  0.71484  1.0000
  C   C189      1.0  0.40318  0.05949  0.94827  1.0000
  C   C190      1.0  0.14372  0.27870  0.98385  1.0000
  H   H148      1.0  0.44965  0.98406  0.94229  1.0000
  C   C191      1.0  0.19314  0.23591  0.73379  1.0000
  C   C192      1.0  0.00625  0.21729  0.87220  1.0000
  H   H149      1.0  0.16471  0.21030  0.74883  1.0000
  H   H150      1.0  0.04606  0.39759  0.80759  1.0000
  H   H151      1.0  0.00071  0.24757  0.68408  1.0000
  C   C193      1.0  0.05544  0.25329  0.71838  1.0000
  C   C194      1.0  0.97943  0.45273  0.99800  1.0000
  C   C195      1.0  0.32775  0.09860  0.91812  1.0000
  H   H152      1.0  0.09260  0.36889  0.67345  1.0000
  H   H153      1.0  0.30292  0.28337  0.73613  1.0000
  H   H154      1.0  0.24981  0.01360  0.86331  1.0000
  C   C196      1.0  0.43865  0.43630  0.98297  1.0000
  S   S31       1.0  0.19828  0.25010  0.95985  1.0000
  C   C197      1.0  0.20635  0.36580  0.98225  1.0000
  C   C198      1.0  0.40310  0.28034  0.71385  1.0000
  C   C199      1.0  0.25671  0.07648  0.86607  1.0000
  S   S32       1.0  0.31835  0.28471  0.99311  1.0000
  C   C200      1.0  0.08223  0.43449  0.93439  1.0000
  H   H155      1.0  0.27231  0.14228  0.87278  1.0000
  H   H156      1.0  0.35529  0.10788  0.93836  1.0000
  H   H157      1.0  0.32413  0.04369  0.82306  1.0000
  H   H158      1.0  0.99275  0.43264  0.98919  1.0000
  C   C201      1.0  0.30435  0.05677  0.90176  1.0000
  H   H159      1.0  0.36054  0.03649  0.76205  1.0000
  H   H160      1.0  0.22972  0.06822  0.84534  1.0000
  C   C202      1.0  0.03396  0.36910  0.89700  1.0000
  C   C203      1.0  0.34769  0.01275  0.86551  1.0000
  C   C204      1.0  0.34335  0.02833  0.82678  1.0000
  C   C205      1.0  0.16975  0.34116  0.69063  1.0000
  C   C206      1.0  0.97392  0.19705  0.90218  1.0000
  C   C207      1.0  0.03197  0.38119  0.74346  1.0000
  H   H161      1.0  0.23068  0.39962  0.98142  1.0000
  C   C208      1.0  0.37370  0.99364  0.86852  1.0000
  C   C209      1.0  0.01701  0.25441  0.71393  1.0000
  H   H162      1.0  0.28955  0.38918  0.68574  1.0000
  H   H163      1.0  0.02027  0.26898  0.98089  1.0000
  H   H164      1.0  0.06901  0.24578  0.69177  1.0000
  P   P8        1.0  0.32116  0.01773  0.91137  1.0000
  C   C210      1.0  0.99931  0.26404  0.74805  1.0000
  C   C211      1.0  0.35828  0.03421  0.95476  1.0000
  C   C212      1.0  0.26675  0.30077  0.69410  1.0000
  C   C213      1.0  0.34272  0.02137  0.99523  1.0000
  H   H165      1.0  0.08019  0.20497  0.87819  1.0000
  H   H166      1.0  0.00615  0.28080  0.81255  1.0000
  H   H167      1.0  0.06551  0.40026  0.73400  1.0000
  H   H168      1.0  0.13247  0.35800  0.73110  1.0000
  H   H169      1.0  0.07744  0.30491  0.92869  1.0000
  C   C214      1.0  0.04877  0.27508  0.92051  1.0000
  C   C215      1.0  0.99973  0.35969  0.71362  1.0000
  C   C216      1.0  0.02025  0.27310  0.78653  1.0000
  C   C217      1.0  0.40477  0.30030  0.75157  1.0000
  H   H170      1.0  0.15646  0.25137  0.69146  1.0000
  C   C218      1.0  0.36428  0.02447  0.79180  1.0000
  C   C219      1.0  0.18867  0.25949  0.70158  1.0000
  C   C220      1.0  0.01639  0.25470  0.95040  1.0000
  C   C221      1.0  0.13902  0.35342  0.69931  1.0000
  H   H171      1.0  0.40595  0.46014  0.91189  1.0000
  H   H172      1.0  0.25641  0.12532  0.98301  1.0000
  C   C222      1.0  0.13267  0.30963  0.99551  1.0000
  C   C223      1.0  0.16379  0.35334  0.99431  1.0000
  H   H173      1.0  0.24155  0.99530  0.95683  1.0000
  C   C224      1.0  0.40675  0.34016  0.75212  1.0000
  H   H174      1.0  0.37490  0.43922  0.84135  1.0000
  C   C225      1.0  0.97727  0.35511  0.79769  1.0000
  C   C226      1.0  0.97898  0.21579  0.94123  1.0000
  H   H175      1.0  0.29555  0.32424  0.67797  1.0000
  C   C227      1.0  0.22545  0.29268  0.68198  1.0000
  H   H176      1.0  0.06394  0.14679  0.99060  1.0000
  H   H177      1.0  0.96629  0.46340  0.93518  1.0000
  H   H178      1.0  0.40595  0.00221  0.76790  1.0000
  C   C228      1.0  0.05968  0.45403  0.91884  1.0000
  C   C229      1.0  0.39471  0.98997  0.83349  1.0000
  H   H179      1.0  0.40822  0.39093  0.71525  1.0000
  H   H180      1.0  0.11905  0.24517  0.98331  1.0000
  H   H181      1.0  0.21052  0.04745  0.99890  1.0000
  H   H182      1.0  0.10931  0.45185  0.95547  1.0000
  H   H183      1.0  0.42181  0.15442  0.67204  1.0000
  H   H184      1.0  0.18262  0.46374  0.87174  1.0000
  H   H185      1.0  0.96908  0.26414  0.74459  1.0000
  C   C230      1.0  0.40371  0.30029  0.67615  1.0000
  C   C231      1.0  0.40493  0.34011  0.67701  1.0000
  H   H186      1.0  0.30833  0.00302  0.00134  1.0000
  C   C232      1.0  0.43058  0.96822  0.04635  1.0000
  H   H187      1.0  0.31404  0.94892  0.24179  1.0000
  S   S33       1.0  0.26950  0.91406  0.03236  1.0000
  Fe  Fe17      1.0  0.24058  0.88723  0.15006  1.0000
  S   S34       1.0  0.26877  0.85587  0.11066  1.0000
  S   S35       1.0  0.22914  0.87000  0.21930  1.0000
  Fe  Fe18      1.0  0.31484  0.92175  0.08462  1.0000
  S   S36       1.0  0.38883  0.94942  0.08483  1.0000
  Fe  Fe19      1.0  0.22084  0.85134  0.06223  1.0000
  C   C233      1.0  0.41731  0.54695  0.21764  1.0000
  S   S37       1.0  0.28969  0.95402  0.12755  1.0000
  S   S38       1.0  0.19084  0.87986  0.10294  1.0000
  P   P9        1.0  0.43767  0.83089  0.07244  1.0000
  C   C234      1.0  0.18263  0.82538  0.24209  1.0000
  C   C235      1.0  0.14420  0.80038  0.21987  1.0000
  C   C236      1.0  0.10739  0.76702  0.23989  1.0000
  C   C237      1.0  0.10864  0.75748  0.28211  1.0000
  C   C238      1.0  0.14745  0.78160  0.30384  1.0000
  C   C239      1.0  0.18391  0.81565  0.28418  1.0000
  H   H188      1.0  0.14264  0.80723  0.18746  1.0000
  H   H189      1.0  0.07782  0.74875  0.22249  1.0000
  C   C240      1.0  0.31956  0.53222  0.24161  1.0000
  H   H190      1.0  0.21328  0.83444  0.30177  1.0000
  H   H191      1.0  0.27740  0.73819  0.06875  1.0000
  C   C241      1.0  0.99007  0.61467  0.24435  1.0000
  H   H192      1.0  0.29873  0.48180  0.14893  1.0000
  C   C242      1.0  0.00437  0.73133  0.08034  1.0000
  H   H193      1.0  0.99309  0.75074  0.06503  1.0000
  P   P10       1.0  0.37933  0.52876  0.29599  1.0000
  C   C243      1.0  0.44412  0.70691  0.09410  1.0000
  C   C244      1.0  0.29859  0.79991  0.04054  1.0000
  H   H194      1.0  0.41437  0.88990  0.11331  1.0000
  C   C245      1.0  0.45632  0.86269  0.11938  1.0000
  Fe  Fe20      1.0  0.24254  0.94339  0.07645  1.0000
  C   C246      1.0  0.44014  0.78219  0.08028  1.0000
  H   H195      1.0  0.38802  0.51862  0.20725  1.0000
  H   H196      1.0  0.39715  0.48001  0.04962  1.0000
  H   H197      1.0  0.44591  0.67802  0.09943  1.0000
  C   C247      1.0  0.45427  0.91380  0.16741  1.0000
  C   C248      1.0  0.98317  0.68696  0.07335  1.0000
  S   S39       1.0  0.17877  0.78768  0.02878  1.0000
  C   C249      1.0  0.17509  0.92873  0.29515  1.0000
  H   H198      1.0  0.26601  0.79302  0.03318  1.0000
  H   H199      1.0  0.03912  0.67300  0.21649  1.0000
  H   H200      1.0  0.35125  0.75377  0.08609  1.0000
  C   C250      1.0  0.30507  0.76907  0.06067  1.0000
  C   C251      1.0  0.12489  0.77123  0.01288  1.0000
  H   H201      1.0  0.34689  0.55835  0.22594  1.0000
  C   C252      1.0  0.34710  0.77813  0.07051  1.0000
  H   H202      1.0  0.44723  0.55948  0.15711  1.0000
  C   C253      1.0  0.05980  0.59482  0.02442  1.0000
  C   C254      1.0  0.99434  0.57338  0.17251  1.0000
  C   C255      1.0  0.02225  0.61801  0.17702  1.0000
  C   C256      1.0  0.01894  0.63854  0.21272  1.0000
  P   P11       1.0  0.05872  0.64972  0.13585  1.0000
  C   C257      1.0  0.11371  0.68521  0.15279  1.0000
  C   C258      1.0  0.06259  0.61588  0.09653  1.0000
  C   C259      1.0  0.05776  0.62204  0.05423  1.0000
  C   C260      1.0  0.33411  0.83991  0.03032  1.0000
  H   H203      1.0  0.12859  0.83180  0.02588  1.0000
  C   C261      1.0  0.07413  0.55665  0.07831  1.0000
  C   C262      1.0  0.07200  0.58373  0.10821  1.0000
  C   C263      1.0  0.14429  0.71235  0.12345  1.0000
  C   C264      1.0  0.18624  0.74270  0.13579  1.0000
  C   C265      1.0  0.19805  0.74644  0.17756  1.0000
  C   C266      1.0  0.16818  0.71877  0.20684  1.0000
  C   C267      1.0  0.12624  0.68787  0.19451  1.0000
  C   C268      1.0  0.03704  0.68169  0.11499  1.0000
  C   C269      1.0  0.05757  0.72620  0.12277  1.0000
  H   H204      1.0  0.20485  0.93961  0.23477  1.0000
  H   H205      1.0  0.05837  0.78549  0.10982  1.0000
  C   C270      1.0  0.04135  0.75091  0.10528  1.0000
  C   C271      1.0  0.99910  0.66208  0.09098  1.0000
  C   C272      1.0  0.10094  0.86378  0.25613  1.0000
  C   C273      1.0  0.10847  0.79937  0.01434  1.0000
  C   C274      1.0  0.06772  0.56199  0.03648  1.0000
  H   H206      1.0  0.99461  0.55669  0.14469  1.0000
  H   H207      1.0  0.41779  0.70584  0.15438  1.0000
  H   H208      1.0  0.05249  0.64772  0.04395  1.0000
  C   C275      1.0  0.38299  0.81824  0.06017  1.0000
  H   H209      1.0  0.41365  0.77167  0.14237  1.0000
  C   C276      1.0  0.42186  0.56029  0.25921  1.0000
  H   H210      1.0  0.07691  0.57905  0.14053  1.0000
  H   H211      1.0  0.13538  0.71095  0.09105  1.0000
  H   H212      1.0  0.20916  0.76387  0.11284  1.0000
  H   H213      1.0  0.23013  0.77117  0.18728  1.0000
  H   H214      1.0  0.17713  0.72198  0.23931  1.0000
  H   H215      1.0  0.10388  0.66694  0.21784  1.0000
  H   H216      1.0  0.08660  0.74223  0.14154  1.0000
  H   H217      1.0  0.98879  0.63076  0.27235  1.0000
  C   C277      1.0  0.42604  0.75992  0.11808  1.0000
  H   H218      1.0  0.44098  0.93401  0.17620  1.0000
  H   H219      1.0  0.13935  0.88285  0.20035  1.0000
  C   C278      1.0  0.17544  0.92149  0.25260  1.0000
  C   C279      1.0  0.13835  0.88928  0.23305  1.0000
  H   H220      1.0  0.07972  0.53077  0.08762  1.0000
  C   C280      1.0  0.42822  0.72256  0.12499  1.0000
  C   C281      1.0  0.96528  0.54958  0.20412  1.0000
  H   H221      1.0  0.12299  0.96537  0.17659  1.0000
  C   C282      1.0  0.13712  0.90432  0.31829  1.0000
  H   H222      1.0  0.18492  0.97333  0.13500  1.0000
  H   H223      1.0  0.07290  0.83739  0.24134  1.0000
  C   C283      1.0  0.45083  0.56978  0.18926  1.0000
  C   C284      1.0  0.38630  0.48332  0.30688  1.0000
  C   C285      1.0  0.27770  0.51885  0.22696  1.0000
  H   H224      1.0  0.99960  0.71641  0.22132  1.0000
  H   H225      1.0  0.26713  0.91415  0.31335  1.0000
  H   H226      1.0  0.06826  0.54021  0.01353  1.0000
  S   S40       1.0  0.06125  0.71511  0.30623  1.0000
  H   H227      1.0  0.98277  0.62785  0.08457  1.0000
  H   H228      1.0  0.40318  0.88029  0.03196  1.0000
  H   H229      1.0  0.40355  0.61850  0.31349  1.0000
  C   C286      1.0  0.32565  0.51208  0.27629  1.0000
  C   C287      1.0  0.43919  0.88866  0.13153  1.0000
  C   C288      1.0  0.42396  0.49011  0.32735  1.0000
  H   H230      1.0  0.27306  0.53410  0.19996  1.0000
  H   H231      1.0  0.35990  0.49113  0.10508  1.0000
  H   H232      1.0  0.20453  0.95282  0.31014  1.0000
  C   C289      1.0  0.37610  0.84898  0.03991  1.0000
  H   H233      1.0  0.07156  0.84969  0.31616  1.0000
  H   H234      1.0  0.22655  0.73150  0.32474  1.0000
  C   C290      1.0  0.42118  0.47723  0.03182  1.0000
  C   C291      1.0  0.10035  0.87099  0.29866  1.0000
  H   H235      1.0  0.32916  0.86422  0.01542  1.0000
  H   H236      1.0  0.20918  0.47516  0.23574  1.0000
  C   C292      1.0  0.42221  0.96817  0.00390  1.0000
  C   C293      1.0  0.46126  0.59573  0.27230  1.0000
  C   C294      1.0  0.24166  0.48593  0.24724  1.0000
  C   C295      1.0  0.28912  0.48053  0.29763  1.0000
  H   H237      1.0  0.29514  0.79970  0.33576  1.0000
  C   C296      1.0  0.45592  0.76610  0.04933  1.0000
  C   C297      1.0  0.45793  0.72866  0.05634  1.0000
  C   C298      1.0  0.96453  0.69870  0.22262  1.0000
  H   H238      1.0  0.14929  0.77385  0.33582  1.0000
  C   C299      1.0  0.23527  0.74529  0.35555  1.0000
  Fe  Fe21      1.0  0.08602  0.71579  0.46444  1.0000
  S   S41       1.0  0.05458  0.74334  0.42427  1.0000
  S   S42       1.0  0.14740  0.75752  0.50191  1.0000
  Fe  Fe22      1.0  0.02010  0.62203  0.44070  1.0000
  S   S43       1.0  0.98440  0.64396  0.39789  1.0000
  S   S44       1.0  0.99893  0.54968  0.44425  1.0000
  Fe  Fe23      1.0  0.05027  0.69652  0.37568  1.0000
  Fe  Fe24      1.0  0.99175  0.68930  0.44946  1.0000
  S   S45       1.0  0.08545  0.67136  0.41452  1.0000
  S   S46       1.0  0.02366  0.66490  0.49332  1.0000
  C   C300      1.0  0.06981  0.85049  0.42223  1.0000
  P   P12       1.0  0.13777  0.91232  0.37359  1.0000
  H   H239      1.0  0.12742  0.82644  0.37168  1.0000
  H   H240      1.0  0.44780  0.52202  0.33781  1.0000
  C   C301      1.0  0.37404  0.55674  0.41800  1.0000
  C   C302      1.0  0.38427  0.55743  0.34347  1.0000
  H   H241      1.0  0.24934  0.90274  0.55486  1.0000
  C   C303      1.0  0.28493  0.80277  0.40160  1.0000
  C   C304      1.0  0.05688  0.63049  0.58828  1.0000
  C   C305      1.0  0.18001  0.82971  0.40699  1.0000
  H   H242      1.0  0.22099  0.95147  0.42041  1.0000
  C   C306      1.0  0.23209  0.89975  0.43406  1.0000
  C   C307      1.0  0.19187  0.89960  0.52977  1.0000
  C   C308      1.0  0.15138  0.87267  0.51134  1.0000
  C   C309      1.0  0.13693  0.82885  0.50402  1.0000
  C   C310      1.0  0.16335  0.81169  0.51399  1.0000
  C   C311      1.0  0.20390  0.83853  0.53262  1.0000
  C   C312      1.0  0.21814  0.88234  0.54052  1.0000
  H   H243      1.0  0.13109  0.88583  0.50265  1.0000
  H   H244      1.0  0.10538  0.80826  0.49059  1.0000
  H   H245      1.0  0.22453  0.82549  0.54058  1.0000
  H   H246      1.0  0.11052  0.68961  0.56528  1.0000
  C   C313      1.0  0.20749  0.72454  0.38881  1.0000
  H   H247      1.0  0.08057  0.73466  0.58766  1.0000
  H   H248      1.0  0.09246  0.84183  0.43466  1.0000
  C   C314      1.0  0.08005  0.83728  0.59134  1.0000
  C   C315      1.0  0.07982  0.67497  0.58157  1.0000
  H   H249      1.0  0.06979  0.61067  0.57715  1.0000
  H   H250      1.0  0.11224  0.86360  0.59867  1.0000
  C   C316      1.0  0.15675  0.84731  0.38888  1.0000
  H   H251      1.0  0.38863  0.61731  0.44555  1.0000
  H   H252      1.0  0.36443  0.53916  0.44702  1.0000
  C   C317      1.0  0.28891  0.92088  0.33942  1.0000
  H   H253      1.0  0.28052  0.85774  0.33918  1.0000
  H   H254      1.0  0.23405  0.84168  0.44516  1.0000
  H   H255      1.0  0.16821  0.79543  0.40496  1.0000
  C   C318      1.0  0.39185  0.86598  0.52161  1.0000
  C   C319      1.0  0.32410  0.89652  0.38853  1.0000
  C   C320      1.0  0.21745  0.85588  0.42967  1.0000
  H   H256      1.0  0.96940  0.62216  0.63832  1.0000
  C   C321      1.0  0.00952  0.87200  0.39228  1.0000
  C   C322      1.0  0.38730  0.60060  0.41709  1.0000
  C   C323      1.0  0.05552  0.84258  0.56050  1.0000
  C   C324      1.0  0.33699  0.96984  0.39179  1.0000
  H   H257      1.0  0.37969  0.88740  0.57985  1.0000
  H   H258      1.0  0.96631  0.74292  0.56172  1.0000
  C   C325      1.0  0.41585  0.81895  0.35770  1.0000
  C   C326      1.0  0.02235  0.68175  0.61472  1.0000
  C   C327      1.0  0.05262  0.89500  0.37886  1.0000
  C   C328      1.0  0.20882  0.91745  0.41628  1.0000
  H   H259      1.0  0.06847  0.87308  0.54441  1.0000
  H   H260      1.0  0.35426  0.78732  0.38842  1.0000
  C   C329      1.0  0.99796  0.76897  0.57071  1.0000
  H   H261      1.0  0.06219  0.92104  0.35686  1.0000
  P   P13       1.0  0.99913  0.71398  0.63150  1.0000
  P   P14       1.0  0.33343  0.85466  0.40887  1.0000
  H   H262      1.0  0.40826  0.65669  0.37870  1.0000
  C   C330      1.0  0.34760  0.86413  0.46334  1.0000
  C   C331      1.0  0.32562  0.87781  0.48991  1.0000
  H   H263      1.0  0.08269  0.79447  0.63625  1.0000
  C   C332      1.0  0.97623  0.51481  0.52467  1.0000
  C   C333      1.0  0.45025  0.85809  0.34378  1.0000
  C   C334      1.0  0.38089  0.85831  0.47960  1.0000
  C   C335      1.0  0.02195  0.76366  0.60242  1.0000
  C   C336      1.0  0.15893  0.96821  0.38724  1.0000
  C   C337      1.0  0.98131  0.50806  0.48276  1.0000
  C   C338      1.0  0.21863  0.74228  0.42854  1.0000
  C   C339      1.0  0.25727  0.78107  0.43504  1.0000
  C   C340      1.0  0.41253  0.89476  0.36700  1.0000
  C   C341      1.0  0.34471  0.93766  0.40669  1.0000
  C   C342      1.0  0.33702  0.88591  0.53178  1.0000
  S   S47       1.0  0.20789  0.95436  0.53868  1.0000
  C   C343      1.0  0.01461  0.80838  0.55010  1.0000
  C   C344      1.0  0.08296  0.88396  0.39328  1.0000
  C   C345      1.0  0.39843  0.62279  0.37940  1.0000
  C   C346      1.0  0.37287  0.53526  0.38145  1.0000
  C   C347      1.0  0.06257  0.70054  0.59442  1.0000
  H   H264      1.0  0.01643  0.80034  0.45638  1.0000
  C   C348      1.0  0.30893  0.96138  0.35828  1.0000
  H   H265      1.0  0.30020  0.88299  0.47831  1.0000
  H   H266      1.0  0.26064  0.91985  0.45251  1.0000
  H   H267      1.0  0.32084  0.89765  0.55187  1.0000
  C   C349      1.0  0.06333  0.79802  0.61234  1.0000
  H   H268      1.0  0.39926  0.84883  0.45997  1.0000
  C   C350      1.0  0.01705  0.61160  0.60875  1.0000
  H   H269      1.0  0.17727  0.69470  0.38387  1.0000
  H   H270      1.0  0.41285  0.92473  0.37197  1.0000
  H   H271      1.0  0.19694  0.72622  0.45435  1.0000
  H   H272      1.0  0.26475  0.79417  0.46612  1.0000
  C   C351      1.0  0.37009  0.87996  0.54764  1.0000
  H   H273      1.0  0.98402  0.54657  0.53489  1.0000
  H   H274      1.0  0.41833  0.86253  0.53368  1.0000
  C   C352      1.0  0.17016  0.89104  0.39460  1.0000
  C   C353      1.0  0.37765  0.85553  0.38073  1.0000
  C   C354      1.0  0.02666  0.82719  0.43515  1.0000
  C   C355      1.0  0.99647  0.83783  0.42014  1.0000
  H   H275      1.0  0.36237  0.50119  0.38296  1.0000
  C   C356      1.0  0.37981  0.81765  0.37638  1.0000
  H   H276      1.0  0.36654  0.94487  0.43261  1.0000
  H   H277      1.0  0.16023  0.95719  0.45328  1.0000
  H   H278      1.0  0.43449  0.55673  0.47741  1.0000
  C   C357      1.0  0.27402  0.78401  0.36193  1.0000
  C   C358      1.0  0.29655  0.88865  0.35436  1.0000
  H   H279      1.0  0.99921  0.57709  0.61382  1.0000
  C   C359      1.0  0.44852  0.89592  0.34840  1.0000
  H   H280      1.0  0.99562  0.81218  0.52598  1.0000
  H   H281      1.0  0.41774  0.78986  0.35501  1.0000
  H   H282      1.0  0.98609  0.88034  0.38083  1.0000
  C   C360      1.0  0.39619  0.60115  0.34258  1.0000
  C   C361      1.0  0.00006  0.63716  0.62221  1.0000
  C   C362      1.0  0.09821  0.72921  0.99763  1.0000
  C   C363      1.0  0.42321  0.48030  0.88559  1.0000
  C   C364      1.0  0.06612  0.78582  0.00015  1.0000
  C   C365      1.0  0.27044  0.92754  0.91138  1.0000
  C   C366      1.0  0.20330  0.92637  0.95710  1.0000
  C   C367      1.0  0.01093  0.76290  0.70275  1.0000
  H   H283      1.0  0.03527  0.68291  0.97268  1.0000
  H   H284      1.0  0.17278  0.85715  0.95409  1.0000
  H   H285      1.0  0.01435  0.66961  0.70100  1.0000
  H   H286      1.0  0.02356  0.68410  0.77608  1.0000
  C   C368      1.0  0.27334  0.96665  0.92305  1.0000
  C   C369      1.0  0.23955  0.96569  0.94625  1.0000
  C   C370      1.0  0.01502  0.69810  0.71281  1.0000
  C   C371      1.0  0.02094  0.74258  0.77177  1.0000
  S   S48       1.0  0.98567  0.72811  0.96894  1.0000
  C   C372      1.0  0.23407  0.88825  0.92225  1.0000
  H   H287      1.0  0.11069  0.70729  0.99615  1.0000
  H   H288      1.0  0.29614  0.92705  0.89419  1.0000
  H   H289      1.0  0.23209  0.85814  0.91359  1.0000
  H   H290      1.0  0.17789  0.92601  0.97581  1.0000
  H   H291      1.0  0.97282  0.59693  0.74977  1.0000
  H   H292      1.0  0.02465  0.74857  0.80491  1.0000
  C   C373      1.0  0.20051  0.88765  0.94506  1.0000
  C   C374      1.0  0.42780  0.49472  0.81192  1.0000
  C   C375      1.0  0.01034  0.72642  0.68605  1.0000
  H   H293      1.0  0.97104  0.53274  0.71866  1.0000
  C   C376      1.0  0.03931  0.74373  0.98512  1.0000
  H   H294      1.0  0.41392  0.48596  0.78113  1.0000
  C   C377      1.0  0.05551  0.71536  0.98413  1.0000
  C   C378      1.0  0.02032  0.70620  0.75547  1.0000
  H   H295      1.0  0.06929  0.48675  0.92782  1.0000
  H   H296      1.0  0.01661  0.79904  0.75811  1.0000
  C   C379      1.0  0.45856  0.84782  0.98874  1.0000
  H   H297      1.0  0.05479  0.59894  0.99196  1.0000
  H   H298      1.0  0.00647  0.78477  0.68293  1.0000
  H   H299      1.0  0.42865  0.81805  0.98275  1.0000
  C   C380      1.0  0.01639  0.77098  0.74540  1.0000
  H   H300      1.0  0.05394  0.80800  0.00111  1.0000
  H   H301      1.0  0.38937  0.95660  0.99339  1.0000
  C   C381      1.0  0.46314  0.51781  0.89156  1.0000
  C   C382      1.0  0.50804  0.99923  0.03015  1.0000
  H   H302      1.0  0.81587  0.05852  0.07584  1.0000
  H   H303      1.0  0.89528  0.26092  0.22640  1.0000
  H   H304      1.0  0.92037  0.36080  0.07853  1.0000
  H   H305      1.0  0.53318  0.43283  0.21192  1.0000
  C   C383      1.0  0.79435  0.02766  0.09016  1.0000
  H   H306      1.0  0.68389  0.19582  0.07585  1.0000
  C   C384      1.0  0.50683  0.43956  0.21414  1.0000
  C   C385      1.0  0.87570  0.23426  0.05476  1.0000
  C   C386      1.0  0.89297  0.34866  0.05752  1.0000
  H   H307      1.0  0.81706  0.04993  0.15211  1.0000
  S   S49       1.0  0.95183  0.23181  0.04720  1.0000
  C   C387      1.0  0.92622  0.26920  0.28592  1.0000
  C   C388      1.0  0.46607  0.41035  0.19790  1.0000
  H   H308      1.0  0.85643  0.36700  0.09698  1.0000
  H   H309      1.0  0.90087  0.27129  0.30238  1.0000
  H   H310      1.0  0.76672  0.98054  0.18512  1.0000
  H   H311      1.0  0.95314  0.25681  0.18766  1.0000
  C   C389      1.0  0.95528  0.26065  0.22109  1.0000
  H   H312      1.0  0.81606  0.23585  0.05824  1.0000
  H   H313      1.0  0.89450  0.26415  0.07149  1.0000
  C   C390      1.0  0.89560  0.21155  0.04076  1.0000
  C   C391      1.0  0.72356  0.24205  0.02948  1.0000
  C   C392      1.0  0.76554  0.99285  0.06567  1.0000
  H   H314      1.0  0.62327  0.15247  0.02750  1.0000
  C   C393      1.0  0.79489  0.02280  0.13315  1.0000
  H   H315      1.0  0.54094  0.01126  0.04069  1.0000
  C   C394      1.0  0.83125  0.21810  0.04730  1.0000
  S   S50       1.0  0.75067  0.16012  0.01707  1.0000
  C   C395      1.0  0.65183  0.18128  0.01659  1.0000
  C   C396      1.0  0.87061  0.17231  0.01979  1.0000
  C   C397      1.0  0.80638  0.17919  0.02577  1.0000
  C   C398      1.0  0.92283  0.26318  0.24292  1.0000
  C   C399      1.0  0.85674  0.35187  0.06803  1.0000
  C   C400      1.0  0.68589  0.20587  0.04386  1.0000
  H   H316      1.0  0.79366  0.33930  0.04933  1.0000
  C   C401      1.0  0.96222  0.27283  0.30743  1.0000
  C   C402      1.0  0.76624  0.98330  0.15174  1.0000
  C   C403      1.0  0.82125  0.33594  0.04110  1.0000
  C   C404      1.0  0.47371  0.98362  0.05913  1.0000
  H   H317      1.0  0.76453  0.99664  0.03235  1.0000
  H   H318      1.0  0.75004  0.25900  0.05094  1.0000
  C   C405      1.0  0.82625  0.15629  0.01210  1.0000
  H   H319      1.0  0.88564  0.15431  0.00916  1.0000
  C   C406      1.0  0.89392  0.32983  0.01997  1.0000
  H   H320      1.0  0.48075  0.98373  0.09177  1.0000
  H   H321      1.0  0.92214  0.32743  0.01219  1.0000
  C   C407      1.0  0.82164  0.31636  0.00349  1.0000
  S   S51       1.0  0.71255  0.99484  0.45572  1.0000
  Fe  Fe25      1.0  0.84360  0.23007  0.55260  1.0000
  S   S52       1.0  0.87796  0.20289  0.58842  1.0000
  S   S53       1.0  0.77823  0.18598  0.52191  1.0000
  C   C408      1.0  0.83378  0.37627  0.63327  1.0000
  H   H322      1.0  0.96020  0.41401  0.33874  1.0000
  Fe  Fe26      1.0  0.88359  0.24783  0.63952  1.0000
  C   C409      1.0  0.69637  0.13906  0.64161  1.0000
  S   S54       1.0  0.84630  0.27332  0.60493  1.0000
  H   H323      1.0  0.57057  0.21171  0.55774  1.0000
  C   C410      1.0  0.87663  0.15486  0.43312  1.0000
  C   C411      1.0  0.84719  0.41949  0.62524  1.0000
  C   C412      1.0  0.72894  0.04670  0.47681  1.0000
  C   C413      1.0  0.77116  0.07151  0.49285  1.0000
  C   C414      1.0  0.78626  0.11361  0.50800  1.0000
  C   C415      1.0  0.75943  0.13168  0.50670  1.0000
  C   C416      1.0  0.71682  0.10647  0.49165  1.0000
  C   C417      1.0  0.70158  0.06418  0.47694  1.0000
  H   H324      1.0  0.79248  0.05821  0.49314  1.0000
  H   H325      1.0  0.81897  0.13245  0.51972  1.0000
  H   H326      1.0  0.69568  0.11997  0.49065  1.0000
  H   H327      1.0  0.66913  0.04562  0.46452  1.0000
  H   H328      1.0  0.67855  0.27403  0.63609  1.0000
  Fe  Fe27      1.0  0.93933  0.25781  0.56213  1.0000
  C   C418      1.0  0.93189  0.23089  0.38980  1.0000
  S   S55       1.0  0.93098  0.39607  0.57860  1.0000
  C   C419      1.0  0.47559  0.20149  0.63593  1.0000
  C   C420      1.0  0.57400  0.12183  0.66515  1.0000
  H   H329      1.0  0.49344  0.18443  0.63797  1.0000
  C   C421      1.0  0.72214  0.00562  0.62733  1.0000
  H   H330      1.0  0.85157  0.36193  0.62020  1.0000
  H   H331      1.0  0.48087  0.09033  0.61043  1.0000
  C   C422      1.0  0.70669  0.25273  0.58940  1.0000
  S   S56       1.0  0.90438  0.28216  0.52178  1.0000
  C   C423      1.0  0.67340  0.09929  0.66163  1.0000
  H   H332      1.0  0.51806  0.22446  0.51943  1.0000
  P   P15       1.0  0.75739  0.05297  0.65741  1.0000
  H   H333      1.0  0.71613  0.04221  0.57670  1.0000
  C   C424      1.0  0.69930  0.22025  0.56114  1.0000
  C   C425      1.0  0.89622  0.19670  0.36975  1.0000
  C   C426      1.0  0.54744  0.11549  0.63055  1.0000
  C   C427      1.0  0.70697  0.01048  0.58863  1.0000
  C   C428      1.0  0.62412  0.17895  0.58325  1.0000
  C   C429      1.0  0.65823  0.18359  0.55789  1.0000
  P   P16       1.0  0.57085  0.13162  0.57931  1.0000
  C   C430      1.0  0.57678  0.08871  0.55667  1.0000
  C   C431      1.0  0.82065  0.06918  0.59742  1.0000
  C   C432      1.0  0.93961  0.22653  0.43181  1.0000
  H   H334      1.0  0.50174  0.41024  0.55943  1.0000
  C   C433      1.0  0.86873  0.15887  0.39140  1.0000
  C   C434      1.0  0.92228  0.31343  0.40877  1.0000
  C   C435      1.0  0.49252  0.24011  0.61388  1.0000
  C   C436      1.0  0.57597  0.08383  0.51338  1.0000
  C   C437      1.0  0.58339  0.05251  0.49571  1.0000
  C   C438      1.0  0.59236  0.02633  0.52100  1.0000
  C   C439      1.0  0.59336  0.03099  0.56405  1.0000
  C   C440      1.0  0.58541  0.06191  0.58187  1.0000
  C   C441      1.0  0.53545  0.14261  0.54785  1.0000
  C   C442      1.0  0.88839  0.13115  0.64594  1.0000
  C   C443      1.0  0.73797  0.15289  0.62657  1.0000
  Fe  Fe28      1.0  0.91027  0.32369  0.57686  1.0000
  H   H335      1.0  0.84093  0.13272  0.37602  1.0000
  C   C444      1.0  0.94930  0.31955  0.37475  1.0000
  C   C445      1.0  0.47583  0.15766  0.50462  1.0000
  H   H336      1.0  0.75548  0.18327  0.61022  1.0000
  H   H337      1.0  0.91125  0.28571  0.42877  1.0000
  C   C446      1.0  0.51283  0.19210  0.52221  1.0000
  H   H338      1.0  0.65364  0.15896  0.53575  1.0000
  C   C447      1.0  0.73458  0.08782  0.65302  1.0000
  H   H339      1.0  0.81456  0.44576  0.55358  1.0000
  H   H340      1.0  0.91262  0.40275  0.39910  1.0000
  C   C448      1.0  0.86312  0.09009  0.58230  1.0000
  C   C449      1.0  0.92261  0.37945  0.39210  1.0000
  H   H341      1.0  0.56997  0.10436  0.49314  1.0000
  C   C450      1.0  0.82433  0.43846  0.64195  1.0000
  H   H342      1.0  0.59785  0.00198  0.50715  1.0000
  H   H343      1.0  0.86965  0.08277  0.55147  1.0000
  H   H344      1.0  0.58619  0.06484  0.61521  1.0000
  H   H345      1.0  0.73864  0.28108  0.59163  1.0000
  H   H346      1.0  0.68205  0.15918  0.63744  1.0000
  H   H347      1.0  0.78921  0.13881  0.61997  1.0000
  H   H348      1.0  0.88914  0.19910  0.33760  1.0000
  H   H349      1.0  0.84191  0.46412  0.48182  1.0000
  C   C451      1.0  0.50246  0.09623  0.63629  1.0000
  C   C452      1.0  0.75715  0.12753  0.63235  1.0000
  C   C453      1.0  0.49856  0.10839  0.52943  1.0000
  H   H350      1.0  0.88844  0.33851  0.44389  1.0000
  H   H351      1.0  0.60004  0.01038  0.58353  1.0000
  C   C454      1.0  0.63168  0.21202  0.61126  1.0000
  C   C455      1.0  0.54254  0.18467  0.54387  1.0000
  C   C456      1.0  0.90902  0.34328  0.41736  1.0000
  H   H352      1.0  0.72550  0.22341  0.54162  1.0000
  C   C457      1.0  0.96256  0.35585  0.34931  1.0000
  C   C458      1.0  0.67286  0.24867  0.61440  1.0000
  H   H353      1.0  0.58188  0.04816  0.46236  1.0000
  H   H354      1.0  0.60571  0.20943  0.63067  1.0000
  S   S57       1.0  0.94808  0.30120  0.61580  1.0000
  H   H355      1.0  0.87545  0.43796  0.60590  1.0000
  H   H356      1.0  0.91781  0.18569  0.48582  1.0000
  C   C459      1.0  0.94941  0.38576  0.35812  1.0000
  H   H357      1.0  0.85510  0.12566  0.44988  1.0000
  H   H358      1.0  0.60866  0.13632  0.66162  1.0000
  H   H359      1.0  0.52378  0.25328  0.59897  1.0000
  C   C460      1.0  0.79765  0.35154  0.65811  1.0000
  C   C461      1.0  0.91200  0.18865  0.45331  1.0000
  C   C462      1.0  0.81181  0.07928  0.63696  1.0000
  C   C463      1.0  0.95075  0.43858  0.54087  1.0000
  H   H360      1.0  0.79500  0.04559  0.57794  1.0000
  H   H361      1.0  0.47521  0.35812  0.61728  1.0000
  C   C464      1.0  0.95668  0.43208  0.49916  1.0000
  H   H362      1.0  0.48294  0.29150  0.59364  1.0000
  C   C465      1.0  0.89701  0.12096  0.60656  1.0000
  H   H363      1.0  0.92972  0.13794  0.59433  1.0000
  C   C466      1.0  0.47184  0.37965  0.55607  1.0000
  H   H364      1.0  0.49217  0.07571  0.53263  1.0000
  C   C467      1.0  0.78773  0.41315  0.66669  1.0000
  C   C468      1.0  0.46908  0.26176  0.61094  1.0000
  C   C469      1.0  0.84593  0.11067  0.66097  1.0000
  H   H365      1.0  0.94990  0.40059  0.48905  1.0000
  C   C470      1.0  0.46879  0.11583  0.50813  1.0000
  H   H366      1.0  0.66926  0.97862  0.53455  1.0000
  H   H367      1.0  0.91435  0.15606  0.66427  1.0000
  C   C471      1.0  0.69208  0.07337  0.66655  1.0000
  H   H368      1.0  0.78767  0.31814  0.66441  1.0000
  S   S58       1.0  0.87672  0.22506  0.70749  1.0000
  Fe  Fe29      1.0  0.68146  0.01132  0.94861  1.0000
  H   H369      1.0  0.85948  0.29861  0.96441  1.0000
  Fe  Fe30      1.0  0.69156  0.07955  0.88358  1.0000
  S   S59       1.0  0.66578  0.10883  0.92902  1.0000
  S   S60       1.0  0.70691  0.10940  0.81780  1.0000
  Fe  Fe31      1.0  0.70941  0.10254  0.97554  1.0000
  H   H370      1.0  0.93116  0.32005  0.70243  1.0000
  Fe  Fe32      1.0  0.61489  0.04141  0.94760  1.0000
  S   S61       1.0  0.54186  0.01966  0.94941  1.0000
  S   S62       1.0  0.73746  0.07643  0.92953  1.0000
  S   S63       1.0  0.63747  0.01185  0.89859  1.0000
  H   H371      1.0  0.74650  0.35081  0.69404  1.0000
  H   H372      1.0  0.87927  0.41310  0.92306  1.0000
  H   H373      1.0  0.80685  0.33872  0.88502  1.0000
  C   C472      1.0  0.82883  0.19196  0.73701  1.0000
  C   C473      1.0  0.83223  0.17298  0.77402  1.0000
  C   C474      1.0  0.79566  0.14817  0.79946  1.0000
  C   C475      1.0  0.75488  0.14166  0.78800  1.0000
  C   C476      1.0  0.75148  0.16027  0.75070  1.0000
  C   C477      1.0  0.78813  0.18544  0.72557  1.0000
  H   H374      1.0  0.86336  0.17715  0.78275  1.0000
  H   H375      1.0  0.79880  0.13349  0.82756  1.0000
  H   H376      1.0  0.72019  0.15530  0.74122  1.0000
  C   C478      1.0  0.79771  0.42190  0.95516  1.0000
  H   H377      1.0  0.87420  0.19646  0.85361  1.0000
  C   C479      1.0  0.78550  0.01867  0.71939  1.0000
  C   C480      1.0  0.78358  0.23897  0.91778  1.0000
  C   C481      1.0  0.78851  0.28033  0.91967  1.0000
  C   C482      1.0  0.80286  0.30679  0.88440  1.0000
  P   P17       1.0  0.96232  0.35675  0.85092  1.0000
  C   C483      1.0  0.90484  0.42790  0.82100  1.0000
  H   H378      1.0  0.81161  0.23833  0.81708  1.0000
  H   H379      1.0  0.82265  0.31236  0.82049  1.0000
  C   C484      1.0  0.81170  0.29188  0.84767  1.0000
  C   C485      1.0  0.88850  0.22352  0.91471  1.0000
  H   H380      1.0  0.83283  0.39297  0.97923  1.0000
  H   H381      1.0  0.50572  0.46742  0.96544  1.0000
  H   H382      1.0  0.69608  0.36837  0.91451  1.0000
  H   H383      1.0  0.64109  0.08830  0.67329  1.0000
  H   H384      1.0  0.94159  0.40507  0.78887  1.0000
  H   H385      1.0  0.69571  0.23611  0.92749  1.0000
  C   C486      1.0  0.91278  0.26585  0.85161  1.0000
  C   C487      1.0  0.74044  0.04710  0.74324  1.0000
  C   C488      1.0  0.93327  0.30406  0.87505  1.0000
  H   H386      1.0  0.87069  0.19255  0.93007  1.0000
  C   C489      1.0  0.76926  0.34433  0.95688  1.0000
  H   H387      1.0  0.82395  0.45443  0.96119  1.0000
  H   H388      1.0  0.87215  0.45010  0.86173  1.0000
  C   C490      1.0  0.95632  0.33622  0.72560  1.0000
  C   C491      1.0  0.80571  0.25030  0.84576  1.0000
  H   H389      1.0  0.91104  0.31666  0.77568  1.0000
  H   H390      1.0  0.94834  0.32979  0.93762  1.0000
  H   H391      1.0  0.49703  0.08015  0.74063  1.0000
  H   H392      1.0  0.62940  0.17299  0.95350  1.0000
  C   C492      1.0  0.92657  0.40462  0.81807  1.0000
  C   C493      1.0  0.76095  0.03850  0.71052  1.0000
  C   C494      1.0  0.75931  0.41531  0.93697  1.0000
  C   C495      1.0  0.89085  0.40915  0.89342  1.0000
  C   C496      1.0  0.48444  0.08366  0.67582  1.0000
  C   C497      1.0  0.93196  0.30115  0.91855  1.0000
  H   H393      1.0  0.91364  0.26625  0.81818  1.0000
  H   H394      1.0  0.91515  0.37015  0.91829  1.0000
  P   P18       1.0  0.77699  0.29893  0.96747  1.0000
  H   H395      1.0  0.77283  0.21804  0.94472  1.0000
  H   H396      1.0  0.72257  0.06364  0.73815  1.0000
  H   H397      1.0  0.78492  0.20013  0.69754  1.0000
  H   H398      1.0  0.70471  0.30612  0.93116  1.0000
  C   C498      1.0  0.72586  0.37343  0.92868  1.0000
  C   C499      1.0  0.79157  0.22385  0.88080  1.0000
  H   H399      1.0  0.90279  0.44519  0.79432  1.0000
  C   C500      1.0  0.51112  0.09015  0.71004  1.0000
  C   C501      1.0  0.90975  0.26115  0.93814  1.0000
  C   C502      1.0  0.88727  0.43045  0.85879  1.0000
  C   C503      1.0  0.80260  0.38667  0.96528  1.0000
  H   H400      1.0  0.72712  0.04128  0.80880  1.0000
  C   C504      1.0  0.74331  0.03480  0.78377  1.0000
  C   C505      1.0  0.94506  0.33389  0.76738  1.0000
  C   C506      1.0  0.91171  0.38508  0.89054  1.0000
  C   C507      1.0  0.73083  0.33809  0.93839  1.0000
  C   C508      1.0  0.89043  0.22585  0.87153  1.0000
  C   C509      1.0  0.48201  0.47014  0.98393  1.0000
  H   H401      1.0  0.90894  0.25935  0.97162  1.0000
  C   C510      1.0  0.69298  0.22891  0.96032  1.0000
  C   C511      1.0  0.49978  0.99953  0.98771  1.0000
  C   C512      1.0  0.93003  0.38276  0.85286  1.0000
  H   H402      1.0  0.75560  0.44273  0.92923  1.0000
  C   C513      1.0  0.85831  0.31346  0.99310  1.0000
  H   H403      1.0  0.83962  0.11984  0.69107  1.0000
  C   C514      1.0  0.55590  0.10920  0.70470  1.0000
  H   H404      1.0  0.78629  0.19135  0.87922  1.0000
  H   H405      1.0  0.57654  0.11393  0.73125  1.0000
  H   H406      1.0  0.94486  0.16679  0.89521  1.0000
  H   H407      1.0  0.67339  0.04203  0.68097  1.0000
  C   C515      1.0  0.76720  0.01453  0.79217  1.0000
  C   C516      1.0  0.65532  0.19289  0.97486  1.0000
  C   C517      1.0  0.77458  0.36996  0.67477  1.0000
  H   H408      1.0  0.76925  0.00513  0.82368  1.0000
  H   H409      1.0  0.76901  0.42627  0.67984  1.0000
  C   C518      1.0  0.72736  0.25415  0.98757  1.0000
  H   H410      1.0  0.95394  0.20020  0.96450  1.0000
  C   C519      1.0  0.78848  0.00664  0.76000  1.0000
  H   H411      1.0  0.80211  0.01225  0.69475  1.0000
  H   H412      1.0  0.46666  0.08815  0.97614  1.0000
  H   H413      1.0  0.80733  0.12606  0.99593  1.0000
  C   C520      1.0  0.96408  0.46997  0.96743  1.0000
  S   S64       1.0  0.65665  0.03768  0.99815  1.0000
  H   H414      1.0  0.80720  0.99110  0.76653  1.0000
  C   C521      1.0  0.82955  0.53814  0.07330  1.0000
  Fe  Fe33      1.0  0.57808  0.71796  0.04622  1.0000
  S   S65       1.0  0.63528  0.74142  0.08847  1.0000
  H   H415      1.0  0.91089  0.74171  0.14950  1.0000
  Fe  Fe34      1.0  0.54084  0.62304  0.07216  1.0000
  S   S66       1.0  0.59580  0.64052  0.11748  1.0000
  C   C522      1.0  0.46462  0.51105  0.03296  1.0000
  Fe  Fe35      1.0  0.58846  0.69736  0.13644  1.0000
  S   S67       1.0  0.59638  0.71621  0.20542  1.0000
  Fe  Fe36      1.0  0.63904  0.68361  0.06664  1.0000
  S   S68       1.0  0.70779  0.69920  0.05064  1.0000
  S   S69       1.0  0.53036  0.67672  0.09537  1.0000
  S   S70       1.0  0.58478  0.66324  0.02018  1.0000
  C   C523      1.0  0.61563  0.83458  0.12243  1.0000
  H   H416      1.0  0.74941  0.88354  0.08964  1.0000
  C   C524      1.0  0.57703  0.81991  0.10024  1.0000
  H   H417      1.0  0.67822  0.92845  0.32127  1.0000
  C   C525      1.0  0.59755  0.89341  0.08334  1.0000
  C   C526      1.0  0.89923  0.71700  0.03169  1.0000
  H   H418      1.0  0.92207  0.61170  0.14883  1.0000
  C   C527      1.0  0.94550  0.50583  0.01996  1.0000
  C   C528      1.0  0.56835  0.84929  0.08019  1.0000
  H   H419      1.0  0.52006  0.91405  0.06734  1.0000
  H   H420      1.0  0.63808  0.92001  0.19472  1.0000
  C   C529      1.0  0.63566  0.90822  0.10620  1.0000
  C   C530      1.0  0.72569  0.66322  0.03543  1.0000
  C   C531      1.0  0.50382  0.88735  0.17973  1.0000
  C   C532      1.0  0.70114  0.61893  0.04292  1.0000
  H   H421      1.0  0.62209  0.81119  0.13695  1.0000
  H   H422      1.0  0.66988  0.60570  0.05781  1.0000
  C   C533      1.0  0.57617  0.81598  0.27857  1.0000
  C   C534      1.0  0.59996  0.79824  0.29541  1.0000
  C   C535      1.0  0.60654  0.76862  0.27220  1.0000
  C   C536      1.0  0.58949  0.75614  0.23190  1.0000
  C   C537      1.0  0.56637  0.77446  0.21474  1.0000
  C   C538      1.0  0.55987  0.80422  0.23789  1.0000
  C   C539      1.0  0.74858  0.82583  0.10819  1.0000
  H   H423      1.0  0.62513  0.75540  0.28560  1.0000
  H   H424      1.0  0.55282  0.76518  0.18392  1.0000
  H   H425      1.0  0.54162  0.81782  0.22438  1.0000
  H   H426      1.0  0.53959  0.83783  0.06128  1.0000
  H   H427      1.0  0.46755  0.78255  0.02004  1.0000
  C   C540      1.0  0.74931  0.64976  0.13979  1.0000
  C   C541      1.0  0.72035  0.61034  0.15802  1.0000
  C   C542      1.0  0.73495  0.58280  0.17163  1.0000
  C   C543      1.0  0.77848  0.59454  0.16673  1.0000
  C   C544      1.0  0.80777  0.63398  0.14811  1.0000
  C   C545      1.0  0.79283  0.66162  0.13482  1.0000
  P   P19       1.0  0.86345  0.64774  0.13992  1.0000
  C   C546      1.0  0.86321  0.60109  0.11822  1.0000
  C   C547      1.0  0.88707  0.69141  0.10288  1.0000
  C   C548      1.0  0.88209  0.68299  0.06010  1.0000
  C   C549      1.0  0.90797  0.73436  0.11669  1.0000
  H   H428      1.0  0.52854  0.53274  0.00901  1.0000
  H   H429      1.0  0.61290  0.80703  0.32651  1.0000
  H   H430      1.0  0.69505  0.76427  0.19178  1.0000
  C   C550      1.0  0.82983  0.57379  0.09109  1.0000
  C   C551      1.0  0.65952  0.91802  0.21723  1.0000
  H   H431      1.0  0.52882  0.88679  0.19850  1.0000
  C   C552      1.0  0.89558  0.55580  0.11001  1.0000
  C   C553      1.0  0.89600  0.59160  0.12785  1.0000
  C   C554      1.0  0.89458  0.66381  0.18760  1.0000
  H   H432      1.0  0.95674  0.69571  0.15657  1.0000
  C   C555      1.0  0.87399  0.65262  0.22642  1.0000
  H   H433      1.0  0.51519  0.62389  0.18031  1.0000
  H   H434      1.0  0.93422  0.78570  0.02334  1.0000
  C   C556      1.0  0.69055  0.90702  0.20516  1.0000
  H   H435      1.0  0.68652  0.60105  0.16115  1.0000
  H   H436      1.0  0.71242  0.55210  0.18552  1.0000
  H   H437      1.0  0.78920  0.57258  0.17685  1.0000
  H   H438      1.0  0.59148  0.91624  0.06707  1.0000
  H   H439      1.0  0.86497  0.65033  0.04838  1.0000
  C   C557      1.0  0.92058  0.75957  0.04562  1.0000
  H   H440      1.0  0.65774  0.94261  0.10824  1.0000
  H   H441      1.0  0.67591  0.82086  0.19979  1.0000
  H   H442      1.0  0.93268  0.52635  0.02866  1.0000
  H   H443      1.0  0.80421  0.58040  0.08308  1.0000
  H   H444      1.0  0.57311  0.57788  0.26297  1.0000
  S   S71       1.0  0.56486  0.85190  0.30709  1.0000
  H   H445      1.0  0.86242  0.50177  0.06846  1.0000
  C   C558      1.0  0.73809  0.85834  0.11270  1.0000
  C   C559      1.0  0.75817  0.60850  0.01264  1.0000
  H   H446      1.0  0.69854  0.55761  0.03815  1.0000
  H   H447      1.0  0.61570  0.65759  0.26527  1.0000
  H   H448      1.0  0.73782  0.67082  0.12863  1.0000
  H   H449      1.0  0.55459  0.78564  0.09724  1.0000
  H   H450      1.0  0.94104  0.80133  0.09891  1.0000
  C   C560      1.0  0.48924  0.60593  0.20227  1.0000
  H   H451      1.0  0.81421  0.69195  0.11978  1.0000
  C   C561      1.0  0.71752  0.59178  0.03187  1.0000
  H   H452      1.0  0.52447  0.64676  0.25363  1.0000
  C   C562      1.0  0.65557  0.92618  0.25889  1.0000
  C   C563      1.0  0.59540  0.63964  0.29131  1.0000
  C   C564      1.0  0.86245  0.52917  0.08266  1.0000
  P   P20       1.0  0.69696  0.89819  0.15112  1.0000
  C   C565      1.0  0.71245  0.85746  0.14612  1.0000
  H   H453      1.0  0.71443  0.92705  0.06464  1.0000
  H   H454      1.0  0.88264  0.65534  0.29287  1.0000
  H   H455      1.0  0.92109  0.54878  0.11707  1.0000
  C   C566      1.0  0.64564  0.87888  0.12495  1.0000
  H   H456      1.0  0.48495  0.51580  0.25022  1.0000
  H   H457      1.0  0.50031  0.73081  0.30529  1.0000
  H   H458      1.0  0.50319  0.84310  0.13480  1.0000
  S   S72       1.0  0.56187  0.76105  0.00713  1.0000
  H   H459      1.0  0.80409  0.51797  0.05161  1.0000
  H   H460      1.0  0.46683  0.60547  0.30452  1.0000
  H   H461      1.0  0.76750  0.82605  0.08185  1.0000
  C   C567      1.0  0.70791  0.79101  0.17017  1.0000
  H   H462      1.0  0.83907  0.63487  0.22877  1.0000
  C   C568      1.0  0.71374  0.91301  0.27703  1.0000
  C   C569      1.0  0.94010  0.68700  0.18606  1.0000
  H   H463      1.0  0.74072  0.76643  0.13268  1.0000
  C   C570      1.0  0.48903  0.86246  0.14364  1.0000
  H   H464      1.0  0.94130  0.55171  0.26492  1.0000
  C   C571      1.0  0.89860  0.66422  0.26295  1.0000
  C   C572      1.0  0.69713  0.82328  0.17463  1.0000
  C   C573      1.0  0.73360  0.79224  0.13695  1.0000
  C   C574      1.0  0.48645  0.91305  0.19161  1.0000
  C   C575      1.0  0.49500  0.50727  0.00862  1.0000
  H   H465      1.0  0.53605  0.68948  0.32226  1.0000
  S   S73       1.0  0.47902  0.55626  0.06628  1.0000
  C   C576      1.0  0.49444  0.61883  0.24373  1.0000
  C   C577      1.0  0.71827  0.90546  0.23528  1.0000
  H   H466      1.0  0.73446  0.91084  0.30035  1.0000
  H   H467      1.0  0.74319  0.89814  0.22658  1.0000
  H   H468      1.0  0.49805  0.93247  0.21948  1.0000
  C   C578      1.0  0.57117  0.59472  0.28998  1.0000
  H   H469      1.0  0.65593  0.81383  0.01675  1.0000
  C   C579      1.0  0.50986  0.90139  0.03638  1.0000
  H   H470      1.0  0.96046  0.49674  0.08285  1.0000
  H   H471      1.0  0.61244  0.69650  0.32680  1.0000
  C   C580      1.0  0.68226  0.92319  0.28885  1.0000
  C   C581      1.0  0.92472  0.76828  0.08813  1.0000
  H   H472      1.0  0.78588  0.71423  0.01083  1.0000
  C   C582      1.0  0.73681  0.94829  0.12735  1.0000
  C   C583      1.0  0.94385  0.68716  0.26105  1.0000
  C   C584      1.0  0.47975  0.48629  0.23582  1.0000
  C   C585      1.0  0.59323  0.66168  0.32607  1.0000
  C   C586      1.0  0.76653  0.67998  0.01658  1.0000
  C   C587      1.0  0.73710  0.95333  0.08411  1.0000
  H   H473      1.0  0.54539  0.50020  0.24532  1.0000
  H   H474      1.0  0.63096  0.93375  0.26827  1.0000
  H   H475      1.0  0.47078  0.71678  0.03258  1.0000
  C   C588      1.0  0.64392  0.83372  0.00391  1.0000
  C   C589      1.0  0.54482  0.57181  0.32352  1.0000
  C   C590      1.0  0.78253  0.65274  0.00490  1.0000
  H   H476      1.0  0.52676  0.53694  0.32290  1.0000
  H   H477      1.0  0.95535  0.67223  0.05293  1.0000
  H   H478      1.0  0.47884  0.85937  0.33053  1.0000
  C   C591      1.0  0.47160  0.86202  0.02961  1.0000
  H   H479      1.0  0.94441  0.51506  0.20076  1.0000
  C   C592      1.0  0.96116  0.48886  0.05061  1.0000
  H   H480      1.0  0.56420  0.95636  0.00798  1.0000
  C   C593      1.0  0.96336  0.57017  0.24016  1.0000
  H   H481      1.0  0.96298  0.69589  0.28936  1.0000
  C   C594      1.0  0.51371  0.47757  0.23298  1.0000
  C   C595      1.0  0.53506  0.92562  0.00281  1.0000
  Fe  Fe37      1.0  0.64324  0.94195  0.44052  1.0000
  S   S74       1.0  0.59187  0.91555  0.49009  1.0000
  Fe  Fe38      1.0  0.58216  0.87669  0.37427  1.0000
  S   S75       1.0  0.52730  0.84778  0.41991  1.0000
  Fe  Fe39      1.0  0.54748  0.91536  0.44022  1.0000
  C   C596      1.0  0.47843  0.95954  0.47967  1.0000
  Fe  Fe40      1.0  0.57690  0.85063  0.46528  1.0000
  S   S76       1.0  0.55818  0.79023  0.50334  1.0000
  S   S77       1.0  0.59971  0.94472  0.39150  1.0000
  S   S78       1.0  0.63087  0.87652  0.41875  1.0000
  Fe  Fe41      1.0  0.67461  0.66112  0.57617  1.0000
  S   S79       1.0  0.65028  0.61003  0.52644  1.0000
  S   S80       1.0  0.69068  0.73016  0.56306  1.0000
  Fe  Fe42      1.0  0.68173  0.60217  0.64205  1.0000
  S   S81       1.0  0.65661  0.54721  0.59677  1.0000
  Fe  Fe43      1.0  0.70197  0.59677  0.55093  1.0000
  S   S82       1.0  0.74387  0.57882  0.51194  1.0000
  Fe  Fe44      1.0  0.60716  0.56499  0.57651  1.0000
  S   S83       1.0  0.53468  0.51368  0.57619  1.0000
  S   S84       1.0  0.72939  0.65077  0.59725  1.0000
  S   S85       1.0  0.62908  0.61718  0.62517  1.0000
  H   H482      1.0  0.93817  0.59074  0.52112  1.0000
  C   C597      1.0  0.50764  0.50203  0.49353  1.0000
  C   C598      1.0  0.79941  0.61517  0.50150  1.0000
  C   C599      1.0  0.81926  0.65864  0.51268  1.0000
  C   C600      1.0  0.86341  0.68664  0.50383  1.0000
  C   C601      1.0  0.88829  0.67150  0.48401  1.0000
  C   C602      1.0  0.86856  0.62796  0.47299  1.0000
  C   C603      1.0  0.82425  0.60000  0.48154  1.0000
  H   H483      1.0  0.80056  0.67078  0.52795  1.0000
  H   H484      1.0  0.87839  0.72021  0.51255  1.0000
  H   H485      1.0  0.88732  0.61589  0.45771  1.0000
  H   H486      1.0  0.80920  0.56642  0.47280  1.0000
  H   H487      1.0  0.52297  0.70766  0.45278  1.0000
  C   C604      1.0  0.49204  0.58074  0.51437  1.0000
  H   H488      1.0  0.81645  0.62486  0.60467  1.0000
  H   H489      1.0  0.54116  0.52379  0.48551  1.0000
  C   C605      1.0  0.59559  0.77416  0.51961  1.0000
  C   C606      1.0  0.57985  0.73220  0.53496  1.0000
  C   C607      1.0  0.60854  0.71838  0.54848  1.0000
  C   C608      1.0  0.65331  0.74628  0.54664  1.0000
  C   C609      1.0  0.66904  0.78853  0.53210  1.0000
  C   C610      1.0  0.64039  0.80237  0.51843  1.0000
  H   H490      1.0  0.54527  0.71028  0.53654  1.0000
  H   H491      1.0  0.59608  0.68633  0.56083  1.0000
  H   H492      1.0  0.70362  0.81056  0.53101  1.0000
  H   H493      1.0  0.65297  0.83487  0.50710  1.0000
  H   H494      1.0  0.64855  0.90526  0.55937  1.0000
  C   C611      1.0  0.66879  0.93317  0.57848  1.0000
  H   H495      1.0  0.47499  0.97152  0.58425  1.0000
  H   H496      1.0  0.72927  0.52771  0.58626  1.0000
  S   S86       1.0  0.50000  0.94093  0.44030  1.0000
  H   H497      1.0  0.48711  0.74884  0.43507  1.0000
  H   H498      1.0  0.52165  0.57549  0.38379  1.0000
  C   C612      1.0  0.51691  0.71116  0.42043  1.0000
  C   C613      1.0  0.49049  0.60579  0.44501  1.0000
  P   P21       1.0  0.56237  0.66894  0.40281  1.0000
  C   C614      1.0  0.61723  0.70921  0.41620  1.0000
  C   C615      1.0  0.64832  0.69679  0.42327  1.0000
  C   C616      1.0  0.69068  0.72745  0.43444  1.0000
  C   C617      1.0  0.70267  0.77088  0.43734  1.0000
  C   C618      1.0  0.67234  0.78370  0.42899  1.0000
  C   C619      1.0  0.62965  0.75303  0.41884  1.0000
  C   C620      1.0  0.91405  0.69297  0.64927  1.0000
  C   C621      1.0  0.53159  0.69463  0.38896  1.0000
  C   C622      1.0  0.46895  0.57914  0.47880  1.0000
  H   H499      1.0  0.84903  0.67954  0.66075  1.0000
  C   C623      1.0  0.49051  0.74168  0.36897  1.0000
  H   H500      1.0  0.63948  0.66321  0.42137  1.0000
  H   H501      1.0  0.71400  0.71743  0.44175  1.0000
  H   H502      1.0  0.73521  0.79447  0.44696  1.0000
  H   H503      1.0  0.68144  0.81730  0.43190  1.0000
  H   H504      1.0  0.60663  0.76385  0.41377  1.0000
  C   C624      1.0  0.86194  0.50771  0.57897  1.0000
  C   C625      1.0  0.96082  0.48032  0.55337  1.0000
  C   C626      1.0  0.54203  0.59387  0.35811  1.0000
  H   H505      1.0  0.86367  0.61018  0.55982  1.0000
  H   H506      1.0  0.90378  0.53659  0.46552  1.0000
  C   C627      1.0  0.91123  0.55916  0.52848  1.0000
  H   H507      1.0  0.55480  0.60829  0.54310  1.0000
  C   C628      1.0  0.77793  0.51261  0.60564  1.0000
  C   C629      1.0  0.50398  0.72437  0.33745  1.0000
  C   C630      1.0  0.52452  0.70099  0.34732  1.0000
  C   C631      1.0  0.79790  0.50468  0.63938  1.0000
  H   H508      1.0  0.50736  0.94550  0.53147  1.0000
  C   C632      1.0  0.68362  0.92798  0.61697  1.0000
  C   C633      1.0  0.47559  0.48481  0.46227  1.0000
  C   C634      1.0  0.46816  0.97265  0.55173  1.0000
  C   C635      1.0  0.85112  0.64132  0.61035  1.0000
  H   H509      1.0  0.78826  0.51265  0.57409  1.0000
  H   H510      1.0  0.91251  0.57238  0.59336  1.0000
  C   C636      1.0  0.87779  0.63303  0.58501  1.0000
  C   C637      1.0  0.89673  0.54860  0.56937  1.0000
  C   C638      1.0  0.49609  0.49182  0.53517  1.0000
  C   C639      1.0  0.92269  0.65556  0.59091  1.0000
  H   H511      1.0  0.47215  0.60442  0.41770  1.0000
  H   H512      1.0  0.67459  0.89591  0.62770  1.0000
  C   C640      1.0  0.49653  0.73463  0.41044  1.0000
  H   H513      1.0  0.96296  0.81934  0.43008  1.0000
  C   C641      1.0  0.53684  0.60802  0.51580  1.0000
  C   C642      1.0  0.85691  0.48778  0.50627  1.0000
  C   C643      1.0  0.55857  0.63459  0.48207  1.0000
  C   C644      1.0  0.89160  0.52866  0.49700  1.0000
  H   H514      1.0  0.47550  0.55996  0.54050  1.0000
  H   H515      1.0  0.59316  0.65589  0.48458  1.0000
  C   C645      1.0  0.53552  0.63381  0.44638  1.0000
  S   S87       1.0  0.94368  0.70825  0.47357  1.0000
  H   H516      1.0  0.47607  0.92653  0.33941  1.0000
  C   C646      1.0  0.71018  0.96401  0.64140  1.0000
  C   C647      1.0  0.86941  0.67188  0.64198  1.0000
  H   H517      1.0  0.94304  0.65079  0.56919  1.0000
  C   C648      1.0  0.74433  0.52128  0.61240  1.0000
  C   C649      1.0  0.94107  0.68475  0.62392  1.0000
  C   C650      1.0  0.56607  0.63909  0.35945  1.0000
  C   C651      1.0  0.48676  0.95805  0.52185  1.0000
  H   H518      1.0  0.47659  0.76159  0.36124  1.0000
  H   H519      1.0  0.48490  0.49349  0.43029  1.0000
  P   P22       1.0  0.84226  0.49466  0.63157  1.0000
  H   H520      1.0  0.95682  0.48610  0.58551  1.0000
  C   C652      1.0  0.73047  0.52209  0.65272  1.0000
  H   H521      1.0  0.70478  0.52926  0.65812  1.0000
  C   C653      1.0  0.84181  0.47741  0.54704  1.0000
  C   C654      1.0  0.68035  0.97441  0.56449  1.0000
  H   H522      1.0  0.91516  0.48869  0.66701  1.0000
  C   C655      1.0  0.88501  0.52823  0.66756  1.0000
  S   S88       1.0  0.69334  0.59176  0.71035  1.0000
  H   H523      1.0  0.51024  0.67102  0.97511  1.0000
  Fe  Fe45      1.0  0.87431  0.61061  0.87412  1.0000
  S   S89       1.0  0.83885  0.55019  0.91221  1.0000
  S   S90       1.0  0.86332  0.61711  0.80480  1.0000
  Fe  Fe46      1.0  0.83937  0.59404  0.96263  1.0000
  H   H524      1.0  0.79958  0.50110  0.70649  1.0000
  Fe  Fe47      1.0  0.90411  0.56528  0.93765  1.0000
  S   S91       1.0  0.92425  0.51364  0.93812  1.0000
  S   S92       1.0  0.87139  0.65343  0.92332  1.0000
  H   H525      1.0  0.78213  0.62086  0.68231  1.0000
  H   H526      1.0  0.60183  0.90624  0.95784  1.0000
  Fe  Fe48      1.0  0.93420  0.66080  0.94786  1.0000
  C   C656      1.0  0.74097  0.59846  0.73567  1.0000
  C   C657      1.0  0.78042  0.61377  0.71503  1.0000
  C   C658      1.0  0.81732  0.61894  0.73661  1.0000
  C   C659      1.0  0.81553  0.60961  0.77924  1.0000
  C   C660      1.0  0.77597  0.59414  0.79985  1.0000
  C   C661      1.0  0.73896  0.58817  0.77802  1.0000
  C   C662      1.0  0.88192  0.77384  0.91616  1.0000
  H   H527      1.0  0.84753  0.63024  0.72028  1.0000
  H   H528      1.0  0.77378  0.58638  0.83249  1.0000
  H   H529      1.0  0.70849  0.57551  0.79401  1.0000
  C   C663      1.0  0.65813  0.90370  0.97738  1.0000
  C   C664      1.0  0.91938  0.59061  0.71322  1.0000
  H   H530      1.0  0.50257  0.71992  0.92621  1.0000
  C   C665      1.0  0.52193  0.91126  0.96231  1.0000
  H   H531      1.0  0.72102  0.95903  0.67108  1.0000
  H   H532      1.0  0.91481  0.78813  0.92782  1.0000
  H   H533      1.0  0.60113  0.56445  0.74077  1.0000
  H   H534      1.0  0.67751  0.73635  0.99230  1.0000
  H   H535      1.0  0.50565  0.71011  0.85025  1.0000
  H   H536      1.0  0.65237  0.63600  0.97242  1.0000
  C   C666      1.0  0.75612  0.76573  0.80245  1.0000
  C   C667      1.0  0.59919  0.58854  0.75954  1.0000
  C   C668      1.0  0.74575  0.70693  0.74045  1.0000
  S   S93       1.0  0.77716  0.57299  0.99883  1.0000
  S   S94       1.0  0.94005  0.62281  0.89547  1.0000
  C   C669      1.0  0.61365  0.88623  0.97072  1.0000
  C   C670      1.0  0.88815  0.56628  0.68334  1.0000
  H   H537      1.0  0.54104  0.93087  0.93642  1.0000
  C   C671      1.0  0.48643  0.54329  0.85752  1.0000
  C   C672      1.0  0.74565  0.72370  0.81348  1.0000
  P   P23       1.0  0.74127  0.70911  0.86768  1.0000
  C   C673      1.0  0.71722  0.65159  0.87438  1.0000
  C   C674      1.0  0.79633  0.73546  0.88677  1.0000
  C   C675      1.0  0.81105  0.76777  0.91722  1.0000
  C   C676      1.0  0.85359  0.78652  0.93215  1.0000
  H   H538      1.0  0.92724  0.71624  0.67415  1.0000
  H   H539      1.0  0.92014  0.61869  0.72678  1.0000
  C   C677      1.0  0.82530  0.72362  0.87024  1.0000
  C   C678      1.0  0.67895  0.62340  0.85322  1.0000
  C   C679      1.0  0.66068  0.57883  0.85731  1.0000
  C   C680      1.0  0.68030  0.56207  0.88290  1.0000
  C   C681      1.0  0.71772  0.58990  0.90502  1.0000
  C   C682      1.0  0.73598  0.63448  0.90108  1.0000
  C   C683      1.0  0.70599  0.72383  0.89453  1.0000
  C   C684      1.0  0.67798  0.73352  0.87226  1.0000
  C   C685      1.0  0.65046  0.74446  0.89314  1.0000
  C   C686      1.0  0.65049  0.74567  0.93638  1.0000
  C   C687      1.0  0.67762  0.73537  0.95875  1.0000
  C   C688      1.0  0.70467  0.72370  0.93803  1.0000
  H   H540      1.0  0.73579  0.66291  0.78960  1.0000
  H   H541      1.0  0.79007  0.77873  0.92951  1.0000
  C   C689      1.0  0.94771  0.54194  0.70894  1.0000
  H   H542      1.0  0.55405  0.54257  0.80279  1.0000
  C   C690      1.0  0.75991  0.77771  0.76069  1.0000
  H   H543      1.0  0.81482  0.69910  0.84632  1.0000
  H   H544      1.0  0.66384  0.63593  0.83288  1.0000
  H   H545      1.0  0.63176  0.55724  0.84006  1.0000
  H   H546      1.0  0.66647  0.52755  0.88575  1.0000
  H   H547      1.0  0.73280  0.57692  0.92508  1.0000
  H   H548      1.0  0.76481  0.65523  0.91881  1.0000
  H   H549      1.0  0.67704  0.73249  0.83879  1.0000
  H   H550      1.0  0.62916  0.75225  0.87590  1.0000
  H   H551      1.0  0.47597  0.52665  0.92275  1.0000
  H   H552      1.0  0.74001  0.51598  0.71767  1.0000
  H   H553      1.0  0.72462  0.71472  0.95604  1.0000
  H   H554      1.0  0.74242  0.68435  0.71639  1.0000
  C   C691      1.0  0.75440  0.74819  0.72967  1.0000
  H   H555      1.0  0.70742  0.89006  0.99837  1.0000
  C   C692      1.0  0.51024  0.68944  0.87168  1.0000
  H   H556      1.0  0.76738  0.80997  0.75230  1.0000
  P   P24       1.0  0.53797  0.59159  0.86568  1.0000
  C   C693      1.0  0.52557  0.63159  0.88444  1.0000
  C   C694      1.0  0.56990  0.58204  0.90316  1.0000
  C   C695      1.0  0.60256  0.61657  0.92574  1.0000
  C   C696      1.0  0.62753  0.60938  0.95466  1.0000
  C   C697      1.0  0.62055  0.56783  0.96072  1.0000
  C   C698      1.0  0.58891  0.53349  0.93764  1.0000
  C   C699      1.0  0.56379  0.54052  0.90877  1.0000
  C   C700      1.0  0.51828  0.65750  0.85669  1.0000
  C   C701      1.0  0.94899  0.57830  0.72621  1.0000
  H   H557      1.0  0.62935  0.75441  0.95260  1.0000
  C   C702      1.0  0.51276  0.66739  0.94203  1.0000
  C   C703      1.0  0.52110  0.63567  0.92717  1.0000
  C   C704      1.0  0.57040  0.60763  0.81903  1.0000
  C   C705      1.0  0.57252  0.57636  0.79455  1.0000
  C   C706      1.0  0.62415  0.63198  0.74883  1.0000
  C   C707      1.0  0.62278  0.66338  0.77331  1.0000
  C   C708      1.0  0.59638  0.65134  0.80854  1.0000
  H   H558      1.0  0.89633  0.71037  0.99872  1.0000
  C   C709      1.0  0.86789  0.74278  0.88488  1.0000
  H   H559      1.0  0.60864  0.64903  0.92118  1.0000
  H   H560      1.0  0.48418  0.55244  0.79129  1.0000
  H   H561      1.0  0.88990  0.73312  0.87220  1.0000
  C   C710      1.0  0.91586  0.51695  0.67970  1.0000
  H   H562      1.0  0.53973  0.51346  0.89096  1.0000
  H   H563      1.0  0.51903  0.65326  0.82352  1.0000
  H   H564      1.0  0.58390  0.50137  0.94210  1.0000
  C   C711      1.0  0.94642  0.49605  0.97812  1.0000
  C   C712      1.0  0.78401  0.50604  0.67985  1.0000
  H   H565      1.0  0.52408  0.61443  0.94914  1.0000
  H   H566      1.0  0.64506  0.64125  0.72184  1.0000
  H   H567      1.0  0.64273  0.69707  0.76511  1.0000
  H   H568      1.0  0.59695  0.67623  0.82782  1.0000
  C   C713      1.0  0.58459  0.84249  0.97978  1.0000
  C   C714      1.0  0.75027  0.51442  0.68640  1.0000
  H   H569      1.0  0.81368  0.66598  0.98990  1.0000
  C   C715      1.0  0.74169  0.69477  0.78215  1.0000
  H   H570      1.0  0.76112  0.78916  0.82618  1.0000
  H   H571      1.0  0.86604  0.57698  0.67336  1.0000
  C   C716      1.0  0.59954  0.81607  0.99661  1.0000
  H   H572      1.0  0.64005  0.56228  0.98290  1.0000
  H   H573      1.0  0.75731  0.75734  0.69724  1.0000
  C   C717      1.0  0.67305  0.87707  0.99369  1.0000
  H   H574      1.0  0.55034  0.82922  0.97398  1.0000
  H   H575      1.0  0.86462  0.81094  0.95610  1.0000
  S   S95       1.0  0.90161  0.60412  0.99130  1.0000
  C   C718      1.0  0.46785  0.53224  0.81778  1.0000
  C   C719      1.0  0.50809  0.69477  0.91438  1.0000
  S   S96       1.0  0.69645  0.95799  0.96463  1.0000
  C   C720      1.0  0.48373  0.87233  0.95525  1.0000
  H   H576      1.0  0.47339  0.86157  0.92376  1.0000
