data_image0
_chemical_formula_structural       SHC2HC3H2C3HCHC2HCH3CHC4H2CHC2HCHCHCH3CHCHCSHC2HC2HC2H4CH6CH3C4H2PH3CH2CH2C3HCH3C4H3C7H2C4HC2HCHCHCH2CH2CH2C3H3C4HC2HCHCH2CH2C3H2CH2SHCHFeSHFeH2FeSFeHSPFeSFeS2FeSFeSCS2C2H2CH2CHCHC5HCHSC6H3C8PC3PC8H2CH4CH4C4H3C4HCH3C6HCHC4H2SHCPC2H5C3HSC2H2C4HCHSH3CHC2HC2H2CSCHCH4CHCHCHCHCHC2HCHCH5CHCHCHC2HC2HC2HCH2FeSHFeSHFeSFeSHC6H3SFeSFeS2FeSFeSCSH5C2SC5HC8H2CHC2HC2H2CHCHSC2HC3PC2H4C3HC5HC2HCHCH6C3H2C2HSC2HC6PC2HCPC2HC6H4CHC2H3CH3C4H2C2HC3H2C3H3C3H2C2PC4HC7H2CHCH2CH3FeHSFeCSFeHCS2HFeS2FeSCFeSFeS3CHPCHCH2CHC4H3C4HC6H2C4PC18HCH12CH2CHCHC2SCHCH2C3HC2H2CH4C2H2C3PCHCH5C3HFeC5H2C2HCH2C2H3CH2SH2CHCSC3H2SC3H4C4H2CHFeS2FeHCS2C2FeHFeS2FeHFeHS2HCHC2SCHC7H4CHCH5C5PC10H2CH6C2HC2HCH3C3HSH3C2H3CH2C2HCHPCH3C6HC4HCH3C4H3C2FeH4C2PCHCS2CHC2H2CH2CSHC8HC2HC2SH2SPC2SFeCFeS2Fe2S2C2HC3H2CHC2FeSFeCH2FeS3CHC3SCHC3H3CHCHFeCHCHC2SHCHSHC3PC17H14CH2SC5HC2H3CH3C3HCFeSH2CHCHCHC3HCHC2H2C5HCPCHC3HCHC2SH4C2PCHC2HC4H2C2HCHC5H3PHC3H4FeSFeS2FeCFeCS2FeC2H2CFeCSCPH6SC6H4CH5C6HPCH5C9H5SCHCH2C4PC3H2CHC4H3C3H3C3H2C2FeCH4CHC2HC5H3C2H2C3HSC2SCHC5SHC5H2CSH4FeH2CHSH2CH3C3SHCH2CH3C2HCHC3H2CHC2HCHC6H2C3H2C2H2C4H3C2H4SH4C2HSHC3HC3SCH2C2HCH3CH3CHC3HCPHC3HCHCSCH2C5H3C2HCH6C4HSHC3H
_chemical_formula_sum              "S96 H576 C720 P24 Fe48"
_cell_length_a       38.7464
_cell_length_b       38.8954
_cell_length_c       42.7161
_cell_angle_alpha    89.9447
_cell_angle_beta     89.9863
_cell_angle_gamma    120.115

_space_group_name_H-M_alt    "P 1"
_space_group_IT_number       1

loop_
  _space_group_symop_operation_xyz
  'x, y, z'

loop_
  _atom_site_type_symbol
  _atom_site_label
  _atom_site_symmetry_multiplicity
  _atom_site_fract_x
  _atom_site_fract_y
  _atom_site_fract_z
  _atom_site_occupancy
  S   S1        1.0  0.45258  0.04645  0.18160  1.0000
  H   H1        1.0  0.44433  0.22135  0.15178  1.0000
  C   C1        1.0  0.42770  0.09051  0.00236  1.0000
  C   C2        1.0  0.46662  0.00656  0.97193  1.0000
  H   H2        1.0  0.46228  0.08537  0.25288  1.0000
  C   C3        1.0  0.39543  0.09647  0.99754  1.0000
  C   C4        1.0  0.46142  0.28251  0.16079  1.0000
  C   C5        1.0  0.96835  0.44195  0.00792  1.0000
  H   H3        1.0  0.05368  0.43203  0.09093  1.0000
  H   H4        1.0  0.98242  0.42739  0.30167  1.0000
  C   C6        1.0  0.43733  0.35803  0.06550  1.0000
  C   C7        1.0  0.45888  0.31989  0.11597  1.0000
  C   C8        1.0  0.41879  0.99073  0.22908  1.0000
  H   H5        1.0  0.99247  0.47305  0.10443  1.0000
  C   C9        1.0  0.38638  0.34280  0.01411  1.0000
  H   H6        1.0  0.45381  0.00594  0.09160  1.0000
  C   C10       1.0  0.44530  0.34613  0.03666  1.0000
  C   C11       1.0  0.05935  0.44913  0.11224  1.0000
  H   H7        1.0  0.36876  0.08052  0.01170  1.0000
  C   C12       1.0  0.46098  0.46369  0.03726  1.0000
  H   H8        1.0  0.43985  0.46152  0.18400  1.0000
  H   H9        1.0  0.43079  0.22454  0.09564  1.0000
  H   H10       1.0  0.44831  0.43845  0.02161  1.0000
  C   C13       1.0  0.44015  0.25046  0.11036  1.0000
  H   H11       1.0  0.42620  0.06985  0.02014  1.0000
  C   C14       1.0  0.41626  0.46851  0.29437  1.0000
  C   C15       1.0  0.03182  0.43467  0.13680  1.0000
  C   C16       1.0  0.40372  0.36267  0.06820  1.0000
  C   C17       1.0  0.43082  0.37878  0.14890  1.0000
  H   H12       1.0  0.39696  0.37239  0.08989  1.0000
  H   H13       1.0  0.37268  0.12781  0.97082  1.0000
  C   C18       1.0  0.44797  0.24873  0.14204  1.0000
  H   H14       1.0  0.99341  0.44474  0.99453  1.0000
  C   C19       1.0  0.42534  0.97855  0.09032  1.0000
  C   C20       1.0  0.45136  0.01021  0.20838  1.0000
  H   H15       1.0  0.36680  0.33688  0.99425  1.0000
  C   C21       1.0  0.46168  0.39685  0.12669  1.0000
  H   H16       1.0  0.39937  0.38813  0.18669  1.0000
  C   C22       1.0  0.46233  0.11150  0.98445  1.0000
  H   H17       1.0  0.29713  0.44580  0.04655  1.0000
  C   C23       1.0  0.98723  0.45898  0.25895  1.0000
  H   H18       1.0  0.35290  0.35926  0.04474  1.0000
  H   H19       1.0  0.00455  0.40632  0.13454  1.0000
  H   H20       1.0  0.42561  0.32803  0.98931  1.0000
  C   C24       1.0  0.41964  0.33805  0.01126  1.0000
  H   H21       1.0  0.01690  0.44534  0.18254  1.0000
  C   C25       1.0  0.42333  0.40204  0.16972  1.0000
  H   H22       1.0  0.41199  0.34678  0.14975  1.0000
  C   C26       1.0  0.37850  0.35524  0.04255  1.0000
  S   S2        1.0  0.38267  0.46803  0.26499  1.0000
  H   H23       1.0  0.44032  0.28645  0.07253  1.0000
  C   C27       1.0  0.44621  0.44345  0.16831  1.0000
  C   C28       1.0  0.03900  0.45709  0.16413  1.0000
  H   H24       1.0  0.40604  0.44411  0.06296  1.0000
  C   C29       1.0  0.39768  0.12311  0.97452  1.0000
  C   C30       1.0  0.04201  0.45521  0.28252  1.0000
  H   H25       1.0  0.46235  0.18104  0.03078  1.0000
  C   C31       1.0  0.43700  0.46700  0.06081  1.0000
  C   C32       1.0  0.00204  0.44551  0.28290  1.0000
  H   H26       1.0  0.39492  0.99749  0.22804  1.0000
  H   H27       1.0  0.44966  0.21338  0.98540  1.0000
  H   H28       1.0  0.40149  0.99146  0.13129  1.0000
  H   H29       1.0  0.05336  0.44473  0.30118  1.0000
  C   C33       1.0  0.44567  0.28584  0.09731  1.0000
  H   H30       1.0  0.97646  0.41063  0.04618  1.0000
  H   H31       1.0  0.27811  0.47639  0.00376  1.0000
  H   H32       1.0  0.43911  0.45405  0.41871  1.0000
  H   H33       1.0  0.34324  0.40476  0.57860  1.0000
  H   H34       1.0  0.40858  0.98696  0.62507  1.0000
  H   H35       1.0  0.01786  0.43459  0.56853  1.0000
  C   C34       1.0  0.40097  0.35662  0.50735  1.0000
  H   H36       1.0  0.38430  0.34354  0.48608  1.0000
  H   H37       1.0  0.38183  0.43414  0.38318  1.0000
  H   H38       1.0  0.19997  0.26299  0.53521  1.0000
  C   C35       1.0  0.30666  0.35212  0.51943  1.0000
  C   C36       1.0  0.41704  0.40026  0.55211  1.0000
  C   C37       1.0  0.40896  0.43788  0.42789  1.0000
  C   C38       1.0  0.33113  0.39492  0.45124  1.0000
  H   H39       1.0  0.32485  0.30766  0.52173  1.0000
  H   H40       1.0  0.42195  0.40497  0.34763  1.0000
  P   P1        1.0  0.35603  0.39422  0.51275  1.0000
  H   H41       1.0  0.25746  0.25178  0.53131  1.0000
  H   H42       1.0  0.43839  0.03237  0.40634  1.0000
  H   H43       1.0  0.01495  0.39722  0.61628  1.0000
  C   C39       1.0  0.40557  0.43347  0.31146  1.0000
  H   H44       1.0  0.21049  0.33106  0.52927  1.0000
  H   H45       1.0  0.41365  0.42169  0.56584  1.0000
  C   C40       1.0  0.43011  0.34748  0.51651  1.0000
  H   H46       1.0  0.30080  0.37825  0.45976  1.0000
  H   H47       1.0  0.34235  0.46403  0.32784  1.0000
  C   C41       1.0  0.44506  0.01423  0.35972  1.0000
  C   C42       1.0  0.40258  0.42802  0.45966  1.0000
  C   C43       1.0  0.33770  0.40523  0.41950  1.0000
  H   H48       1.0  0.44149  0.98640  0.31505  1.0000
  C   C44       1.0  0.96733  0.46301  0.36374  1.0000
  H   H49       1.0  0.24546  0.45220  0.44857  1.0000
  H   H50       1.0  0.42813  0.43741  0.47490  1.0000
  H   H51       1.0  0.37777  0.40676  0.30611  1.0000
  C   C45       1.0  0.34964  0.43161  0.56616  1.0000
  C   C46       1.0  0.26202  0.28148  0.52850  1.0000
  C   C47       1.0  0.97313  0.45330  0.42840  1.0000
  C   C48       1.0  0.35819  0.43542  0.53397  1.0000
  H   H52       1.0  0.45973  0.01795  0.45985  1.0000
  H   H53       1.0  0.36835  0.98013  0.41220  1.0000
  H   H54       1.0  0.22243  0.44805  0.30707  1.0000
  C   C49       1.0  0.42415  0.01175  0.38731  1.0000
  C   C50       1.0  0.98984  0.41752  0.58087  1.0000
  C   C51       1.0  0.42555  0.98605  0.33600  1.0000
  C   C52       1.0  0.36359  0.40583  0.47148  1.0000
  C   C53       1.0  0.39376  0.38267  0.52531  1.0000
  C   C54       1.0  0.27386  0.35813  0.52168  1.0000
  C   C55       1.0  0.43067  0.43233  0.33512  1.0000
  H   H55       1.0  0.97493  0.44919  0.45326  1.0000
  H   H56       1.0  0.27784  0.38764  0.51924  1.0000
  C   C56       1.0  0.34975  0.46269  0.58264  1.0000
  C   C57       1.0  0.44636  0.39126  0.56103  1.0000
  C   C58       1.0  0.22963  0.28778  0.53070  1.0000
  C   C59       1.0  0.98822  0.39654  0.60789  1.0000
  H   H57       1.0  0.34442  0.46019  0.60768  1.0000
  C   C60       1.0  0.23556  0.32611  0.52731  1.0000
  C   C61       1.0  0.30039  0.31346  0.52294  1.0000
  H   H58       1.0  0.31265  0.39624  0.40381  1.0000
  C   C62       1.0  0.37660  0.42656  0.40782  1.0000
  H   H59       1.0  0.43573  0.32756  0.50246  1.0000
  C   C63       1.0  0.46678  0.46654  0.34266  1.0000
  H   H60       1.0  0.45124  0.06739  0.30901  1.0000
  C   C64       1.0  0.45295  0.36497  0.54324  1.0000
  H   H61       1.0  0.46481  0.40559  0.58132  1.0000
  H   H62       1.0  0.45529  0.21636  0.47836  1.0000
  C   C65       1.0  0.38420  0.98206  0.39076  1.0000
  H   H63       1.0  0.13595  0.45804  0.42830  1.0000
  H   H64       1.0  0.37127  0.47363  0.49346  1.0000
  C   C66       1.0  0.36543  0.47022  0.51833  1.0000
  H   H65       1.0  0.19600  0.45394  0.90556  1.0000
  H   H66       1.0  0.39933  0.11289  0.75129  1.0000
  C   C67       1.0  0.42533  0.47359  0.79197  1.0000
  C   C68       1.0  0.45862  0.47337  0.77939  1.0000
  C   C69       1.0  0.43539  0.11256  0.78966  1.0000
  H   H67       1.0  0.44720  0.11772  0.71047  1.0000
  H   H68       1.0  0.98441  0.43522  0.93393  1.0000
  H   H69       1.0  0.46389  0.09661  0.89926  1.0000
  C   C70       1.0  0.98005  0.43515  0.79137  1.0000
  C   C71       1.0  0.46528  0.13903  0.96184  1.0000
  C   C72       1.0  0.01938  0.45085  0.83868  1.0000
  C   C73       1.0  0.41363  0.45942  0.82277  1.0000
  H   H70       1.0  0.41435  0.11017  0.80745  1.0000
  C   C74       1.0  0.45823  0.01773  0.70085  1.0000
  C   C75       1.0  0.42692  0.11418  0.75806  1.0000
  H   H71       1.0  0.02553  0.44157  0.86091  1.0000
  C   C76       1.0  0.43273  0.00953  0.72682  1.0000
  H   H72       1.0  0.43330  0.16455  0.93890  1.0000
  C   C77       1.0  0.43480  0.44550  0.84081  1.0000
  H   H73       1.0  0.41824  0.02685  0.73017  1.0000
  H   H74       1.0  0.42497  0.43428  0.86423  1.0000
  C   C78       1.0  0.43233  0.14410  0.95651  1.0000
  H   H75       1.0  0.17979  0.46615  0.95923  1.0000
  H   H76       1.0  0.38783  0.45910  0.83276  1.0000
  C   C79       1.0  0.42561  0.97909  0.74853  1.0000
  C   C80       1.0  0.98912  0.42302  0.81944  1.0000
  C   C81       1.0  0.45392  0.11710  0.73507  1.0000
  H   H77       1.0  0.41155  0.46237  0.94141  1.0000
  H   H78       1.0  0.97160  0.39229  0.82686  1.0000
  C   C82       1.0  0.97604  0.44889  0.91568  1.0000
  H   H79       1.0  0.45202  0.02362  0.96775  1.0000
  H   H80       1.0  0.00279  0.46354  0.64688  1.0000
  S   S3        1.0  0.46600  0.05686  0.67430  1.0000
  H   H81       1.0  0.37173  0.98020  0.96102  1.0000
  C   C83       1.0  0.00123  0.47512  0.78249  1.0000
  H   H82       1.0  0.45403  0.97798  0.82200  1.0000
  Fe  Fe1       1.0  0.33489  0.53124  0.18008  1.0000
  S   S4        1.0  0.38961  0.57535  0.15421  1.0000
  H   H83       1.0  0.30556  0.54894  0.00262  1.0000
  Fe  Fe2       1.0  0.38690  0.51072  0.22524  1.0000
  H   H84       1.0  0.43155  0.88643  0.07968  1.0000
  H   H85       1.0  0.43907  0.82440  0.13934  1.0000
  Fe  Fe3       1.0  0.41717  0.59541  0.20217  1.0000
  S   S5        1.0  0.44401  0.66178  0.21361  1.0000
  Fe  Fe4       1.0  0.40977  0.53000  0.15535  1.0000
  H   H86       1.0  0.99914  0.57341  0.15153  1.0000
  S   S6        1.0  0.36204  0.55236  0.22807  1.0000
  P   P2        1.0  0.08462  0.52304  0.20273  1.0000
  Fe  Fe5       1.0  0.07292  0.53776  0.98557  1.0000
  S   S7        1.0  0.07748  0.59138  0.01024  1.0000
  Fe  Fe6       1.0  0.13449  0.53671  0.03264  1.0000
  S   S8        1.0  0.14063  0.58936  0.05865  1.0000
  S   S9        1.0  0.27620  0.53131  0.17056  1.0000
  Fe  Fe7       1.0  0.07328  0.55905  0.05552  1.0000
  S   S10       1.0  0.03585  0.56059  0.09741  1.0000
  Fe  Fe8       1.0  0.14408  0.61602  0.01077  1.0000
  S   S11       1.0  0.19748  0.67910  0.00210  1.0000
  C   C84       1.0  0.35056  0.72052  0.11753  1.0000
  S   S12       1.0  0.14013  0.56413  0.98476  1.0000
  S   S13       1.0  0.35334  0.48463  0.17993  1.0000
  C   C85       1.0  0.33111  0.81229  0.19057  1.0000
  C   C86       1.0  0.36354  0.71738  0.22271  1.0000
  H   H87       1.0  0.34003  0.84069  0.97392  1.0000
  H   H88       1.0  0.44311  0.70082  0.13096  1.0000
  C   C87       1.0  0.00000  0.52661  0.12521  1.0000
  H   H89       1.0  0.23012  0.48462  0.06227  1.0000
  H   H90       1.0  0.32570  0.69162  0.11128  1.0000
  C   C88       1.0  0.45266  0.49948  0.08169  1.0000
  H   H91       1.0  0.17743  0.55868  0.28996  1.0000
  C   C89       1.0  0.34400  0.68797  0.24547  1.0000
  H   H92       1.0  0.43152  0.67850  0.07594  1.0000
  C   C90       1.0  0.44780  0.72385  0.24777  1.0000
  C   C91       1.0  0.44032  0.81597  0.21058  1.0000
  C   C92       1.0  0.43687  0.68345  0.24817  1.0000
  C   C93       1.0  0.21892  0.57206  0.21934  1.0000
  C   C94       1.0  0.22945  0.50216  0.08162  1.0000
  H   H93       1.0  0.12930  0.53638  0.14425  1.0000
  C   C95       1.0  0.41674  0.96273  0.25129  1.0000
  H   H94       1.0  0.28538  0.82823  0.18699  1.0000
  S   S14       1.0  0.44724  0.91975  0.28209  1.0000
  C   C96       1.0  0.38617  0.77209  0.15644  1.0000
  C   C97       1.0  0.25093  0.52801  0.13453  1.0000
  C   C98       1.0  0.22708  0.54587  0.13228  1.0000
  C   C99       1.0  0.20469  0.54200  0.10500  1.0000
  C   C100      1.0  0.20502  0.51938  0.07963  1.0000
  C   C101      1.0  0.38140  0.91605  0.06414  1.0000
  H   H95       1.0  0.34685  0.66162  0.24523  1.0000
  H   H96       1.0  0.22583  0.56285  0.15178  1.0000
  H   H97       1.0  0.18672  0.55606  0.10383  1.0000
  C   C102      1.0  0.43787  0.62750  0.03511  1.0000
  C   C103      1.0  0.33515  0.80489  0.05985  1.0000
  C   C104      1.0  0.31554  0.67616  0.00043  1.0000
  C   C105      1.0  0.27446  0.64968  0.00119  1.0000
  C   C106      1.0  0.25938  0.61308  0.01629  1.0000
  C   C107      1.0  0.28545  0.60213  0.02949  1.0000
  C   C108      1.0  0.32692  0.62744  0.02702  1.0000
  C   C109      1.0  0.34169  0.66541  0.01385  1.0000
  P   P3        1.0  0.36071  0.61336  0.04408  1.0000
  C   C110      1.0  0.36984  0.63276  0.08344  1.0000
  C   C111      1.0  0.33917  0.56007  0.04544  1.0000
  C   C112      1.0  0.19371  0.53178  0.21282  1.0000
  P   P4        1.0  0.37322  0.88099  0.03329  1.0000
  C   C113      1.0  0.40724  0.66437  0.09250  1.0000
  C   C114      1.0  0.41384  0.67761  0.12356  1.0000
  C   C115      1.0  0.38297  0.66008  0.14548  1.0000
  C   C116      1.0  0.34526  0.62980  0.13628  1.0000
  C   C117      1.0  0.33871  0.61615  0.10539  1.0000
  C   C118      1.0  0.40619  0.63034  0.02190  1.0000
  C   C119      1.0  0.15281  0.51676  0.20880  1.0000
  C   C120      1.0  0.37294  0.93744  0.99241  1.0000
  H   H98       1.0  0.28767  0.84438  0.01878  1.0000
  H   H99       1.0  0.25421  0.65773  0.99053  1.0000
  C   C121      1.0  0.44995  0.84093  0.23675  1.0000
  H   H100      1.0  0.27301  0.57394  0.04164  1.0000
  H   H101      1.0  0.37338  0.68663  0.01372  1.0000
  H   H102      1.0  0.37067  0.56046  0.08748  1.0000
  H   H103      1.0  0.46132  0.52998  0.28917  1.0000
  C   C122      1.0  0.35016  0.54254  0.06924  1.0000
  H   H104      1.0  0.44140  0.95860  0.04896  1.0000
  H   H105      1.0  0.38859  0.66927  0.16975  1.0000
  H   H106      1.0  0.32145  0.61581  0.15337  1.0000
  H   H107      1.0  0.30957  0.59202  0.09878  1.0000
  C   C123      1.0  0.37961  0.74305  0.09522  1.0000
  C   C124      1.0  0.38516  0.89393  0.18655  1.0000
  C   C125      1.0  0.33059  0.83281  0.04214  1.0000
  C   C126      1.0  0.16216  0.58221  0.21899  1.0000
  H   H108      1.0  0.33046  0.71729  0.16473  1.0000
  H   H109      1.0  0.38480  0.64367  0.97914  1.0000
  H   H110      1.0  0.22736  0.59329  0.01798  1.0000
  C   C127      1.0  0.35170  0.90809  0.08648  1.0000
  C   C128      1.0  0.26309  0.53934  0.27336  1.0000
  C   C129      1.0  0.33506  0.50150  0.06954  1.0000
  C   C130      1.0  0.07738  0.56512  0.19719  1.0000
  H   H111      1.0  0.38644  0.95903  0.01099  1.0000
  C   C131      1.0  0.13673  0.54192  0.21156  1.0000
  H   H112      1.0  0.41388  0.63120  0.27703  1.0000
  H   H113      1.0  0.34064  0.78585  0.25007  1.0000
  H   H114      1.0  0.36408  0.81185  0.06868  1.0000
  C   C132      1.0  0.31374  0.53601  0.02150  1.0000
  C   C133      1.0  0.08660  0.58528  0.16842  1.0000
  C   C134      1.0  0.08280  0.61894  0.16465  1.0000
  C   C135      1.0  0.06976  0.63279  0.18955  1.0000
  C   C136      1.0  0.06088  0.61318  0.21839  1.0000
  C   C137      1.0  0.06494  0.57967  0.22230  1.0000
  H   H115      1.0  0.45205  0.77378  0.27365  1.0000
  C   C138      1.0  0.34717  0.87122  0.97137  1.0000
  H   H116      1.0  0.23905  0.72814  0.05883  1.0000
  C   C139      1.0  0.98337  0.48535  0.12323  1.0000
  C   C140      1.0  0.20311  0.59715  0.22287  1.0000
  C   C141      1.0  0.43981  0.87998  0.05714  1.0000
  C   C142      1.0  0.29228  0.82317  0.03189  1.0000
  H   H117      1.0  0.23026  0.77750  0.02880  1.0000
  H   H118      1.0  0.32298  0.88108  0.08535  1.0000
  S   S15       1.0  0.44381  0.55477  0.20085  1.0000
  H   H119      1.0  0.15078  0.60244  0.22111  1.0000
  C   C143      1.0  0.25241  0.50663  0.10870  1.0000
  P   P5        1.0  0.39007  0.79150  0.19553  1.0000
  C   C144      1.0  0.31716  0.83909  0.18770  1.0000
  C   C145      1.0  0.37224  0.82626  0.19223  1.0000
  H   H120      1.0  0.09597  0.57483  0.14852  1.0000
  H   H121      1.0  0.08873  0.63339  0.14197  1.0000
  H   H122      1.0  0.06607  0.65839  0.18633  1.0000
  H   H123      1.0  0.05054  0.62378  0.23766  1.0000
  H   H124      1.0  0.46005  0.74070  0.22655  1.0000
  C   C146      1.0  0.36430  0.89804  0.99633  1.0000
  C   C147      1.0  0.41696  0.87575  0.03031  1.0000
  C   C148      1.0  0.41819  0.95159  0.06615  1.0000
  H   H125      1.0  0.33349  0.90079  0.18418  1.0000
  S   S16       1.0  0.17544  0.51146  0.04519  1.0000
  C   C149      1.0  0.25952  0.78550  0.03785  1.0000
  C   C150      1.0  0.26448  0.75757  0.05479  1.0000
  H   H126      1.0  0.30572  0.74561  0.07923  1.0000
  H   H127      1.0  0.28072  0.55539  0.25309  1.0000
  C   C151      1.0  0.30217  0.76737  0.06602  1.0000
  C   C152      1.0  0.36130  0.75230  0.22328  1.0000
  C   C153      1.0  0.35895  0.93525  0.11061  1.0000
  C   C154      1.0  0.44753  0.95387  0.25351  1.0000
  H   H128      1.0  0.22274  0.62841  0.22783  1.0000
  C   C155      1.0  0.42172  0.66207  0.27605  1.0000
  H   H129      1.0  0.38155  0.71344  0.20530  1.0000
  S   S17       1.0  0.06659  0.50458  0.03115  1.0000
  H   H130      1.0  0.25083  0.58394  0.22084  1.0000
  H   H131      1.0  0.30564  0.73349  0.28973  1.0000
  H   H132      1.0  0.30985  0.78072  0.19171  1.0000
  C   C156      1.0  0.32266  0.69353  0.26935  1.0000
  H   H133      1.0  0.43113  0.87898  0.19002  1.0000
  C   C157      1.0  0.42844  0.86710  0.00154  1.0000
  C   C158      1.0  0.35362  0.73504  0.14797  1.0000
  H   H134      1.0  0.41219  0.86439  0.98026  1.0000
  C   C159      1.0  0.44331  0.74267  0.27450  1.0000
  C   C160      1.0  0.34067  0.75813  0.24784  1.0000
  H   H135      1.0  0.30848  0.67127  0.28747  1.0000
  H   H136      1.0  0.40615  0.92558  0.18499  1.0000
  C   C161      1.0  0.32103  0.72860  0.27056  1.0000
  S   S18       1.0  0.42079  0.50198  0.11112  1.0000
  C   C162      1.0  0.98722  0.54172  0.14986  1.0000
  H   H137      1.0  0.27877  0.73977  0.98980  1.0000
  C   C163      1.0  0.39580  0.97038  0.11260  1.0000
  H   H138      1.0  0.33597  0.92922  0.12772  1.0000
  H   H139      1.0  0.37726  0.73157  0.07172  1.0000
  H   H140      1.0  0.00039  0.49254  0.21641  1.0000
  H   H141      1.0  0.05827  0.56524  0.24495  1.0000
  C   C164      1.0  0.34419  0.87992  0.18594  1.0000
  H   H142      1.0  0.42772  0.84623  0.24756  1.0000
  C   C165      1.0  0.41145  0.78044  0.10318  1.0000
  H   H143      1.0  0.39131  0.94809  0.26671  1.0000
  C   C166      1.0  0.41453  0.79513  0.13359  1.0000
  H   H144      1.0  0.43372  0.79806  0.08576  1.0000
  C   C167      1.0  0.39921  0.86728  0.18959  1.0000
  H   H145      1.0  0.43530  0.61544  0.05847  1.0000
  C   C168      1.0  0.40959  0.64382  0.99089  1.0000
  H   H146      1.0  0.33559  0.50577  0.28768  1.0000
  C   C169      1.0  0.10178  0.50818  0.14245  1.0000
  C   C170      1.0  0.25250  0.49966  0.27754  1.0000
  H   H147      1.0  0.27020  0.49238  0.10999  1.0000
  C   C171      1.0  0.07400  0.49420  0.16713  1.0000
  H   H148      1.0  0.46207  0.78754  0.17889  1.0000
  C   C172      1.0  0.05268  0.49247  0.23425  1.0000
  H   H149      1.0  0.11567  0.49691  0.09602  1.0000
  H   H150      1.0  0.20614  0.51247  0.20962  1.0000
  H   H151      1.0  0.25934  0.58884  0.29136  1.0000
  H   H152      1.0  0.22440  0.52950  0.98601  1.0000
  H   H153      1.0  0.11652  0.56069  0.27622  1.0000
  C   C173      1.0  0.44517  0.65695  0.97428  1.0000
  H   H154      1.0  0.32691  0.70504  0.98953  1.0000
  C   C174      1.0  0.46232  0.86318  0.99960  1.0000
  H   H155      1.0  0.26165  0.48516  0.26043  1.0000
  C   C175      1.0  0.29842  0.49491  0.02195  1.0000
  H   H156      1.0  0.34362  0.48821  0.08812  1.0000
  C   C176      1.0  0.12474  0.56149  0.30050  1.0000
  C   C177      1.0  0.25114  0.55813  0.29521  1.0000
  H   H157      1.0  0.09793  0.48518  0.25827  1.0000
  C   C178      1.0  0.06721  0.47827  0.25813  1.0000
  C   C179      1.0  0.09432  0.48582  0.11509  1.0000
  H   H158      1.0  0.13392  0.48575  0.20260  1.0000
  C   C180      1.0  0.30902  0.47764  0.04603  1.0000
  C   C181      1.0  0.01242  0.48240  0.23479  1.0000
  H   H159      1.0  0.34607  0.57232  0.30161  1.0000
  C   C182      1.0  0.45244  0.50268  0.30182  1.0000
  H   H160      1.0  0.39252  0.54438  0.97013  1.0000
  H   H161      1.0  0.21637  0.63900  0.35699  1.0000
  Fe  Fe9       1.0  0.42268  0.80129  0.34694  1.0000
  S   S19       1.0  0.37669  0.81068  0.32269  1.0000
  H   H162      1.0  0.35916  0.48783  0.38235  1.0000
  Fe  Fe10      1.0  0.44373  0.87224  0.39316  1.0000
  S   S20       1.0  0.39825  0.88437  0.37107  1.0000
  H   H163      1.0  0.17940  0.52531  0.60038  1.0000
  Fe  Fe11      1.0  0.35808  0.81725  0.37156  1.0000
  S   S21       1.0  0.29230  0.78156  0.38634  1.0000
  Fe  Fe12      1.0  0.42169  0.87665  0.32448  1.0000
  S   S22       1.0  0.40238  0.80576  0.39566  1.0000
  H   H164      1.0  0.18533  0.48927  0.47090  1.0000
  C   C183      1.0  0.23185  0.69352  0.46898  1.0000
  C   C184      1.0  0.27345  0.71980  0.46881  1.0000
  C   C185      1.0  0.29267  0.74573  0.44329  1.0000
  C   C186      1.0  0.27038  0.74647  0.41774  1.0000
  C   C187      1.0  0.22893  0.71963  0.41762  1.0000
  C   C188      1.0  0.20986  0.69306  0.44281  1.0000
  H   H165      1.0  0.32447  0.76614  0.44387  1.0000
  H   H166      1.0  0.21122  0.71985  0.39813  1.0000
  H   H167      1.0  0.17785  0.67345  0.44257  1.0000
  S   S23       1.0  0.05573  0.50860  0.43055  1.0000
  Fe  Fe13      1.0  0.08415  0.52664  0.48014  1.0000
  S   S24       1.0  0.08451  0.57657  0.50777  1.0000
  Fe  Fe14      1.0  0.14614  0.52449  0.52688  1.0000
  S   S25       1.0  0.14804  0.57302  0.55601  1.0000
  S   S26       1.0  0.19073  0.50314  0.53701  1.0000
  Fe  Fe15      1.0  0.08082  0.54060  0.55112  1.0000
  S   S27       1.0  0.03957  0.51857  0.59508  1.0000
  Fe  Fe16      1.0  0.15201  0.60369  0.50990  1.0000
  S   S28       1.0  0.20846  0.66538  0.50364  1.0000
  C   C189      1.0  0.20490  0.52101  0.60074  1.0000
  S   S29       1.0  0.15150  0.55557  0.48106  1.0000
  H   H168      1.0  0.40095  0.62812  0.57363  1.0000
  H   H169      1.0  0.29082  0.72038  0.48875  1.0000
  H   H170      1.0  0.24792  0.55265  0.46159  1.0000
  H   H171      1.0  0.36334  0.59700  0.35566  1.0000
  H   H172      1.0  0.40369  0.54345  0.47160  1.0000
  C   C190      1.0  0.24977  0.50445  0.57443  1.0000
  C   C191      1.0  0.31747  0.69311  0.35619  1.0000
  S   S30       1.0  0.44632  0.53797  0.60517  1.0000
  C   C192      1.0  0.21663  0.51017  0.57320  1.0000
  C   C193      1.0  0.21879  0.49759  0.32594  1.0000
  C   C194      1.0  0.27084  0.50947  0.60262  1.0000
  C   C195      1.0  0.14597  0.56462  0.36335  1.0000
  C   C196      1.0  0.34791  0.55362  0.31958  1.0000
  H   H173      1.0  0.42195  0.88479  0.61319  1.0000
  C   C197      1.0  0.41677  0.93619  0.62236  1.0000
  C   C198      1.0  0.35529  0.50612  0.36519  1.0000
  C   C199      1.0  0.36130  0.54370  0.37343  1.0000
  C   C200      1.0  0.35759  0.56742  0.35035  1.0000
  C   C201      1.0  0.25868  0.51962  0.63023  1.0000
  C   C202      1.0  0.33629  0.53641  0.44053  1.0000
  C   C203      1.0  0.33789  0.55359  0.46986  1.0000
  C   C204      1.0  0.30636  0.53448  0.49114  1.0000
  H   H174      1.0  0.44788  0.51941  0.54029  1.0000
  H   H175      1.0  0.35910  0.52199  0.58016  1.0000
  C   C205      1.0  0.27148  0.48038  0.45455  1.0000
  H   H176      1.0  0.35358  0.71318  0.57942  1.0000
  C   C206      1.0  0.40960  0.90275  0.60502  1.0000
  C   C207      1.0  0.42312  0.54476  0.45299  1.0000
  H   H177      1.0  0.27883  0.82673  0.47388  1.0000
  C   C208      1.0  0.36648  0.62776  0.42016  1.0000
  C   C209      1.0  0.22560  0.52538  0.62905  1.0000
  H   H178      1.0  0.36336  0.58189  0.47625  1.0000
  H   H179      1.0  0.30732  0.54815  0.51351  1.0000
  C   C210      1.0  0.43303  0.60755  0.54588  1.0000
  H   H180      1.0  0.20198  0.48079  0.34613  1.0000
  C   C211      1.0  0.15920  0.56031  0.30843  1.0000
  H   H181      1.0  0.35766  0.67827  0.42328  1.0000
  S   S31       1.0  0.07882  0.49010  0.52309  1.0000
  C   C212      1.0  0.29471  0.73441  0.56439  1.0000
  C   C213      1.0  0.42903  0.72160  0.30258  1.0000
  H   H182      1.0  0.14927  0.48928  0.37612  1.0000
  C   C214      1.0  0.41849  0.68121  0.30314  1.0000
  C   C215      1.0  0.34387  0.80454  0.57088  1.0000
  C   C216      1.0  0.32318  0.77090  0.55166  1.0000
  P   P6        1.0  0.38097  0.85137  0.55388  1.0000
  C   C217      1.0  0.38741  0.89310  0.57711  1.0000
  C   C218      1.0  0.42878  0.85384  0.55312  1.0000
  H   H183      1.0  0.26231  0.58442  0.40959  1.0000
  H   H184      1.0  0.45409  0.63337  0.39889  1.0000
  H   H185      1.0  0.32700  0.85241  0.42993  1.0000
  H   H186      1.0  0.37135  0.52816  0.52306  1.0000
  C   C219      1.0  0.43175  0.81986  0.55881  1.0000
  C   C220      1.0  0.37278  0.91770  0.56677  1.0000
  C   C221      1.0  0.22908  0.53748  0.32186  1.0000
  H   H187      1.0  0.43387  0.58890  0.56444  1.0000
  C   C222      1.0  0.37880  0.66827  0.41894  1.0000
  C   C223      1.0  0.00318  0.51304  0.62384  1.0000
  C   C224      1.0  0.36461  0.85435  0.51480  1.0000
  C   C225      1.0  0.39173  0.86932  0.48977  1.0000
  C   C226      1.0  0.37813  0.86895  0.45939  1.0000
  H   H188      1.0  0.40844  0.66472  0.32479  1.0000
  C   C227      1.0  0.34201  0.51619  0.31165  1.0000
  C   C228      1.0  0.32389  0.83996  0.50897  1.0000
  H   H189      1.0  0.27791  0.70888  0.54923  1.0000
  C   C229      1.0  0.41801  0.69591  0.41062  1.0000
  H   H190      1.0  0.35257  0.82573  0.61876  1.0000
  C   C230      1.0  0.23040  0.47881  0.30381  1.0000
  H   H191      1.0  0.32850  0.77296  0.52668  1.0000
  H   H192      1.0  0.46081  0.70525  0.57815  1.0000
  H   H193      1.0  0.03027  0.50548  0.36653  1.0000
  H   H194      1.0  0.40539  0.79132  0.56265  1.0000
  H   H195      1.0  0.35627  0.91162  0.54511  1.0000
  H   H196      1.0  0.07375  0.56409  0.31782  1.0000
  C   C231      1.0  0.11152  0.56552  0.35530  1.0000
  C   C232      1.0  0.38029  0.95132  0.58409  1.0000
  C   C233      1.0  0.44977  0.63339  0.49310  1.0000
  H   H197      1.0  0.42328  0.88086  0.49333  1.0000
  H   H198      1.0  0.39914  0.88034  0.44021  1.0000
  C   C234      1.0  0.36521  0.50112  0.53490  1.0000
  C   C235      1.0  0.44906  0.72717  0.62043  1.0000
  H   H199      1.0  0.30234  0.82853  0.52788  1.0000
  S   S32       1.0  0.42633  0.74478  0.33797  1.0000
  C   C236      1.0  0.98637  0.53762  0.62416  1.0000
  C   C237      1.0  0.27783  0.68431  0.35703  1.0000
  H   H200      1.0  0.33402  0.93131  0.36959  1.0000
  C   C238      1.0  0.28138  0.62977  0.49797  1.0000
  C   C239      1.0  0.25770  0.60884  0.52357  1.0000
  C   C240      1.0  0.27537  0.61033  0.55239  1.0000
  C   C241      1.0  0.31671  0.63319  0.55586  1.0000
  C   C242      1.0  0.34058  0.65578  0.53063  1.0000
  C   C243      1.0  0.32281  0.65257  0.50129  1.0000
  P   P7        1.0  0.39379  0.68683  0.53553  1.0000
  C   C244      1.0  0.40536  0.70618  0.57499  1.0000
  C   C245      1.0  0.41500  0.65565  0.52763  1.0000
  H   H201      1.0  0.34152  0.72377  0.35720  1.0000
  C   C246      1.0  0.16981  0.56141  0.34001  1.0000
  P   P8        1.0  0.21554  0.56274  0.35082  1.0000
  C   C247      1.0  0.38021  0.71678  0.59067  1.0000
  C   C248      1.0  0.43145  0.65610  0.49820  1.0000
  H   H202      1.0  0.25897  0.49551  0.55364  1.0000
  C   C249      1.0  0.00418  0.48493  0.37963  1.0000
  C   C250      1.0  0.41366  0.73041  0.51077  1.0000
  C   C251      1.0  0.38970  0.74651  0.50202  1.0000
  C   C252      1.0  0.40538  0.78078  0.48351  1.0000
  C   C253      1.0  0.44032  0.71224  0.58989  1.0000
  C   C254      1.0  0.22721  0.53844  0.44247  1.0000
  H   H203      1.0  0.24839  0.48331  0.49971  1.0000
  H   H204      1.0  0.26730  0.62884  0.47580  1.0000
  H   H205      1.0  0.22558  0.59146  0.52112  1.0000
  H   H206      1.0  0.25686  0.59381  0.57210  1.0000
  C   C255      1.0  0.34568  0.49248  0.33443  1.0000
  H   H207      1.0  0.34070  0.66841  0.48117  1.0000
  C   C256      1.0  0.44368  0.55528  0.39863  1.0000
  C   C257      1.0  0.31041  0.83912  0.47846  1.0000
  H   H208      1.0  0.15384  0.56658  0.38791  1.0000
  H   H209      1.0  0.43055  0.67419  0.47929  1.0000
  H   H210      1.0  0.35686  0.66937  0.35312  1.0000
  C   C258      1.0  0.19182  0.50269  0.44782  1.0000
  H   H211      1.0  0.35899  0.73291  0.50963  1.0000
  H   H212      1.0  0.38673  0.79288  0.47649  1.0000
  H   H213      1.0  0.26521  0.70254  0.60627  1.0000
  C   C259      1.0  0.29512  0.62289  0.35251  1.0000
  C   C260      1.0  0.28743  0.73088  0.59657  1.0000
  C   C261      1.0  0.25521  0.61384  0.35330  1.0000
  C   C262      1.0  0.33752  0.85352  0.45365  1.0000
  H   H214      1.0  0.42719  0.72718  0.40852  1.0000
  H   H215      1.0  0.27110  0.70810  0.35871  1.0000
  C   C263      1.0  0.32608  0.66238  0.35391  1.0000
  C   C264      1.0  0.36484  0.95461  0.36677  1.0000
  H   H216      1.0  0.29554  0.50404  0.60332  1.0000
  C   C265      1.0  0.44500  0.68311  0.40367  1.0000
  C   C266      1.0  0.24676  0.64487  0.35585  1.0000
  C   C267      1.0  0.30277  0.49957  0.43309  1.0000
  H   H217      1.0  0.37088  0.93466  0.32117  1.0000
  H   H218      1.0  0.44033  0.56215  0.37461  1.0000
  C   C268      1.0  0.00759  0.48054  0.41212  1.0000
  C   C269      1.0  0.17172  0.50287  0.39424  1.0000
  C   C270      1.0  0.41464  0.63008  0.55105  1.0000
  H   H219      1.0  0.45000  0.95981  0.42851  1.0000
  H   H220      1.0  0.30222  0.59938  0.35073  1.0000
  H   H221      1.0  0.33558  0.60672  0.42549  1.0000
  C   C271      1.0  0.33676  0.80060  0.60328  1.0000
  C   C272      1.0  0.39360  0.61466  0.41358  1.0000
  C   C273      1.0  0.45106  0.60958  0.51711  1.0000
  H   H222      1.0  0.99620  0.56136  0.60718  1.0000
  H   H223      1.0  0.32977  0.63345  0.57835  1.0000
  C   C274      1.0  0.43293  0.64266  0.40516  1.0000
  C   C275      1.0  0.16404  0.48500  0.42375  1.0000
  P   P9        1.0  0.37680  0.56205  0.41279  1.0000
  C   C276      1.0  0.38552  0.95664  0.33940  1.0000
  C   C277      1.0  0.30859  0.76391  0.61601  1.0000
  C   C278      1.0  0.35776  0.49750  0.56706  1.0000
  C   C279      1.0  0.23516  0.55634  0.41292  1.0000
  H   H224      1.0  0.09313  0.56748  0.37362  1.0000
  C   C280      1.0  0.10072  0.56370  0.32391  1.0000
  C   C281      1.0  0.20745  0.53860  0.38850  1.0000
  C   C282      1.0  0.27321  0.49784  0.48349  1.0000
  C   C283      1.0  0.40229  0.96059  0.61184  1.0000
  C   C284      1.0  0.41772  0.55395  0.42227  1.0000
  C   C285      1.0  0.38926  0.73211  0.62109  1.0000
  C   C286      1.0  0.46375  0.89053  0.54836  1.0000
  H   H225      1.0  0.45749  0.82648  0.45998  1.0000
  H   H226      1.0  0.36954  0.73983  0.63322  1.0000
  C   C287      1.0  0.45404  0.75026  0.50193  1.0000
  H   H227      1.0  0.30028  0.48558  0.41073  1.0000
  C   C288      1.0  0.44530  0.79977  0.47419  1.0000
  H   H228      1.0  0.46612  0.59273  0.51360  1.0000
  H   H229      1.0  0.46223  0.91724  0.54405  1.0000
  C   C289      1.0  0.45374  0.53683  0.45994  1.0000
  H   H230      1.0  0.45762  0.52946  0.48361  1.0000
  H   H231      1.0  0.36961  0.97065  0.57576  1.0000
  H   H232      1.0  0.46345  0.63461  0.47068  1.0000
  Fe  Fe17      1.0  0.34513  0.53404  0.67715  1.0000
  H   H233      1.0  0.38526  0.66688  0.81845  1.0000
  S   S33       1.0  0.28210  0.52285  0.66696  1.0000
  Fe  Fe18      1.0  0.40121  0.52190  0.72327  1.0000
  C   C290      1.0  0.27531  0.54716  0.91694  1.0000
  S   S34       1.0  0.44539  0.67097  0.71488  1.0000
  Fe  Fe19      1.0  0.42260  0.60567  0.70149  1.0000
  H   H234      1.0  0.45252  0.58252  0.77248  1.0000
  C   C291      1.0  0.29538  0.67406  0.91834  1.0000
  S   S35       1.0  0.36928  0.55706  0.72537  1.0000
  S   S36       1.0  0.37127  0.49356  0.67708  1.0000
  H   H235      1.0  0.13563  0.63667  0.67070  1.0000
  Fe  Fe20      1.0  0.41068  0.80689  0.84369  1.0000
  S   S37       1.0  0.36499  0.81616  0.81902  1.0000
  S   S38       1.0  0.40974  0.74785  0.83479  1.0000
  Fe  Fe21      1.0  0.43451  0.88147  0.88691  1.0000
  S   S39       1.0  0.38949  0.89364  0.86368  1.0000
  C   C292      1.0  0.36097  0.56258  0.93879  1.0000
  Fe  Fe22      1.0  0.34806  0.82661  0.86729  1.0000
  S   S40       1.0  0.28239  0.79102  0.88297  1.0000
  Fe  Fe23      1.0  0.41146  0.88172  0.81775  1.0000
  S   S41       1.0  0.43549  0.91658  0.77108  1.0000
  S   S42       1.0  0.39220  0.81541  0.89201  1.0000
  S   S43       1.0  0.45652  0.57212  0.70071  1.0000
  C   C293      1.0  0.17454  0.61981  0.81978  1.0000
  H   H236      1.0  0.14492  0.59177  0.77705  1.0000
  P   P10       1.0  0.05797  0.55502  0.79000  1.0000
  C   C294      1.0  0.21568  0.48177  0.91725  1.0000
  H   H237      1.0  0.46200  0.75038  0.72838  1.0000
  C   C295      1.0  0.22153  0.70625  0.96722  1.0000
  H   H238      1.0  0.33585  0.73718  0.92011  1.0000
  H   H239      1.0  0.28571  0.60519  0.78984  1.0000
  C   C296      1.0  0.42319  0.49791  0.89974  1.0000
  H   H240      1.0  0.44809  0.78121  0.77404  1.0000
  C   C297      1.0  0.28176  0.76025  0.94233  1.0000
  C   C298      1.0  0.26056  0.75684  0.91488  1.0000
  C   C299      1.0  0.22006  0.72692  0.91343  1.0000
  C   C300      1.0  0.20082  0.70143  0.93918  1.0000
  H   H241      1.0  0.31287  0.78281  0.94381  1.0000
  H   H242      1.0  0.20313  0.72403  0.89248  1.0000
  H   H243      1.0  0.16944  0.67938  0.93787  1.0000
  C   C301      1.0  0.43106  0.69080  0.74697  1.0000
  C   C302      1.0  0.40840  0.66737  0.77229  1.0000
  C   C303      1.0  0.40142  0.68516  0.79858  1.0000
  C   C304      1.0  0.41580  0.72640  0.79964  1.0000
  H   H244      1.0  0.45497  0.57654  0.93919  1.0000
  C   C305      1.0  0.98415  0.50720  0.88912  1.0000
  C   C306      1.0  0.98996  0.48261  0.64653  1.0000
  C   C307      1.0  0.29741  0.59057  0.80435  1.0000
  C   C308      1.0  0.02289  0.63748  0.80093  1.0000
  C   C309      1.0  0.39852  0.60159  0.89392  1.0000
  C   C310      1.0  0.32504  0.63347  0.90563  1.0000
  H   H245      1.0  0.44282  0.97100  0.92985  1.0000
  H   H246      1.0  0.27434  0.57556  0.71392  1.0000
  C   C311      1.0  0.16481  0.65013  0.71567  1.0000
  C   C312      1.0  0.20133  0.66724  0.73150  1.0000
  C   C313      1.0  0.23740  0.68540  0.71467  1.0000
  C   C314      1.0  0.23615  0.68445  0.68181  1.0000
  P   P11       1.0  0.28520  0.70540  0.73406  1.0000
  C   C315      1.0  0.28142  0.70438  0.77614  1.0000
  C   C316      1.0  0.30447  0.67414  0.72121  1.0000
  C   C317      1.0  0.34176  0.69005  0.70641  1.0000
  C   C318      1.0  0.35447  0.66475  0.69461  1.0000
  C   C319      1.0  0.33027  0.62364  0.69750  1.0000
  C   C320      1.0  0.29320  0.60759  0.71223  1.0000
  C   C321      1.0  0.28031  0.63272  0.72410  1.0000
  C   C322      1.0  0.30353  0.69236  0.79459  1.0000
  C   C323      1.0  0.30335  0.69534  0.82722  1.0000
  C   C324      1.0  0.28099  0.71005  0.84157  1.0000
  C   C325      1.0  0.25922  0.72229  0.82333  1.0000
  C   C326      1.0  0.26021  0.72041  0.79075  1.0000
  C   C327      1.0  0.31837  0.75728  0.72513  1.0000
  C   C328      1.0  0.30560  0.77898  0.70702  1.0000
  C   C329      1.0  0.33104  0.81973  0.70199  1.0000
  C   C330      1.0  0.36907  0.83917  0.71541  1.0000
  C   C331      1.0  0.38174  0.81789  0.73380  1.0000
  C   C332      1.0  0.35648  0.77719  0.73883  1.0000
  H   H247      1.0  0.34019  0.60419  0.68816  1.0000
  C   C333      1.0  0.05746  0.56599  0.69446  1.0000
  H   H248      1.0  0.20098  0.66551  0.75671  1.0000
  H   H249      1.0  0.26352  0.69642  0.66842  1.0000
  H   H250      1.0  0.36109  0.72173  0.70366  1.0000
  H   H251      1.0  0.38331  0.67683  0.68339  1.0000
  H   H252      1.0  0.25119  0.61978  0.73500  1.0000
  H   H253      1.0  0.32249  0.68256  0.78391  1.0000
  H   H254      1.0  0.32209  0.68806  0.84130  1.0000
  H   H255      1.0  0.28177  0.71360  0.86673  1.0000
  H   H256      1.0  0.24292  0.73488  0.83447  1.0000
  H   H257      1.0  0.24515  0.73237  0.77700  1.0000
  H   H258      1.0  0.27576  0.76497  0.69746  1.0000
  H   H259      1.0  0.33962  0.53770  0.85549  1.0000
  C   C334      1.0  0.04585  0.61930  0.79662  1.0000
  H   H260      1.0  0.41078  0.83333  0.74502  1.0000
  H   H261      1.0  0.36644  0.76150  0.75400  1.0000
  C   C335      1.0  0.29133  0.63685  0.91255  1.0000
  H   H262      1.0  0.99875  0.53918  0.88701  1.0000
  C   C336      1.0  0.14078  0.59741  0.80111  1.0000
  H   H263      1.0  0.07784  0.63775  0.79383  1.0000
  C   C337      1.0  0.17020  0.62807  0.85092  1.0000
  C   C338      1.0  0.23177  0.52436  0.96260  1.0000
  S   S44       1.0  0.39751  0.58425  0.65320  1.0000
  C   C339      1.0  0.24996  0.51091  0.90200  1.0000
  H   H264      1.0  0.06296  0.51176  0.84585  1.0000
  C   C340      1.0  0.26609  0.55352  0.94748  1.0000
  H   H265      1.0  0.13708  0.63641  0.72871  1.0000
  H   H266      1.0  0.39753  0.63575  0.77214  1.0000
  C   C341      1.0  0.13212  0.61382  0.86349  1.0000
  C   C342      1.0  0.34774  0.92276  0.93924  1.0000
  C   C343      1.0  0.44376  0.95600  0.74462  1.0000
  H   H267      1.0  0.04391  0.57618  0.67734  1.0000
  C   C344      1.0  0.31526  0.57727  0.85568  1.0000
  C   C345      1.0  0.08935  0.53628  0.73839  1.0000
  H   H268      1.0  0.26934  0.67650  0.92386  1.0000
  H   H269      1.0  0.45881  0.61297  0.89026  1.0000
  C   C346      1.0  0.09837  0.59149  0.84493  1.0000
  H   H270      1.0  0.03400  0.58211  0.73349  1.0000
  H   H271      1.0  0.38876  0.66695  0.89663  1.0000
  H   H272      1.0  0.30917  0.56295  0.76526  1.0000
  H   H273      1.0  0.43410  0.94369  0.64375  1.0000
  C   C347      1.0  0.36457  0.94966  0.96398  1.0000
  C   C348      1.0  0.16395  0.65022  0.68297  1.0000
  H   H274      1.0  0.12863  0.61994  0.88772  1.0000
  H   H275      1.0  0.28903  0.61420  0.84711  1.0000
  C   C349      1.0  0.36632  0.70537  0.90870  1.0000
  C   C350      1.0  0.46133  0.97666  0.95030  1.0000
  C   C351      1.0  0.36251  0.66816  0.90335  1.0000
  P   P12       1.0  0.31964  0.58531  0.89754  1.0000
  C   C352      1.0  0.98600  0.55454  0.79918  1.0000
  H   H276      1.0  0.39194  0.48550  0.89399  1.0000
  C   C353      1.0  0.29953  0.59572  0.83683  1.0000
  H   H277      1.0  0.34160  0.93226  0.91712  1.0000
  H   H278      1.0  0.20414  0.63086  0.81016  1.0000
  H   H279      1.0  0.38844  0.87098  0.71238  1.0000
  H   H280      1.0  0.19629  0.64555  0.86538  1.0000
  H   H281      1.0  0.26173  0.61094  0.91315  1.0000
  C   C354      1.0  0.02762  0.57766  0.79610  1.0000
  C   C355      1.0  0.06825  0.55480  0.74872  1.0000
  C   C356      1.0  0.43657  0.74947  0.77363  1.0000
  H   H282      1.0  0.40062  0.61718  0.87229  1.0000
  Fe  Fe24      1.0  0.42547  0.54517  0.65443  1.0000
  C   C357      1.0  0.99582  0.49044  0.91334  1.0000
  C   C358      1.0  0.04038  0.49094  0.83008  1.0000
  C   C359      1.0  0.32794  0.55283  0.84155  1.0000
  C   C360      1.0  0.31068  0.56677  0.79046  1.0000
  C   C361      1.0  0.43164  0.59926  0.90400  1.0000
  H   H283      1.0  0.44296  0.53538  0.85938  1.0000
  H   H284      1.0  0.39512  0.73216  0.90592  1.0000
  C   C362      1.0  0.36279  0.58315  0.91120  1.0000
  C   C363      1.0  0.32588  0.54786  0.80904  1.0000
  H   H285      1.0  0.19874  0.66633  0.64066  1.0000
  C   C364      1.0  0.09509  0.53336  0.70636  1.0000
  H   H286      1.0  0.33625  0.52942  0.79815  1.0000
  H   H287      1.0  0.32575  0.86255  0.92385  1.0000
  C   C365      1.0  0.33286  0.70829  0.91639  1.0000
  C   C366      1.0  0.03135  0.50345  0.80192  1.0000
  H   H288      1.0  0.33390  0.54760  0.95241  1.0000
  H   H289      1.0  0.10060  0.52329  0.75509  1.0000
  H   H290      1.0  0.25637  0.50501  0.87859  1.0000
  C   C367      1.0  0.07906  0.54812  0.68441  1.0000
  H   H291      1.0  0.11107  0.51872  0.69846  1.0000
  H   H292      1.0  0.40578  0.97329  0.76815  1.0000
  S   S45       1.0  0.39777  0.49190  0.77092  1.0000
  H   H293      1.0  0.06904  0.58064  0.85515  1.0000
  H   H294      1.0  0.08250  0.54484  0.65953  1.0000
  C   C368      1.0  0.98157  0.61424  0.80452  1.0000
  H   H295      1.0  0.43043  0.74846  0.65977  1.0000
  C   C369      1.0  0.39417  0.56041  0.94886  1.0000
  S   S46       1.0  0.45814  0.87178  0.84120  1.0000
  C   C370      1.0  0.10236  0.58289  0.81362  1.0000
  C   C371      1.0  0.42947  0.57872  0.93148  1.0000
  C   C372      1.0  0.05199  0.56933  0.72645  1.0000
  H   H296      1.0  0.28528  0.58115  0.95956  1.0000
  H   H297      1.0  0.21564  0.53289  0.65028  1.0000
  S   S47       1.0  0.03468  0.52255  0.94011  1.0000
  C   C373      1.0  0.44447  0.73185  0.74770  1.0000
  C   C374      1.0  0.33898  0.88352  0.94298  1.0000
  C   C375      1.0  0.19960  0.66716  0.66604  1.0000
  H   H298      1.0  0.03713  0.66960  0.80158  1.0000
  H   H299      1.0  0.99338  0.48400  0.76080  1.0000
  H   H300      1.0  0.44777  0.66779  0.95051  1.0000
  H   H301      1.0  0.32097  0.83662  0.68846  1.0000
  C   C376      1.0  0.26227  0.73560  0.96838  1.0000
  C   C377      1.0  0.45248  0.52632  0.88001  1.0000
  C   C378      1.0  0.43418  0.48483  0.92638  1.0000
  C   C379      1.0  0.20654  0.48855  0.94748  1.0000
  H   H302      1.0  0.30297  0.76125  0.64094  1.0000
  H   H303      1.0  0.97089  0.52244  0.79832  1.0000
  C   C380      1.0  0.42360  0.73714  0.63600  1.0000
  H   H304      1.0  0.71149  0.40806  0.22736  1.0000
  Fe  Fe25      1.0  0.79155  0.34918  0.26440  1.0000
  S   S48       1.0  0.79819  0.40167  0.23771  1.0000
  S   S49       1.0  0.73914  0.28606  0.25491  1.0000
  Fe  Fe26      1.0  0.86498  0.42685  0.24182  1.0000
  H   H305      1.0  0.81097  0.46816  0.06129  1.0000
  C   C381      1.0  0.48464  0.08265  0.26616  1.0000
  S   S50       1.0  0.86847  0.45987  0.28683  1.0000
  S   S51       1.0  0.85796  0.37263  0.26757  1.0000
  C   C382      1.0  0.68113  0.39979  0.05521  1.0000
  C   C383      1.0  0.63582  0.29019  0.14791  1.0000
  Fe  Fe27      1.0  0.51683  0.08678  0.07264  1.0000
  H   H306      1.0  0.94275  0.42820  0.14384  1.0000
  Fe  Fe28      1.0  0.57934  0.14575  0.12102  1.0000
  S   S52       1.0  0.53293  0.15291  0.14659  1.0000
  S   S53       1.0  0.64564  0.18821  0.13231  1.0000
  Fe  Fe29      1.0  0.49456  0.08610  0.14201  1.0000
  H   H307      1.0  0.68433  0.41246  0.12464  1.0000
  Fe  Fe30      1.0  0.51153  0.15852  0.09857  1.0000
  H   H308      1.0  0.50721  0.45348  0.10773  1.0000
  S   S54       1.0  0.54205  0.07816  0.11812  1.0000
  S   S55       1.0  0.55913  0.15324  0.07310  1.0000
  H   H309      1.0  0.48425  0.17239  0.21175  1.0000
  C   C384      1.0  0.50676  0.19137  0.22858  1.0000
  H   H310      1.0  0.69098  0.44526  0.02136  1.0000
  C   C385      1.0  0.49987  0.23604  0.05479  1.0000
  C   C386      1.0  0.60526  0.26881  0.16949  1.0000
  S   S56       1.0  0.49448  0.05142  0.02621  1.0000
  C   C387      1.0  0.58939  0.40566  0.08993  1.0000
  H   H311      1.0  0.52295  0.09455  0.22622  1.0000
  C   C388      1.0  0.48430  0.43853  0.12529  1.0000
  C   C389      1.0  0.66914  0.21721  0.16646  1.0000
  C   C390      1.0  0.65314  0.20482  0.19650  1.0000
  C   C391      1.0  0.67487  0.22642  0.22312  1.0000
  C   C392      1.0  0.71219  0.26150  0.22021  1.0000
  C   C393      1.0  0.72736  0.27490  0.19010  1.0000
  C   C394      1.0  0.70636  0.25244  0.16352  1.0000
  H   H312      1.0  0.62490  0.17761  0.19929  1.0000
  H   H313      1.0  0.66301  0.21554  0.24625  1.0000
  H   H314      1.0  0.75594  0.30174  0.18742  1.0000
  H   H315      1.0  0.71913  0.26227  0.14047  1.0000
  C   C395      1.0  0.92649  0.41948  0.05424  1.0000
  H   H316      1.0  0.63218  0.40105  0.98930  1.0000
  C   C396      1.0  0.76572  0.42538  0.16464  1.0000
  H   H317      1.0  0.60386  0.30421  0.05203  1.0000
  H   H318      1.0  0.82931  0.45258  0.11816  1.0000
  H   H319      1.0  0.70803  0.41914  0.06808  1.0000
  H   H320      1.0  0.47113  0.34268  0.03379  1.0000
  H   H321      1.0  0.73308  0.35542  0.05093  1.0000
  C   C397      1.0  0.70366  0.25790  0.04028  1.0000
  C   C398      1.0  0.67235  0.24104  0.06182  1.0000
  C   C399      1.0  0.66256  0.26523  0.07944  1.0000
  C   C400      1.0  0.68480  0.30674  0.07614  1.0000
  C   C401      1.0  0.71622  0.32351  0.05439  1.0000
  P   P13       1.0  0.67035  0.33853  0.09591  1.0000
  C   C402      1.0  0.63025  0.31083  0.12326  1.0000
  C   C403      1.0  0.71002  0.37443  0.12033  1.0000
  C   C404      1.0  0.56949  0.21190  0.25491  1.0000
  C   C405      1.0  0.72533  0.29911  0.03632  1.0000
  C   C406      1.0  0.82460  0.42728  0.03720  1.0000
  C   C407      1.0  0.76719  0.39222  0.15389  1.0000
  C   C408      1.0  0.73961  0.36688  0.13169  1.0000
  C   C409      1.0  0.65632  0.36003  0.06434  1.0000
  C   C410      1.0  0.62288  0.33526  0.04594  1.0000
  C   C411      1.0  0.61419  0.35007  0.01907  1.0000
  H   H322      1.0  0.65540  0.20903  0.06492  1.0000
  H   H323      1.0  0.63739  0.25109  0.09528  1.0000
  C   C412      1.0  0.56374  0.28969  0.14285  1.0000
  H   H324      1.0  0.71088  0.23890  0.02658  1.0000
  H   H325      1.0  0.78934  0.38584  0.16332  1.0000
  H   H326      1.0  0.74056  0.34070  0.12439  1.0000
  H   H327      1.0  0.58967  0.32788  0.10336  1.0000
  H   H328      1.0  0.66363  0.29021  0.15023  1.0000
  H   H329      1.0  0.58869  0.33068  0.00467  1.0000
  C   C413      1.0  0.54942  0.38448  0.09939  1.0000
  C   C414      1.0  0.51004  0.29600  0.02712  1.0000
  H   H330      1.0  0.54508  0.25114  0.18301  1.0000
  C   C415      1.0  0.56502  0.24006  0.27234  1.0000
  C   C416      1.0  0.61587  0.25733  0.99905  1.0000
  H   H331      1.0  0.54420  0.16620  0.21968  1.0000
  C   C417      1.0  0.68985  0.38207  0.24019  1.0000
  H   H332      1.0  0.80652  0.34695  0.05448  1.0000
  H   H333      1.0  0.60954  0.25222  0.18799  1.0000
  H   H334      1.0  0.53304  0.29560  0.07294  1.0000
  C   C418      1.0  0.50287  0.22042  0.24489  1.0000
  C   C419      1.0  0.54039  0.18762  0.23323  1.0000
  C   C420      1.0  0.56909  0.26831  0.16678  1.0000
  H   H335      1.0  0.74638  0.41965  0.97607  1.0000
  S   S57       1.0  0.75837  0.45264  0.29638  1.0000
  H   H336      1.0  0.74906  0.31207  0.01912  1.0000
  H   H337      1.0  0.61110  0.39958  0.10058  1.0000
  H   H338      1.0  0.53549  0.28874  0.14036  1.0000
  C   C421      1.0  0.53227  0.24520  0.26626  1.0000
  C   C422      1.0  0.70813  0.40726  0.13185  1.0000
  H   H339      1.0  0.73456  0.45812  0.16257  1.0000
  H   H340      1.0  0.65842  0.28396  0.24838  1.0000
  H   H341      1.0  0.57833  0.22868  0.03908  1.0000
  C   C423      1.0  0.73623  0.43292  0.15360  1.0000
  H   H342      1.0  0.77908  0.28863  0.08950  1.0000
  H   H343      1.0  0.47728  0.22403  0.24070  1.0000
  C   C424      1.0  0.66584  0.38572  0.26282  1.0000
  C   C425      1.0  0.68667  0.34517  0.23479  1.0000
  H   H344      1.0  0.64051  0.27925  0.01286  1.0000
  C   C426      1.0  0.51895  0.08793  0.25107  1.0000
  H   H345      1.0  0.52329  0.32797  0.02645  1.0000
  P   P14       1.0  0.86245  0.43210  0.06460  1.0000
  C   C427      1.0  0.84239  0.38914  0.09018  1.0000
  H   H346      1.0  0.52249  0.17873  0.00813  1.0000
  H   H347      1.0  0.59566  0.20894  0.25768  1.0000
  H   H348      1.0  0.76231  0.46354  0.02230  1.0000
  C   C428      1.0  0.47625  0.21307  0.02979  1.0000
  C   C429      1.0  0.85475  0.39310  0.12151  1.0000
  C   C430      1.0  0.84005  0.35981  0.14106  1.0000
  C   C431      1.0  0.81257  0.32224  0.12959  1.0000
  C   C432      1.0  0.80022  0.31789  0.09840  1.0000
  C   C433      1.0  0.81545  0.35112  0.07869  1.0000
  H   H349      1.0  0.83125  0.38655  0.00657  1.0000
  C   C434      1.0  0.49025  0.01433  0.99900  1.0000
  C   C435      1.0  0.54723  0.08303  0.26765  1.0000
  C   C436      1.0  0.91415  0.45546  0.01351  1.0000
  C   C437      1.0  0.67202  0.41460  0.02849  1.0000
  H   H350      1.0  0.89792  0.46923  0.00434  1.0000
  C   C438      1.0  0.58096  0.22875  0.01379  1.0000
  H   H351      1.0  0.52949  0.26839  0.27801  1.0000
  H   H352      1.0  0.78705  0.44483  0.18198  1.0000
  H   H353      1.0  0.52772  0.99774  0.02419  1.0000
  C   C439      1.0  0.48616  0.27298  0.00224  1.0000
  C   C440      1.0  0.77652  0.44585  0.01947  1.0000
  C   C441      1.0  0.51609  0.27754  0.05339  1.0000
  C   C442      1.0  0.63925  0.35274  0.28062  1.0000
  H   H354      1.0  0.87583  0.42185  0.13097  1.0000
  H   H355      1.0  0.84995  0.36333  0.16523  1.0000
  H   H356      1.0  0.80107  0.29648  0.14484  1.0000
  C   C443      1.0  0.59435  0.31124  0.12137  1.0000
  C   C444      1.0  0.94631  0.45861  0.99637  1.0000
  Fe  Fe31      1.0  0.80064  0.42866  0.28524  1.0000
  H   H357      1.0  0.95610  0.45115  0.25897  1.0000
  H   H358      1.0  0.51240  0.42850  0.05159  1.0000
  H   H359      1.0  0.70549  0.34227  0.21747  1.0000
  H   H360      1.0  0.62102  0.35646  0.29796  1.0000
  C   C445      1.0  0.54907  0.20036  0.99600  1.0000
  C   C446      1.0  0.66013  0.31218  0.25253  1.0000
  P   P15       1.0  0.60374  0.27282  0.29909  1.0000
  C   C447      1.0  0.90370  0.43545  0.04241  1.0000
  H   H361      1.0  0.54083  0.36212  0.11742  1.0000
  C   C448      1.0  0.60146  0.43508  0.06696  1.0000
  S   S58       1.0  0.55798  0.40759  0.97718  1.0000
  S   S59       1.0  0.90505  0.44133  0.19746  1.0000
  C   C449      1.0  0.52120  0.39256  0.08577  1.0000
  H   H362      1.0  0.66880  0.41452  0.26722  1.0000
  C   C450      1.0  0.80448  0.44856  0.04150  1.0000
  C   C451      1.0  0.63699  0.31590  0.27613  1.0000
  H   H363      1.0  0.50717  0.01538  0.19453  1.0000
  H   H364      1.0  0.47893  0.34429  0.16239  1.0000
  C   C452      1.0  0.53358  0.42181  0.06246  1.0000
  H   H365      1.0  0.63240  0.45180  0.05976  1.0000
  H   H366      1.0  0.91986  0.40509  0.07692  1.0000
  C   C453      1.0  0.63872  0.38971  0.01036  1.0000
  S   S60       1.0  0.50639  0.21429  0.08960  1.0000
  H   H367      1.0  0.57340  0.08636  0.25566  1.0000
  C   C454      1.0  0.94192  0.47509  0.17012  1.0000
  C   C455      1.0  0.81562  0.40268  0.01078  1.0000
  C   C456      1.0  0.78725  0.39967  0.98901  1.0000
  C   C457      1.0  0.48183  0.00081  0.21013  1.0000
  C   C458      1.0  0.95491  0.45995  0.14562  1.0000
  C   C459      1.0  0.50926  0.99220  0.00371  1.0000
  C   C460      1.0  0.57359  0.44316  0.05329  1.0000
  C   C461      1.0  0.47665  0.46164  0.14613  1.0000
  H   H368      1.0  0.48714  0.10664  0.98849  1.0000
  C   C462      1.0  0.76773  0.42130  0.99332  1.0000
  C   C463      1.0  0.47840  0.07215  0.29785  1.0000
  H   H369      1.0  0.58291  0.46605  0.03551  1.0000
  C   C464      1.0  0.95866  0.42265  0.03695  1.0000
  C   C465      1.0  0.54108  0.07242  0.29931  1.0000
  S   S61       1.0  0.47506  0.29408  0.96921  1.0000
  H   H370      1.0  0.46794  0.28132  0.18529  1.0000
  H   H371      1.0  0.95456  0.47449  0.97425  1.0000
  S   S62       1.0  0.46798  0.09257  0.09665  1.0000
  P   P16       1.0  0.46981  0.36677  0.09863  1.0000
  C   C466      1.0  0.46909  0.23145  0.00400  1.0000
  C   C467      1.0  0.46729  0.31807  0.14776  1.0000
  S   S63       1.0  0.88621  0.40427  0.36052  1.0000
  Fe  Fe32      1.0  0.51698  0.43454  0.40993  1.0000
  C   C468      1.0  0.55688  0.30220  0.38868  1.0000
  Fe  Fe33      1.0  0.50970  0.36408  0.45019  1.0000
  S   S64       1.0  0.56577  0.40383  0.47589  1.0000
  S   S65       1.0  0.48448  0.40537  0.45509  1.0000
  Fe  Fe34      1.0  0.54222  0.44634  0.47947  1.0000
  Fe  Fe35      1.0  0.59198  0.42978  0.42855  1.0000
  S   S66       1.0  0.65090  0.43008  0.41834  1.0000
  S   S67       1.0  0.53594  0.38850  0.40233  1.0000
  C   C469      1.0  0.72657  0.44313  0.32976  1.0000
  C   C470      1.0  0.53098  0.26965  0.37036  1.0000
  H   H372      1.0  0.72899  0.33255  0.36434  1.0000
  C   C471      1.0  0.67773  0.43338  0.38312  1.0000
  C   C472      1.0  0.69031  0.24817  0.32680  1.0000
  C   C473      1.0  0.51770  0.99305  0.50254  1.0000
  H   H373      1.0  0.70825  0.40566  0.40418  1.0000
  H   H374      1.0  0.60463  0.24698  0.59866  1.0000
  C   C474      1.0  0.93310  0.43522  0.37986  1.0000
  H   H375      1.0  0.60904  0.15809  0.34278  1.0000
  C   C475      1.0  0.59240  0.04085  0.38348  1.0000
  C   C476      1.0  0.67408  0.45104  0.35570  1.0000
  Fe  Fe36      1.0  0.52662  0.09104  0.56170  1.0000
  S   S68       1.0  0.50731  0.05854  0.51377  1.0000
  Fe  Fe37      1.0  0.59025  0.14969  0.60928  1.0000
  C   C477      1.0  0.82372  0.28708  0.52813  1.0000
  H   H376      1.0  0.53690  0.00230  0.52288  1.0000
  H   H377      1.0  0.72268  0.26339  0.32692  1.0000
  Fe  Fe38      1.0  0.52255  0.16323  0.58779  1.0000
  S   S69       1.0  0.51896  0.22002  0.58017  1.0000
  S   S70       1.0  0.55199  0.08218  0.60707  1.0000
  S   S71       1.0  0.56967  0.15752  0.56176  1.0000
  C   C478      1.0  0.49073  0.27644  0.49523  1.0000
  H   H378      1.0  0.58067  0.08805  0.37300  1.0000
  C   C479      1.0  0.70517  0.41956  0.38328  1.0000
  C   C480      1.0  0.50853  0.24077  0.54653  1.0000
  C   C481      1.0  0.48401  0.21729  0.52204  1.0000
  S   S72       1.0  0.54441  0.47140  0.52904  1.0000
  C   C482      1.0  0.78476  0.44927  0.58729  1.0000
  H   H379      1.0  0.52774  0.33174  0.51907  1.0000
  C   C483      1.0  0.62638  0.18883  0.33544  1.0000
  C   C484      1.0  0.49910  0.01451  0.49370  1.0000
  C   C485      1.0  0.77601  0.33645  0.39363  1.0000
  H   H380      1.0  0.72548  0.45292  0.45771  1.0000
  H   H381      1.0  0.47138  0.18539  0.52288  1.0000
  H   H382      1.0  0.77279  0.37899  0.48685  1.0000
  C   C486      1.0  0.56816  0.05624  0.37432  1.0000
  H   H383      1.0  0.64093  0.14284  0.39515  1.0000
  C   C487      1.0  0.51466  0.09080  0.41247  1.0000
  H   H384      1.0  0.80662  0.25604  0.53476  1.0000
  Fe  Fe39      1.0  0.85907  0.40479  0.31213  1.0000
  C   C488      1.0  0.73068  0.43657  0.47599  1.0000
  H   H385      1.0  0.87015  0.34564  0.46493  1.0000
  C   C489      1.0  0.52387  0.28215  0.54518  1.0000
  H   H386      1.0  0.58711  0.11621  0.48653  1.0000
  C   C490      1.0  0.63593  0.15276  0.41745  1.0000
  C   C491      1.0  0.63414  0.41612  0.56387  1.0000
  S   S73       1.0  0.49937  0.46738  0.37313  1.0000
  H   H387      1.0  0.56291  0.06773  0.31131  1.0000
  C   C492      1.0  0.85796  0.44218  0.53355  1.0000
  H   H388      1.0  0.59501  0.98761  0.39251  1.0000
  S   S74       1.0  0.47821  0.09738  0.58619  1.0000
  H   H389      1.0  0.91036  0.40929  0.42519  1.0000
  C   C493      1.0  0.65436  0.19349  0.42386  1.0000
  C   C494      1.0  0.64902  0.20657  0.45310  1.0000
  C   C495      1.0  0.62436  0.17838  0.47552  1.0000
  P   P17       1.0  0.67584  0.25866  0.46336  1.0000
  C   C496      1.0  0.64292  0.27903  0.46447  1.0000
  C   C497      1.0  0.69658  0.26141  0.50174  1.0000
  C   C498      1.0  0.70950  0.23474  0.51023  1.0000
  C   C499      1.0  0.72106  0.23360  0.54104  1.0000
  C   C500      1.0  0.72085  0.25971  0.56331  1.0000
  C   C501      1.0  0.70940  0.28718  0.55474  1.0000
  C   C502      1.0  0.69725  0.28804  0.52410  1.0000
  C   C503      1.0  0.65857  0.32013  0.46065  1.0000
  C   C504      1.0  0.63359  0.33637  0.46192  1.0000
  C   C505      1.0  0.59271  0.31170  0.46673  1.0000
  C   C506      1.0  0.57691  0.27081  0.47035  1.0000
  C   C507      1.0  0.60183  0.25450  0.46954  1.0000
  C   C508      1.0  0.71517  0.28749  0.43560  1.0000
  C   C509      1.0  0.75527  0.30065  0.44286  1.0000
  C   C510      1.0  0.78550  0.32498  0.42183  1.0000
  C   C511      1.0  0.73620  0.32331  0.38617  1.0000
  C   C512      1.0  0.70583  0.29868  0.40692  1.0000
  H   H390      1.0  0.67336  0.21451  0.40626  1.0000
  H   H391      1.0  0.61996  0.18770  0.49838  1.0000
  H   H392      1.0  0.70922  0.21379  0.49340  1.0000
  H   H393      1.0  0.72897  0.21162  0.54799  1.0000
  H   H394      1.0  0.72855  0.25792  0.58741  1.0000
  H   H395      1.0  0.70858  0.30683  0.57215  1.0000
  H   H396      1.0  0.68720  0.30858  0.51820  1.0000
  H   H397      1.0  0.69004  0.33970  0.45655  1.0000
  H   H398      1.0  0.64577  0.36808  0.45883  1.0000
  H   H399      1.0  0.57323  0.32424  0.46738  1.0000
  H   H400      1.0  0.54524  0.25165  0.47381  1.0000
  H   H401      1.0  0.58870  0.22285  0.47289  1.0000
  H   H402      1.0  0.76338  0.29258  0.46473  1.0000
  H   H403      1.0  0.67513  0.28898  0.40080  1.0000
  C   C513      1.0  0.93642  0.43062  0.41233  1.0000
  H   H404      1.0  0.81651  0.33534  0.42723  1.0000
  H   H405      1.0  0.52905  0.18067  0.43583  1.0000
  S   S75       1.0  0.79167  0.37530  0.31154  1.0000
  C   C514      1.0  0.52143  0.12202  0.43245  1.0000
  C   C515      1.0  0.58489  0.28461  0.33373  1.0000
  C   C516      1.0  0.61106  0.31644  0.35293  1.0000
  C   C517      1.0  0.59695  0.32530  0.38012  1.0000
  C   C518      1.0  0.54496  0.26056  0.34316  1.0000
  H   H406      1.0  0.75046  0.41387  0.35764  1.0000
  C   C519      1.0  0.51975  0.15988  0.38811  1.0000
  C   C520      1.0  0.91807  0.37502  0.61362  1.0000
  H   H407      1.0  0.76280  0.41819  0.44562  1.0000
  H   H408      1.0  0.61821  0.38467  0.55886  1.0000
  H   H409      1.0  0.68330  0.19306  0.34403  1.0000
  C   C521      1.0  0.67478  0.34446  0.60856  1.0000
  H   H410      1.0  0.64232  0.33475  0.34680  1.0000
  H   H411      1.0  0.61701  0.35042  0.39445  1.0000
  H   H412      1.0  0.52453  0.23473  0.32973  1.0000
  C   C522      1.0  0.52413  0.15663  0.42027  1.0000
  C   C523      1.0  0.81597  0.46686  0.60896  1.0000
  C   C524      1.0  0.85744  0.35692  0.54255  1.0000
  H   H413      1.0  0.83202  0.41479  0.52624  1.0000
  C   C525      1.0  0.91972  0.39682  0.58682  1.0000
  Fe  Fe40      1.0  0.50513  0.09092  0.63143  1.0000
  S   S76       1.0  0.65682  0.18747  0.62205  1.0000
  H   H414      1.0  0.89043  0.35778  0.62637  1.0000
  H   H415      1.0  0.47629  0.35873  0.54981  1.0000
  C   C526      1.0  0.79930  0.35886  0.59992  1.0000
  H   H416      1.0  0.82799  0.27457  0.47956  1.0000
  C   C527      1.0  0.66807  0.20850  0.33631  1.0000
  H   H417      1.0  0.74159  0.33003  0.62260  1.0000
  C   C528      1.0  0.51238  0.98939  0.36797  1.0000
  H   H418      1.0  0.82641  0.30799  0.57507  1.0000
  C   C529      1.0  0.83474  0.31664  0.55089  1.0000
  C   C530      1.0  0.51198  0.12828  0.36813  1.0000
  C   C531      1.0  0.83587  0.29750  0.49706  1.0000
  H   H419      1.0  0.78758  0.34428  0.57777  1.0000
  C   C532      1.0  0.61180  0.12494  0.44005  1.0000
  H   H420      1.0  0.74717  0.37610  0.54054  1.0000
  C   C533      1.0  0.57656  0.99977  0.38508  1.0000
  C   C534      1.0  0.64523  0.33320  0.55690  1.0000
  H   H421      1.0  0.96554  0.46725  0.33891  1.0000
  H   H422      1.0  0.52406  0.11905  0.45750  1.0000
  C   C535      1.0  0.75153  0.41682  0.46913  1.0000
  C   C536      1.0  0.62361  0.27828  0.59321  1.0000
  C   C537      1.0  0.62085  0.29289  0.56400  1.0000
  C   C538      1.0  0.74243  0.39304  0.52265  1.0000
  C   C539      1.0  0.60593  0.13779  0.46900  1.0000
  H   H423      1.0  0.49998  0.25170  0.37730  1.0000
  C   C540      1.0  0.75716  0.39480  0.49240  1.0000
  P   P18       1.0  0.87516  0.39507  0.57218  1.0000
  C   C541      1.0  0.65054  0.30406  0.61546  1.0000
  H   H424      1.0  0.59757  0.09335  0.43539  1.0000
  C   C542      1.0  0.95573  0.41753  0.57021  1.0000
  C   C543      1.0  0.88463  0.44158  0.55548  1.0000
  C   C544      1.0  0.72226  0.41361  0.52994  1.0000
  H   H425      1.0  0.64256  0.34385  0.53407  1.0000
  C   C545      1.0  0.61302  0.43657  0.56280  1.0000
  H   H426      1.0  0.88982  0.39783  0.50468  1.0000
  C   C546      1.0  0.50652  0.06678  0.31468  1.0000
  C   C547      1.0  0.67524  0.43655  0.57057  1.0000
  S   S77       1.0  0.47975  0.29752  0.46206  1.0000
  H   H427      1.0  0.54584  0.30958  0.40949  1.0000
  H   H428      1.0  0.54242  0.30066  0.56410  1.0000
  H   H429      1.0  0.59942  0.27284  0.54699  1.0000
  H   H430      1.0  0.58150  0.42102  0.55692  1.0000
  C   C548      1.0  0.72913  0.42405  0.35680  1.0000
  C   C549      1.0  0.67257  0.35940  0.57908  1.0000
  P   P19       1.0  0.70392  0.41148  0.56930  1.0000
  C   C550      1.0  0.95230  0.37519  0.62422  1.0000
  H   H431      1.0  0.50773  0.13111  0.34345  1.0000
  C   C551      1.0  0.84042  0.38478  0.60382  1.0000
  C   C552      1.0  0.52792  0.03065  0.36675  1.0000
  H   H432      1.0  0.79968  0.35567  0.37762  1.0000
  C   C553      1.0  0.51545  0.29991  0.51964  1.0000
  C   C554      1.0  0.87029  0.36710  0.51140  1.0000
  C   C555      1.0  0.62923  0.24814  0.31402  1.0000
  C   C556      1.0  0.60701  0.20863  0.32446  1.0000
  H   H433      1.0  0.62339  0.06063  0.38945  1.0000
  H   H434      1.0  0.51273  0.06422  0.42236  1.0000
  C   C557      1.0  0.77309  0.35130  0.62498  1.0000
  C   C558      1.0  0.71612  0.43507  0.50623  1.0000
  H   H435      1.0  0.69632  0.47124  0.30890  1.0000
  C   C559      1.0  0.69858  0.45622  0.32945  1.0000
  H   H436      1.0  0.69531  0.36338  0.62632  1.0000
  C   C560      1.0  0.74516  0.43563  0.59669  1.0000
  C   C561      1.0  0.85936  0.33749  0.48876  1.0000
  C   C562      1.0  0.85451  0.40502  0.63231  1.0000
  C   C563      1.0  0.47469  0.23496  0.49688  1.0000
  C   C564      1.0  0.73770  0.44141  0.62790  1.0000
  H   H437      1.0  0.68900  0.29872  0.30842  1.0000
  H   H438      1.0  0.79202  0.44689  0.56333  1.0000
  H   H439      1.0  0.69998  0.45062  0.51076  1.0000
  P   P20       1.0  0.49720  0.05126  0.35525  1.0000
  H   H440      1.0  0.65342  0.46207  0.35507  1.0000
  C   C565      1.0  0.50916  0.09335  0.38022  1.0000
  C   C566      1.0  0.67102  0.26808  0.31593  1.0000
  C   C567      1.0  0.47461  0.00195  0.46684  1.0000
  H   H441      1.0  0.52158  0.18666  0.37883  1.0000
  H   H442      1.0  0.57474  0.19300  0.32360  1.0000
  H   H443      1.0  0.95775  0.43402  0.54917  1.0000
  H   H444      1.0  0.84643  0.47703  0.60172  1.0000
  Fe  Fe41      1.0  0.86207  0.41641  0.80085  1.0000
  S   S78       1.0  0.89621  0.40901  0.84254  1.0000
  Fe  Fe42      1.0  0.79440  0.36966  0.75112  1.0000
  S   S79       1.0  0.79968  0.42684  0.73453  1.0000
  S   S80       1.0  0.73681  0.31442  0.73343  1.0000
  Fe  Fe43      1.0  0.86655  0.45297  0.73639  1.0000
  C   C568      1.0  0.57195  0.36152  0.76370  1.0000
  Fe  Fe44      1.0  0.80126  0.44249  0.78550  1.0000
  C   C569      1.0  0.47660  0.99482  0.69704  1.0000
  S   S81       1.0  0.86161  0.39485  0.75104  1.0000
  S   S82       1.0  0.79452  0.38499  0.80226  1.0000
  Fe  Fe45      1.0  0.50912  0.41668  0.89976  1.0000
  C   C570      1.0  0.72495  0.45013  0.83326  1.0000
  C   C571      1.0  0.82826  0.39758  0.65716  1.0000
  H   H445      1.0  0.56296  0.22069  0.71072  1.0000
  H   H446      1.0  0.58756  0.27296  0.75136  1.0000
  C   C572      1.0  0.59748  0.32013  0.71913  1.0000
  Fe  Fe46      1.0  0.58569  0.42441  0.92888  1.0000
  C   C573      1.0  0.70838  0.43032  0.88796  1.0000
  S   S83       1.0  0.53283  0.37438  0.90530  1.0000
  C   C574      1.0  0.66679  0.44836  0.85831  1.0000
  P   P21       1.0  0.51061  0.16551  0.93920  1.0000
  H   H447      1.0  0.60238  0.35882  0.68066  1.0000
  H   H448      1.0  0.60407  0.18641  0.88687  1.0000
  H   H449      1.0  0.73875  0.23926  0.64032  1.0000
  H   H450      1.0  0.50949  0.12056  0.72512  1.0000
  H   H451      1.0  0.71551  0.42113  0.90974  1.0000
  H   H452      1.0  0.50451  0.45814  0.78696  1.0000
  S   S84       1.0  0.64723  0.42989  0.92173  1.0000
  C   C575      1.0  0.67866  0.22421  0.65216  1.0000
  C   C576      1.0  0.65556  0.23221  0.67288  1.0000
  C   C577      1.0  0.67398  0.26029  0.69718  1.0000
  C   C578      1.0  0.71577  0.28140  0.70089  1.0000
  C   C579      1.0  0.73893  0.27407  0.67975  1.0000
  C   C580      1.0  0.72046  0.24549  0.65577  1.0000
  H   H453      1.0  0.62343  0.21607  0.67069  1.0000
  H   H454      1.0  0.65566  0.26538  0.71347  1.0000
  H   H455      1.0  0.77102  0.28953  0.68247  1.0000
  H   H456      1.0  0.52946  0.06565  0.73357  1.0000
  C   C581      1.0  0.48932  0.11826  0.74356  1.0000
  H   H457      1.0  0.60305  0.41440  0.71047  1.0000
  H   H458      1.0  0.83960  0.41287  0.67922  1.0000
  H   H459      1.0  0.62001  0.25268  0.86646  1.0000
  H   H460      1.0  0.56990  0.12722  0.85350  1.0000
  H   H461      1.0  0.64171  0.45325  0.85690  1.0000
  C   C582      1.0  0.63732  0.34705  0.78108  1.0000
  C   C583      1.0  0.66405  0.33347  0.77478  1.0000
  C   C584      1.0  0.68412  0.32702  0.79925  1.0000
  C   C585      1.0  0.67781  0.33416  0.83017  1.0000
  C   C586      1.0  0.65070  0.34690  0.83673  1.0000
  C   C587      1.0  0.63060  0.35343  0.81234  1.0000
  H   H462      1.0  0.50725  0.16013  0.86968  1.0000
  P   P22       1.0  0.54305  0.11699  0.78711  1.0000
  C   C588      1.0  0.73270  0.43673  0.86138  1.0000
  H   H463      1.0  0.67048  0.32911  0.75089  1.0000
  H   H464      1.0  0.70551  0.31758  0.79411  1.0000
  H   H465      1.0  0.69461  0.33067  0.84894  1.0000
  H   H466      1.0  0.64638  0.35329  0.86065  1.0000
  H   H467      1.0  0.61085  0.36454  0.81822  1.0000
  C   C589      1.0  0.49235  0.03884  0.80763  1.0000
  C   C590      1.0  0.49079  0.09648  0.90597  1.0000
  C   C591      1.0  0.61210  0.15475  0.74991  1.0000
  C   C592      1.0  0.63465  0.15813  0.72328  1.0000
  C   C593      1.0  0.61887  0.12892  0.70007  1.0000
  C   C594      1.0  0.58586  0.28075  0.72731  1.0000
  C   C595      1.0  0.57637  0.19699  0.80157  1.0000
  C   C596      1.0  0.59507  0.23038  0.82094  1.0000
  C   C597      1.0  0.60522  0.22664  0.85162  1.0000
  H   H468      1.0  0.62506  0.17791  0.76738  1.0000
  H   H469      1.0  0.66430  0.18368  0.72041  1.0000
  H   H470      1.0  0.63601  0.13219  0.67906  1.0000
  H   H471      1.0  0.56890  0.20038  0.77775  1.0000
  H   H472      1.0  0.60189  0.25925  0.81212  1.0000
  S   S85       1.0  0.49388  0.42482  0.84898  1.0000
  C   C598      1.0  0.64880  0.40625  0.73258  1.0000
  H   H473      1.0  0.58275  0.09057  0.93426  1.0000
  C   C599      1.0  0.58687  0.22969  0.94859  1.0000
  H   H474      1.0  0.95570  0.41369  0.77700  1.0000
  H   H475      1.0  0.57861  0.02684  0.84154  1.0000
  C   C600      1.0  0.68998  0.42358  0.73779  1.0000
  C   C601      1.0  0.78759  0.37062  0.65359  1.0000
  C   C602      1.0  0.50179  0.20935  0.85376  1.0000
  C   C603      1.0  0.69167  0.45565  0.83193  1.0000
  P   P23       1.0  0.61391  0.35820  0.74900  1.0000
  C   C604      1.0  0.56772  0.15951  0.81274  1.0000
  C   C605      1.0  0.57359  0.12176  0.75358  1.0000
  C   C606      1.0  0.59625  0.18935  0.86307  1.0000
  H   H476      1.0  0.70197  0.40882  0.75179  1.0000
  H   H477      1.0  0.50157  0.20213  0.82924  1.0000
  C   C607      1.0  0.76896  0.45863  0.64956  1.0000
  H   H478      1.0  0.93108  0.39278  0.89613  1.0000
  C   C608      1.0  0.52895  0.06270  0.90684  1.0000
  C   C609      1.0  0.57719  0.15579  0.84385  1.0000
  C   C610      1.0  0.50051  0.33348  0.77063  1.0000
  C   C611      1.0  0.58098  0.09559  0.70394  1.0000
  H   H479      1.0  0.53185  0.03716  0.90084  1.0000
  H   H480      1.0  0.57659  0.30593  0.64087  1.0000
  H   H481      1.0  0.56862  0.07289  0.68596  1.0000
  C   C612      1.0  0.57855  0.39573  0.77992  1.0000
  C   C613      1.0  0.55874  0.09169  0.73084  1.0000
  C   C614      1.0  0.50021  0.25247  0.89385  1.0000
  H   H482      1.0  0.60863  0.41997  0.78404  1.0000
  H   H483      1.0  0.49646  0.00065  0.67742  1.0000
  H   H484      1.0  0.49848  0.27848  0.90063  1.0000
  C   C615      1.0  0.56276  0.06627  0.81829  1.0000
  C   C616      1.0  0.49770  0.11583  0.77522  1.0000
  C   C617      1.0  0.53163  0.07103  0.80633  1.0000
  H   H485      1.0  0.64569  0.28037  0.95503  1.0000
  H   H486      1.0  0.58934  0.23087  0.92334  1.0000
  C   C618      1.0  0.67540  0.43631  0.88676  1.0000
  C   C619      1.0  0.49563  0.06461  0.89686  1.0000
  Fe  Fe47      1.0  0.50430  0.35924  0.95308  1.0000
  C   C620      1.0  0.80805  0.47123  0.64013  1.0000
  H   H487      1.0  0.47019  0.30953  0.76701  1.0000
  H   H488      1.0  0.55146  0.42480  0.80428  1.0000
  H   H489      1.0  0.57492  0.14710  0.95021  1.0000
  H   H490      1.0  0.47293  0.04060  0.88297  1.0000
  C   C621      1.0  0.55311  0.12498  0.93458  1.0000
  H   H491      1.0  0.88590  0.42644  0.63546  1.0000
  C   C622      1.0  0.47066  0.11343  0.79823  1.0000
  C   C623      1.0  0.55452  0.03046  0.83244  1.0000
  H   H492      1.0  0.59344  0.09015  0.81639  1.0000
  C   C624      1.0  0.71646  0.46131  0.72585  1.0000
  C   C625      1.0  0.50506  0.19464  0.90867  1.0000
  C   C626      1.0  0.46783  0.44497  0.82818  1.0000
  C   C627      1.0  0.57955  0.29911  0.66503  1.0000
  C   C628      1.0  0.57163  0.25098  0.70443  1.0000
  H   H493      1.0  0.50397  0.23678  0.94131  1.0000
  H   H494      1.0  0.46792  0.04062  0.79710  1.0000
  H   H495      1.0  0.75826  0.43261  0.86295  1.0000
  C   C629      1.0  0.53267  0.33036  0.75913  1.0000
  C   C630      1.0  0.48426  0.00305  0.82169  1.0000
  H   H496      1.0  0.76301  0.46207  0.67377  1.0000
  H   H497      1.0  0.52670  0.30372  0.74667  1.0000
  C   C631      1.0  0.59419  0.32903  0.68774  1.0000
  C   C632      1.0  0.61882  0.25784  0.96645  1.0000
  C   C633      1.0  0.55766  0.09285  0.92566  1.0000
  H   H498      1.0  0.47665  0.11165  0.82276  1.0000
  S   S86       1.0  0.56372  0.46775  0.92184  1.0000
  C   C634      1.0  0.51974  0.12719  0.92459  1.0000
  C   C635      1.0  0.50735  0.36756  0.78680  1.0000
  S   S87       1.0  0.86889  0.47510  0.78597  1.0000
  C   C636      1.0  0.50314  0.22860  0.91694  1.0000
  H   H499      1.0  0.49738  0.26161  0.84445  1.0000
  C   C637      1.0  0.94562  0.42478  0.89412  1.0000
  C   C638      1.0  0.56836  0.26017  0.67333  1.0000
  C   C639      1.0  0.49954  0.24290  0.86226  1.0000
  C   C640      1.0  0.93394  0.44149  0.86990  1.0000
  C   C641      1.0  0.63472  0.42700  0.71464  1.0000
  S   S88       1.0  0.75739  0.46320  0.80006  1.0000
  H   H500      1.0  0.55689  0.23713  0.65557  1.0000
  C   C642      1.0  0.50469  0.18535  0.87686  1.0000
  C   C643      1.0  0.51526  0.99889  0.83421  1.0000
  C   C644      1.0  0.54634  0.39861  0.79146  1.0000
  C   C645      1.0  0.55166  0.20077  0.96318  1.0000
  C   C646      1.0  0.66138  0.46448  0.70229  1.0000
  H   H501      1.0  0.76740  0.36462  0.67311  1.0000
  H   H502      1.0  0.68542  0.46615  0.81040  1.0000
  C   C647      1.0  0.47931  0.45873  0.79724  1.0000
  S   S89       1.0  0.47461  0.39640  0.94538  1.0000
  H   H503      1.0  0.95036  0.45274  0.68578  1.0000
  H   H504      1.0  0.48249  0.37001  0.79589  1.0000
  H   H505      1.0  0.95104  0.35890  0.64519  1.0000
  H   H506      1.0  0.74803  0.47500  0.73116  1.0000
  Fe  Fe48      1.0  0.53021  0.44578  0.96787  1.0000
  H   H507      1.0  0.65247  0.29266  0.63816  1.0000
  H   H508      1.0  0.70760  0.43202  0.63565  1.0000
  C   C648      1.0  0.96014  0.47642  0.66875  1.0000
  H   H509      1.0  0.78113  0.38135  0.96833  1.0000
  S   S90       1.0  0.54476  0.15758  0.63540  1.0000
  H   H510      1.0  0.51215  0.86629  0.02438  1.0000
  H   H511      1.0  0.50566  0.55382  0.09428  1.0000
  C   C649      1.0  0.51724  0.85197  0.23644  1.0000
  H   H512      1.0  0.49550  0.87860  0.26952  1.0000
  H   H513      1.0  0.85356  0.51379  0.14945  1.0000
  H   H514      1.0  0.95826  0.57236  0.09161  1.0000
  C   C650      1.0  0.47314  0.63998  0.01824  1.0000
  C   C651      1.0  0.92963  0.54643  0.09699  1.0000
  C   C652      1.0  0.51675  0.52562  0.05477  1.0000
  S   S91       1.0  0.53304  0.49145  0.00413  1.0000
  H   H515      1.0  0.50394  0.96649  0.23382  1.0000
  C   C653      1.0  0.87080  0.51332  0.12966  1.0000
  H   H516      1.0  0.91779  0.57399  0.13600  1.0000
  H   H517      1.0  0.54682  0.86567  0.24661  1.0000
  C   C654      1.0  0.49290  0.52870  0.07851  1.0000
  H   H518      1.0  0.49351  0.49378  0.14447  1.0000
  H   H519      1.0  0.49742  0.63768  0.02870  1.0000
  H   H520      1.0  0.52976  0.82002  0.20134  1.0000
  C   C655      1.0  0.50766  0.82646  0.21080  1.0000
  C   C656      1.0  0.90692  0.54726  0.12207  1.0000
  H   H521      1.0  0.54771  0.54860  0.05263  1.0000
  C   C657      1.0  0.48837  0.85918  0.24941  1.0000
  H   H522      1.0  0.94917  0.52878  0.19060  1.0000
  C   C658      1.0  0.50113  0.49316  0.03391  1.0000
  C   C659      1.0  0.91655  0.51159  0.07967  1.0000
  C   C660      1.0  0.47399  0.87656  0.05502  1.0000
  H   H523      1.0  0.93545  0.51170  0.06099  1.0000
  H   H524      1.0  0.52003  0.94657  0.98563  1.0000
  C   C661      1.0  0.48525  0.86818  0.02624  1.0000
  H   H525      1.0  0.49210  0.88103  0.07560  1.0000
  C   C662      1.0  0.50465  0.96294  0.98177  1.0000
  C   C663      1.0  0.95856  0.51635  0.17208  1.0000
  H   H526      1.0  0.47158  0.85782  0.97702  1.0000
  C   C664      1.0  0.47991  0.97298  0.23255  1.0000
  H   H527      1.0  0.50437  0.66491  0.97496  1.0000
  C   C665      1.0  0.47698  0.65514  0.98797  1.0000
  C   C666      1.0  0.46928  0.80836  0.19794  1.0000
  C   C667      1.0  0.85735  0.47859  0.11210  1.0000
  C   C668      1.0  0.88019  0.47732  0.08707  1.0000
  C   C669      1.0  0.47402  0.54698  0.40564  1.0000
  C   C670      1.0  0.51512  0.48788  0.54991  1.0000
  H   H528      1.0  0.53271  0.86123  0.55547  1.0000
  H   H529      1.0  0.50202  0.51089  0.62516  1.0000
  C   C671      1.0  0.46965  0.78461  0.48347  1.0000
  C   C672      1.0  0.67334  0.49793  0.57528  1.0000
  C   C673      1.0  0.48847  0.49686  0.53490  1.0000
  H   H530      1.0  0.52455  0.94234  0.37846  1.0000
  H   H531      1.0  0.68849  0.52972  0.57925  1.0000
  C   C674      1.0  0.47912  0.53784  0.43628  1.0000
  C   C675      1.0  0.49789  0.50692  0.60011  1.0000
  H   H532      1.0  0.47123  0.79628  0.56423  1.0000
  H   H533      1.0  0.50513  0.52837  0.33106  1.0000
  C   C676      1.0  0.51954  0.49301  0.58265  1.0000
  C   C677      1.0  0.48794  0.94769  0.45767  1.0000
  C   C678      1.0  0.53672  0.97416  0.37713  1.0000
  C   C679      1.0  0.89814  0.51389  0.53014  1.0000
  H   H534      1.0  0.48462  0.49298  0.50987  1.0000
  H   H535      1.0  0.47544  0.73068  0.63223  1.0000
  H   H536      1.0  0.50244  0.53098  0.44151  1.0000
  C   C680      1.0  0.46911  0.82255  0.55970  1.0000
  C   C681      1.0  0.51237  0.96018  0.48451  1.0000
  H   H537      1.0  0.47501  0.70456  0.39618  1.0000
  H   H538      1.0  0.52758  0.94444  0.49126  1.0000
  H   H539      1.0  0.52789  0.92156  0.54561  1.0000
  H   H540      1.0  0.95023  0.54112  0.55972  1.0000
  S   S92       1.0  0.46893  0.86660  0.34689  1.0000
  H   H541      1.0  0.50075  0.79980  0.47649  1.0000
  H   H542      1.0  0.47361  0.73951  0.50949  1.0000
  H   H543      1.0  0.49334  0.54699  0.38722  1.0000
  H   H544      1.0  0.61612  0.49318  0.56718  1.0000
  C   C682      1.0  0.50105  0.89310  0.54921  1.0000
  C   C683      1.0  0.50374  0.85913  0.55481  1.0000
  H   H545      1.0  0.72647  0.49436  0.58062  1.0000
  S   S93       1.0  0.48218  0.90549  0.43618  1.0000
  H   H546      1.0  0.90377  0.54184  0.52006  1.0000
  C   C684      1.0  0.46893  0.96882  0.44901  1.0000
  C   C685      1.0  0.47726  0.50168  0.32579  1.0000
  C   C686      1.0  0.47207  0.51695  0.58499  1.0000
  H   H547      1.0  0.48160  0.96879  0.36200  1.0000
  C   C687      1.0  0.92434  0.51352  0.55245  1.0000
  C   C688      1.0  0.46759  0.51172  0.55226  1.0000
  C   C689      1.0  0.63257  0.47740  0.56852  1.0000
  S   S94       1.0  0.57476  0.47716  0.43487  1.0000
  C   C690      1.0  0.69468  0.47768  0.57617  1.0000
  H   H548      1.0  0.54001  0.48626  0.59465  1.0000
  H   H549      1.0  0.84450  0.47858  0.50352  1.0000
  C   C691      1.0  0.91744  0.47752  0.56527  1.0000
  C   C692      1.0  0.86482  0.47823  0.52079  1.0000
  H   H550      1.0  0.93781  0.47778  0.58269  1.0000
  C   C693      1.0  0.58563  0.55579  0.78881  1.0000
  H   H551      1.0  0.67177  0.67356  0.89091  1.0000
  H   H552      1.0  0.94458  0.49655  0.84974  1.0000
  H   H553      1.0  0.50886  0.97085  0.84466  1.0000
  C   C694      1.0  0.57891  0.51163  0.83120  1.0000
  H   H554      1.0  0.65389  0.69283  0.94105  1.0000
  H   H555      1.0  0.47132  0.65291  0.78044  1.0000
  H   H556      1.0  0.60608  0.51349  0.78682  1.0000
  C   C695      1.0  0.59167  0.52583  0.80090  1.0000
  H   H557      1.0  0.54947  0.51483  0.87241  1.0000
  C   C696      1.0  0.51125  0.60245  0.83713  1.0000
  C   C697      1.0  0.56684  0.57153  0.80702  1.0000
  C   C698      1.0  0.55959  0.52689  0.84928  1.0000
  H   H558      1.0  0.48301  0.48999  0.95397  1.0000
  C   C699      1.0  0.55300  0.55669  0.83728  1.0000
  P   P24       1.0  0.53163  0.57916  0.86184  1.0000
  H   H559      1.0  0.51436  0.69084  0.82509  1.0000
  C   C700      1.0  0.49314  0.54186  0.88674  1.0000
  C   C701      1.0  0.50383  0.52870  0.91377  1.0000
  C   C702      1.0  0.47447  0.50032  0.93341  1.0000
  H   H560      1.0  0.46817  0.48407  0.75581  1.0000
  C   C703      1.0  0.47165  0.59921  0.79189  1.0000
  H   H561      1.0  0.96371  0.62824  0.80795  1.0000
  C   C704      1.0  0.48026  0.95444  0.95508  1.0000
  S   S95       1.0  0.90428  0.49412  0.69553  1.0000
  C   C705      1.0  0.94295  0.50070  0.66872  1.0000
  H   H562      1.0  0.65028  0.48042  0.68868  1.0000
  H   H563      1.0  0.72291  0.51113  0.69910  1.0000
  C   C706      1.0  0.57048  0.61580  0.88655  1.0000
  C   C707      1.0  0.61077  0.63297  0.87793  1.0000
  C   C708      1.0  0.64069  0.66074  0.89752  1.0000
  C   C709      1.0  0.63061  0.67162  0.92576  1.0000
  C   C710      1.0  0.59055  0.65494  0.93436  1.0000
  H   H564      1.0  0.93112  0.55490  0.80639  1.0000
  H   H565      1.0  0.56333  0.59534  0.79738  1.0000
  H   H566      1.0  0.53491  0.54009  0.91968  1.0000
  C   C711      1.0  0.52111  0.64211  0.84193  1.0000
  C   C712      1.0  0.56055  0.62725  0.91478  1.0000
  H   H567      1.0  0.59554  0.56687  0.76531  1.0000
  C   C713      1.0  0.46922  0.96415  0.71862  1.0000
  H   H568      1.0  0.52967  0.61445  0.92182  1.0000
  H   H569      1.0  0.47895  0.55087  0.80749  1.0000
  H   H570      1.0  0.54058  0.65947  0.86086  1.0000
  H   H571      1.0  0.61928  0.62482  0.85625  1.0000
  H   H572      1.0  0.58282  0.66317  0.95638  1.0000
  H   H573      1.0  0.48363  0.94674  0.71526  1.0000
  C   C714      1.0  0.95652  0.53138  0.64626  1.0000
  C   C715      1.0  0.95334  0.48304  0.86780  1.0000
  C   C716      1.0  0.96318  0.57285  0.80362  1.0000
  C   C717      1.0  0.50638  0.66010  0.82170  1.0000
  H   H574      1.0  0.94374  0.55053  0.64590  1.0000
  S   S96       1.0  0.47553  0.91662  0.92837  1.0000
  H   H575      1.0  0.83226  0.48435  0.65702  1.0000
  C   C718      1.0  0.70225  0.48173  0.70804  1.0000
  C   C719      1.0  0.48648  0.58125  0.81190  1.0000
  C   C720      1.0  0.48190  0.63873  0.79658  1.0000
  H   H576      1.0  0.58317  0.48812  0.84063  1.0000
