data_image0
_chemical_formula_structural       CSHFeSCFeSFeHSFePSCHC2H2CH4C5H2CH2C5HC3HC10HCSC4H2PC4H7CHC2H3CHSC2HCH3CH3C5H3C3HC3PC8HC2HCH2CHFeS2HCSFeCSCH2FeHCHC2HCSC6H7CH2C3PC5HC14H3SHCH11C4H2PC7SH2CH2CHSH2FeHCH5FeS2FeS2FeSFeHS2HCSHCSHCHC2FeHSCS2C3H2C2H2C6H4C6H4C7PC4HC2H2C5H8CH2CH6SHC3HFeC2H2PCH2C2SHC2HC4SC3H2FeCHFeHCH2CH2CHC2H2CHSCH3C3PCFeSHSHC2HFeSC7H6CH2C3H5C2S2C4H3FeSC6H5C2HC4H3CHCHC2HCH5C2HCHC4HCHCHC5H3PCHCH5FeC3PCHC2HPC2HCHCHC6H3CPC2HCH3CHC3HCH2CHC3H6C4SH2CHC2FeC3HC2HCHCHCH2CH3CH2C2H2C2H2C5HCH2C4HC3H2C2H3CHFeSC2HCH2C6H5C3H4CH2CHCH3C5HC2H5C2HCS2CFeCH5C2HCHC6H3CHC3HC4SCHSHCHCHC3H4CHC8HC2HCH3C2HFeHC8HCH5CHCH2C3H3CHC4H3C2H3C2H2CHC5HC2H4C5HCHPH2CH3C2HSHCSH2SC2HC3H2C4HFeHSC2S2FeSHCHC6H4SCSHCS2CHCH5SH2FeH3C2PHC3H2CHC6H7C3H2C3FeC4H2CHCHC5HC3HCHCHC3H2C2HS3FeSPCHC2HFeC6H4C3H2C2SFeC3H3C3H2C4HCH2C2H4C2HCSC3HCHPH3CH2C4HCH3C2FeC2FeS2FeSCFeSFeS3FeS2C6H5C6H3CHC2HCHCH5CHCHCHSCSCSH2CPC2SC2HPH2CH3CH3C6PC15H11CHC2SC6HC2H2C2FeH3CHCH2CH5CSFeSFeS2FeS2FeSFeHS2H3CHCHC4HC6H4C11HC2SC2H4CH2C5FeSHC2HPH3FePC4HC3H2C3H2C7HCH4C2H2C2HPHSC2HSC3H2SCHCHSC2HCSH2CHSH3CH2CH3C2HCHCH4C4H2C6H3CSCH2CHFeH3C2PC14H2C2HFeH7CSCH2C2HPCHC5HS2CH2CH2C4HCHC2FeH2CHC3H2C3
_chemical_formula_sum              "C720 S96 H576 Fe48 P24"
_cell_length_a       35.7581
_cell_length_b       35.86
_cell_length_c       41.0731
_cell_angle_alpha    90.0511
_cell_angle_beta     89.7145
_cell_angle_gamma    120.136

_space_group_name_H-M_alt    "P 1"
_space_group_IT_number       1

loop_
  _space_group_symop_operation_xyz
  'x, y, z'

loop_
  _atom_site_type_symbol
  _atom_site_label
  _atom_site_symmetry_multiplicity
  _atom_site_fract_x
  _atom_site_fract_y
  _atom_site_fract_z
  _atom_site_occupancy
  C   C1        1.0  0.41640  0.07224  0.05693  1.0000
  S   S1        1.0  0.29630  0.35429  0.31010  1.0000
  H   H1        1.0  0.30360  0.24941  0.28304  1.0000
  Fe  Fe1       1.0  0.35376  0.42185  0.31315  1.0000
  S   S2        1.0  0.37761  0.46506  0.26758  1.0000
  C   C2        1.0  0.45181  0.39406  0.18139  1.0000
  Fe  Fe2       1.0  0.39187  0.04074  0.21893  1.0000
  S   S3        1.0  0.43796  0.06340  0.17506  1.0000
  Fe  Fe3       1.0  0.33669  0.06967  0.25838  1.0000
  H   H2        1.0  0.41465  0.16255  0.21337  1.0000
  S   S4        1.0  0.31694  0.12209  0.25618  1.0000
  Fe  Fe4       1.0  0.38537  0.03108  0.29384  1.0000
  P   P1        1.0  0.43450  0.39677  0.05160  1.0000
  S   S5        1.0  0.40658  0.08784  0.26002  1.0000
  C   C3        1.0  0.42243  0.21232  0.24666  1.0000
  H   H3        1.0  0.48218  0.04619  0.28829  1.0000
  C   C4        1.0  0.40334  0.35280  0.07954  1.0000
  C   C5        1.0  0.36596  0.32618  0.13134  1.0000
  H   H4        1.0  0.37120  0.42221  0.03146  1.0000
  H   H5        1.0  0.07998  0.35557  0.08708  1.0000
  C   C6        1.0  0.45361  0.03180  0.15138  1.0000
  H   H6        1.0  0.42754  0.26506  0.27438  1.0000
  H   H7        1.0  0.35542  0.33230  0.15451  1.0000
  H   H8        1.0  0.05012  0.34334  0.30197  1.0000
  H   H9        1.0  0.01383  0.43434  0.09540  1.0000
  C   C7        1.0  0.34115  0.17089  0.31383  1.0000
  C   C8        1.0  0.32339  0.16484  0.28263  1.0000
  C   C9        1.0  0.31003  0.19366  0.27183  1.0000
  C   C10       1.0  0.31424  0.22783  0.29175  1.0000
  C   C11       1.0  0.46036  0.36252  0.19345  1.0000
  H   H10       1.0  0.39722  0.39240  0.11683  1.0000
  H   H11       1.0  0.29612  0.18936  0.24785  1.0000
  C   C12       1.0  0.38406  0.47674  0.06077  1.0000
  H   H12       1.0  0.11748  0.41248  0.30750  1.0000
  H   H13       1.0  0.48085  0.47003  0.09590  1.0000
  C   C13       1.0  0.40169  0.03240  0.04136  1.0000
  C   C14       1.0  0.41866  0.19449  0.21578  1.0000
  C   C15       1.0  0.39276  0.31060  0.07130  1.0000
  C   C16       1.0  0.41607  0.37930  0.01044  1.0000
  C   C17       1.0  0.04483  0.44903  0.04845  1.0000
  H   H14       1.0  0.05898  0.26664  0.16438  1.0000
  C   C18       1.0  0.36630  0.99531  0.05469  1.0000
  C   C19       1.0  0.37419  0.31910  0.22515  1.0000
  C   C20       1.0  0.41872  0.21725  0.18817  1.0000
  H   H15       1.0  0.41166  0.10451  0.09982  1.0000
  C   C21       1.0  0.07344  0.31455  0.12729  1.0000
  C   C22       1.0  0.21688  0.03232  0.27382  1.0000
  C   C23       1.0  0.02254  0.42173  0.07454  1.0000
  C   C24       1.0  0.39210  0.44444  0.04983  1.0000
  C   C25       1.0  0.36661  0.35224  0.23502  1.0000
  C   C26       1.0  0.32535  0.34712  0.23253  1.0000
  C   C27       1.0  0.29081  0.30811  0.22169  1.0000
  C   C28       1.0  0.29772  0.27440  0.21279  1.0000
  C   C29       1.0  0.33927  0.27989  0.21434  1.0000
  C   C30       1.0  0.07760  0.30733  0.01507  1.0000
  H   H16       1.0  0.22592  0.06054  0.25890  1.0000
  C   C31       1.0  0.01108  0.24262  0.12645  1.0000
  S   S6        1.0  0.31548  0.01459  0.29411  1.0000
  C   C32       1.0  0.45242  0.35322  0.26447  1.0000
  C   C33       1.0  0.42600  0.25279  0.25009  1.0000
  C   C34       1.0  0.00877  0.37045  0.30848  1.0000
  C   C35       1.0  0.42617  0.27596  0.22247  1.0000
  H   H17       1.0  0.41522  0.20299  0.16433  1.0000
  H   H18       1.0  0.09380  0.31844  0.03815  1.0000
  P   P2        1.0  0.42833  0.32727  0.22636  1.0000
  C   C36       1.0  0.36916  0.27655  0.09303  1.0000
  C   C37       1.0  0.04875  0.37251  0.30593  1.0000
  C   C38       1.0  0.42886  0.33752  0.29352  1.0000
  C   C39       1.0  0.42378  0.48502  0.24139  1.0000
  H   H19       1.0  0.34840  0.34161  0.02397  1.0000
  H   H20       1.0  0.39263  0.38233  0.24441  1.0000
  H   H21       1.0  0.32016  0.37335  0.23963  1.0000
  H   H22       1.0  0.25862  0.30388  0.22071  1.0000
  H   H23       1.0  0.27075  0.24378  0.20513  1.0000
  H   H24       1.0  0.34369  0.25317  0.20764  1.0000
  H   H25       1.0  0.35161  0.14920  0.32267  1.0000
  C   C40       1.0  0.35579  0.28434  0.12305  1.0000
  H   H26       1.0  0.33735  0.25794  0.13982  1.0000
  C   C41       1.0  0.33156  0.23358  0.32310  1.0000
  C   C42       1.0  0.42710  0.44158  0.06224  1.0000
  H   H27       1.0  0.42138  0.27456  0.16987  1.0000
  H   H28       1.0  0.99198  0.21107  0.13753  1.0000
  H   H29       1.0  0.35239  0.03811  0.12463  1.0000
  C   C43       1.0  0.08561  0.44975  0.31569  1.0000
  H   H30       1.0  0.36109  0.24405  0.08654  1.0000
  S   S7        1.0  0.32296  0.02584  0.21458  1.0000
  C   C44       1.0  0.34832  0.99747  0.08447  1.0000
  C   C45       1.0  0.38969  0.36030  0.10975  1.0000
  H   H31       1.0  0.42536  0.39741  0.19062  1.0000
  C   C46       1.0  0.45363  0.47135  0.08590  1.0000
  H   H32       1.0  0.10273  0.33882  0.13900  1.0000
  H   H33       1.0  0.21526  0.06327  0.31822  1.0000
  H   H34       1.0  0.44274  0.10153  0.04668  1.0000
  C   C47       1.0  0.06037  0.32392  0.09786  1.0000
  H   H35       1.0  0.35743  0.47918  0.05068  1.0000
  H   H36       1.0  0.04343  0.47624  0.32209  1.0000
  H   H37       1.0  0.39611  0.31053  0.29317  1.0000
  C   C48       1.0  0.00706  0.40801  0.31391  1.0000
  C   C49       1.0  0.21059  0.03371  0.30730  1.0000
  C   C50       1.0  0.19965  0.99755  0.32670  1.0000
  C   C51       1.0  0.99790  0.25188  0.09702  1.0000
  C   C52       1.0  0.47874  0.42338  0.15785  1.0000
  H   H38       1.0  0.30510  0.03338  0.02792  1.0000
  H   H39       1.0  0.42094  0.19393  0.26807  1.0000
  H   H40       1.0  0.45329  0.45261  0.26479  1.0000
  C   C53       1.0  0.01082  0.37819  0.07334  1.0000
  C   C54       1.0  0.45573  0.47369  0.24505  1.0000
  C   C55       1.0  0.02115  0.36165  0.04588  1.0000
  H   H41       1.0  0.40293  0.30410  0.04811  1.0000
  C   C56       1.0  0.36496  0.03677  0.10082  1.0000
  C   C57       1.0  0.39853  0.07423  0.08682  1.0000
  C   C58       1.0  0.21315  0.99512  0.25978  1.0000
  P   P3        1.0  0.00582  0.30533  0.04448  1.0000
  C   C59       1.0  0.34500  0.20482  0.33386  1.0000
  C   C60       1.0  0.04881  0.27391  0.14159  1.0000
  C   C61       1.0  0.02247  0.29265  0.08244  1.0000
  C   C62       1.0  0.08710  0.41200  0.30939  1.0000
  C   C63       1.0  0.05512  0.43281  0.02103  1.0000
  C   C64       1.0  0.42233  0.25776  0.19146  1.0000
  C   C65       1.0  0.44744  0.35636  0.32332  1.0000
  C   C66       1.0  0.04351  0.38936  0.01978  1.0000
  H   H42       1.0  0.99336  0.35729  0.09363  1.0000
  C   C67       1.0  0.03453  0.29741  0.01123  1.0000
  C   C68       1.0  0.04530  0.44751  0.31737  1.0000
  H   H43       1.0  0.47263  0.44852  0.14980  1.0000
  C   C69       1.0  0.22865  0.46910  0.33041  1.0000
  H   H44       1.0  0.05365  0.48267  0.04932  1.0000
  H   H45       1.0  0.21960  0.99458  0.23403  1.0000
  C   C70       1.0  0.19097  0.47123  0.33490  1.0000
  H   H46       1.0  0.48165  0.35402  0.07576  1.0000
  Fe  Fe5       1.0  0.35529  0.41888  0.38808  1.0000
  S   S8        1.0  0.32260  0.44134  0.35259  1.0000
  S   S9        1.0  0.37651  0.45456  0.43707  1.0000
  H   H47       1.0  0.28237  0.34020  0.50522  1.0000
  C   C71       1.0  0.47361  0.45235  0.62628  1.0000
  S   S10       1.0  0.29868  0.35097  0.38921  1.0000
  Fe  Fe6       1.0  0.99221  0.37456  0.42833  1.0000
  C   C72       1.0  0.01877  0.23437  0.45917  1.0000
  S   S11       1.0  0.06342  0.39041  0.42997  1.0000
  C   C73       1.0  0.44243  0.44262  0.60207  1.0000
  H   H48       1.0  0.25412  0.46623  0.47641  1.0000
  H   H49       1.0  0.45299  0.06516  0.61590  1.0000
  Fe  Fe7       1.0  0.26765  0.37288  0.35206  1.0000
  H   H50       1.0  0.16752  0.45072  0.35303  1.0000
  C   C74       1.0  0.44569  0.01777  0.36318  1.0000
  H   H51       1.0  0.32718  0.41992  0.50419  1.0000
  C   C75       1.0  0.03218  0.21011  0.47711  1.0000
  C   C76       1.0  0.44970  0.03494  0.62396  1.0000
  H   H52       1.0  0.17228  0.25260  0.35361  1.0000
  C   C77       1.0  0.38691  0.47944  0.62044  1.0000
  S   S12       1.0  0.33686  0.27553  0.34998  1.0000
  C   C78       1.0  0.15936  0.36404  0.37163  1.0000
  C   C79       1.0  0.11553  0.34420  0.36249  1.0000
  C   C80       1.0  0.08596  0.35265  0.37935  1.0000
  C   C81       1.0  0.09971  0.38101  0.40583  1.0000
  C   C82       1.0  0.14369  0.40145  0.41458  1.0000
  C   C83       1.0  0.17327  0.39301  0.39771  1.0000
  H   H53       1.0  0.05233  0.33656  0.37229  1.0000
  H   H54       1.0  0.15490  0.42376  0.43477  1.0000
  H   H55       1.0  0.20682  0.40895  0.40487  1.0000
  H   H56       1.0  0.46135  0.46354  0.42270  1.0000
  H   H57       1.0  0.28223  0.29947  0.55407  1.0000
  H   H58       1.0  0.03901  0.29147  0.43027  1.0000
  H   H59       1.0  0.39549  0.35571  0.63257  1.0000
  C   C84       1.0  0.04942  0.27250  0.44402  1.0000
  H   H60       1.0  0.26248  0.24132  0.41540  1.0000
  H   H61       1.0  0.47034  0.06497  0.40161  1.0000
  C   C85       1.0  0.07630  0.22430  0.48029  1.0000
  C   C86       1.0  0.10740  0.26307  0.46560  1.0000
  C   C87       1.0  0.09348  0.28651  0.44686  1.0000
  P   P4        1.0  0.16465  0.28265  0.47027  1.0000
  C   C88       1.0  0.17303  0.26146  0.50779  1.0000
  C   C89       1.0  0.18474  0.26625  0.43582  1.0000
  C   C90       1.0  0.21917  0.25822  0.43956  1.0000
  C   C91       1.0  0.23535  0.24665  0.41268  1.0000
  C   C92       1.0  0.38201  0.36427  0.65299  1.0000
  H   H62       1.0  0.23180  0.23661  0.36083  1.0000
  C   C93       1.0  0.16786  0.26390  0.40462  1.0000
  C   C94       1.0  0.16705  0.21963  0.50866  1.0000
  C   C95       1.0  0.17283  0.20281  0.53768  1.0000
  C   C96       1.0  0.18421  0.22741  0.56614  1.0000
  C   C97       1.0  0.18982  0.26888  0.56559  1.0000
  C   C98       1.0  0.18433  0.28592  0.53656  1.0000
  C   C99       1.0  0.19315  0.34089  0.47244  1.0000
  C   C100      1.0  0.17426  0.36224  0.48821  1.0000
  C   C101      1.0  0.19631  0.40727  0.48983  1.0000
  C   C102      1.0  0.23734  0.43133  0.47575  1.0000
  C   C103      1.0  0.25642  0.41033  0.46021  1.0000
  C   C104      1.0  0.23452  0.36532  0.45863  1.0000
  C   C105      1.0  0.18449  0.25284  0.37776  1.0000
  C   C106      1.0  0.34713  0.47841  0.61984  1.0000
  H   H63       1.0  0.08580  0.20507  0.49444  1.0000
  H   H64       1.0  0.11670  0.31594  0.43473  1.0000
  H   H65       1.0  0.23431  0.26184  0.46298  1.0000
  S   S13       1.0  0.39038  0.40420  0.34872  1.0000
  H   H66       1.0  0.37151  0.45904  0.55169  1.0000
  C   C107      1.0  0.45394  0.44284  0.56925  1.0000
  H   H67       1.0  0.14280  0.27190  0.40062  1.0000
  H   H68       1.0  0.15762  0.19988  0.48692  1.0000
  H   H69       1.0  0.16826  0.17055  0.53815  1.0000
  H   H70       1.0  0.18849  0.21425  0.58866  1.0000
  H   H71       1.0  0.19850  0.28790  0.58770  1.0000
  H   H72       1.0  0.18883  0.31807  0.53682  1.0000
  H   H73       1.0  0.14230  0.34417  0.49899  1.0000
  H   H74       1.0  0.18110  0.42352  0.50136  1.0000
  H   H75       1.0  0.43130  0.43632  0.54978  1.0000
  H   H76       1.0  0.28795  0.42896  0.44882  1.0000
  H   H77       1.0  0.24987  0.34983  0.44634  1.0000
  C   C108      1.0  0.46324  0.47899  0.44575  1.0000
  C   C109      1.0  0.42664  0.47872  0.45822  1.0000
  C   C110      1.0  0.42556  0.01508  0.65232  1.0000
  C   C111      1.0  0.37429  0.39893  0.65053  1.0000
  H   H78       1.0  0.42904  0.34355  0.34566  1.0000
  H   H79       1.0  0.31750  0.44858  0.61480  1.0000
  P   P5        1.0  0.38857  0.43058  0.61347  1.0000
  C   C112      1.0  0.46719  0.03516  0.39277  1.0000
  C   C113      1.0  0.35209  0.40148  0.58046  1.0000
  C   C114      1.0  0.32643  0.35632  0.58092  1.0000
  C   C115      1.0  0.30116  0.33436  0.55392  1.0000
  C   C116      1.0  0.30116  0.35726  0.52639  1.0000
  C   C117      1.0  0.32620  0.40220  0.52589  1.0000
  C   C118      1.0  0.35131  0.42426  0.55287  1.0000
  S   S14       1.0  0.42423  0.04563  0.34121  1.0000
  H   H80       1.0  0.46595  0.45339  0.65171  1.0000
  H   H81       1.0  0.32634  0.33785  0.60172  1.0000
  C   C119      1.0  0.21806  0.24400  0.38179  1.0000
  H   H82       1.0  0.23389  0.44671  0.34466  1.0000
  H   H83       1.0  0.19611  0.99966  0.35270  1.0000
  C   C120      1.0  0.48413  0.01398  0.41136  1.0000
  H   H84       1.0  0.35848  0.20875  0.35799  1.0000
  S   S15       1.0  0.19493  0.35139  0.34960  1.0000
  H   H85       1.0  0.48132  0.14588  0.39057  1.0000
  H   H86       1.0  0.07960  0.45821  0.38053  1.0000
  Fe  Fe8       1.0  0.33112  0.33702  0.34730  1.0000
  H   H87       1.0  0.31516  0.00261  0.65123  1.0000
  C   C121      1.0  0.46963  0.01607  0.60587  1.0000
  H   H88       1.0  0.00831  0.18042  0.48871  1.0000
  H   H89       1.0  0.24282  0.99586  0.65119  1.0000
  H   H90       1.0  0.08414  0.48179  0.43710  1.0000
  H   H91       1.0  0.98965  0.48600  0.35656  1.0000
  H   H92       1.0  0.10426  0.32179  0.34235  1.0000
  Fe  Fe9       1.0  0.33799  0.34088  0.84222  1.0000
  S   S16       1.0  0.29921  0.35600  0.80696  1.0000
  S   S17       1.0  0.36250  0.29265  0.83642  1.0000
  Fe  Fe10      1.0  0.35462  0.41701  0.88699  1.0000
  S   S18       1.0  0.31785  0.43744  0.85409  1.0000
  S   S19       1.0  0.37636  0.45244  0.93576  1.0000
  Fe  Fe11      1.0  0.26780  0.36724  0.85131  1.0000
  S   S20       1.0  0.19416  0.34176  0.85223  1.0000
  Fe  Fe12      1.0  0.35185  0.42530  0.81251  1.0000
  H   H93       1.0  0.44511  0.22550  0.89026  1.0000
  S   S21       1.0  0.30280  0.34667  0.88623  1.0000
  S   S22       1.0  0.39247  0.41037  0.84571  1.0000
  H   H94       1.0  0.05161  0.37755  0.99818  1.0000
  C   C122      1.0  0.43087  0.37854  0.95264  1.0000
  S   S23       1.0  0.06874  0.39242  0.92969  1.0000
  H   H95       1.0  0.23189  0.43568  0.83555  1.0000
  C   C123      1.0  0.02921  0.33467  0.80083  1.0000
  S   S24       1.0  0.40130  0.04051  0.67417  1.0000
  H   H96       1.0  0.09934  0.28973  0.93752  1.0000
  C   C124      1.0  0.08108  0.29110  0.95822  1.0000
  H   H97       1.0  0.98987  0.41898  0.70795  1.0000
  C   C125      1.0  0.44548  0.39276  0.98425  1.0000
  C   C126      1.0  0.30334  0.04690  0.00475  1.0000
  Fe  Fe13      1.0  0.32000  0.05656  0.76979  1.0000
  H   H98       1.0  0.41667  0.09729  0.90489  1.0000
  S   S25       1.0  0.29348  0.10309  0.77680  1.0000
  C   C127      1.0  0.01515  0.28446  0.98047  1.0000
  S   S26       1.0  0.42480  0.03944  0.83870  1.0000
  S   S27       1.0  0.38907  0.07392  0.76250  1.0000
  C   C128      1.0  0.33837  0.09897  0.96132  1.0000
  C   C129      1.0  0.22635  0.46252  0.83209  1.0000
  C   C130      1.0  0.26184  0.04691  0.95827  1.0000
  H   H99       1.0  0.27858  0.22806  0.80813  1.0000
  H   H100      1.0  0.44793  0.09883  0.95837  1.0000
  C   C131      1.0  0.42838  0.48221  0.95361  1.0000
  C   C132      1.0  0.25282  0.01846  0.88157  1.0000
  H   H101      1.0  0.02339  0.27205  0.93041  1.0000
  H   H102      1.0  0.35338  0.43766  0.67734  1.0000
  C   C133      1.0  0.16000  0.35640  0.87426  1.0000
  C   C134      1.0  0.11527  0.33446  0.86772  1.0000
  C   C135      1.0  0.08691  0.34482  0.88434  1.0000
  C   C136      1.0  0.10279  0.37754  0.90776  1.0000
  C   C137      1.0  0.14749  0.39940  0.91437  1.0000
  C   C138      1.0  0.17588  0.38903  0.89780  1.0000
  H   H103      1.0  0.10241  0.30908  0.84969  1.0000
  H   H104      1.0  0.05267  0.32702  0.87936  1.0000
  H   H105      1.0  0.16034  0.42467  0.93249  1.0000
  H   H106      1.0  0.21007  0.40630  0.90324  1.0000
  C   C139      1.0  0.34315  0.24104  0.81766  1.0000
  C   C140      1.0  0.37106  0.22402  0.81536  1.0000
  C   C141      1.0  0.35681  0.18247  0.80238  1.0000
  C   C142      1.0  0.31405  0.15672  0.79207  1.0000
  C   C143      1.0  0.28621  0.17387  0.79411  1.0000
  C   C144      1.0  0.30063  0.21575  0.80656  1.0000
  H   H107      1.0  0.40401  0.24308  0.82374  1.0000
  H   H108      1.0  0.37893  0.17039  0.80023  1.0000
  H   H109      1.0  0.25311  0.15453  0.78606  1.0000
  H   H110      1.0  0.15792  0.42160  0.82879  1.0000
  C   C145      1.0  0.38685  0.35134  0.94678  1.0000
  C   C146      1.0  0.23520  0.16581  0.94100  1.0000
  C   C147      1.0  0.24785  0.19980  0.91895  1.0000
  C   C148      1.0  0.27495  0.20433  0.89284  1.0000
  C   C149      1.0  0.28948  0.17497  0.88873  1.0000
  C   C150      1.0  0.27766  0.14120  0.91106  1.0000
  C   C151      1.0  0.24991  0.13650  0.93705  1.0000
  P   P6        1.0  0.29615  0.10307  0.90514  1.0000
  C   C152      1.0  0.25924  0.06034  0.87848  1.0000
  C   C153      1.0  0.34917  0.13067  0.88631  1.0000
  C   C154      1.0  0.35997  0.11083  0.86142  1.0000
  C   C155      1.0  0.40159  0.13147  0.84799  1.0000
  H   H111      1.0  0.46666  0.39227  0.80377  1.0000
  C   C156      1.0  0.44740  0.47043  0.74782  1.0000
  C   C157      1.0  0.38019  0.17226  0.89657  1.0000
  H   H112      1.0  0.46431  0.18879  0.84757  1.0000
  H   H113      1.0  0.99666  0.48843  0.84948  1.0000
  C   C158      1.0  0.06362  0.35838  0.77945  1.0000
  C   C159      1.0  0.11459  0.48555  0.88460  1.0000
  C   C160      1.0  0.23905  0.06936  0.85293  1.0000
  C   C161      1.0  0.29914  0.08143  0.94430  1.0000
  C   C162      1.0  0.09158  0.40236  0.78482  1.0000
  H   H114      1.0  0.35036  0.33438  0.73165  1.0000
  H   H115      1.0  0.21374  0.16203  0.96103  1.0000
  H   H116      1.0  0.23637  0.22245  0.92183  1.0000
  H   H117      1.0  0.28454  0.23049  0.87556  1.0000
  H   H118      1.0  0.30980  0.17854  0.86799  1.0000
  H   H119      1.0  0.23940  0.11028  0.95423  1.0000
  H   H120      1.0  0.33646  0.07947  0.85220  1.0000
  H   H121      1.0  0.40979  0.11562  0.82910  1.0000
  C   C163      1.0  0.40089  0.06942  0.92071  1.0000
  H   H122      1.0  0.19835  0.04461  0.81074  1.0000
  H   H123      1.0  0.37233  0.18862  0.91522  1.0000
  C   C164      1.0  0.36353  0.03245  0.91031  1.0000
  H   H124      1.0  0.37087  0.09509  0.00415  1.0000
  H   H125      1.0  0.45357  0.38946  0.93246  1.0000
  H   H126      1.0  0.43852  0.44441  0.76496  1.0000
  H   H127      1.0  0.24506  0.10174  0.84886  1.0000
  H   H128      1.0  0.04965  0.48428  0.79135  1.0000
  H   H129      1.0  0.06897  0.34256  0.75895  1.0000
  S   S28       1.0  0.30696  0.00461  0.80658  1.0000
  H   H130      1.0  0.35072  0.03149  0.88627  1.0000
  C   C165      1.0  0.18424  0.45465  0.82784  1.0000
  C   C166      1.0  0.36194  0.99625  0.96039  1.0000
  C   C167      1.0  0.42155  0.19319  0.88262  1.0000
  H   H131      1.0  0.07163  0.45366  0.00046  1.0000
  Fe  Fe14      1.0  0.36554  0.02310  0.72328  1.0000
  C   C168      1.0  0.26403  0.02961  0.98826  1.0000
  C   C169      1.0  0.35731  0.33812  0.97259  1.0000
  H   H132      1.0  0.99640  0.33625  0.84424  1.0000
  H   H133      1.0  0.04530  0.41374  0.85427  1.0000
  P   P7        1.0  0.12245  0.47969  0.81783  1.0000
  C   C170      1.0  0.08562  0.42286  0.81188  1.0000
  H   H134      1.0  0.32308  0.31781  0.96781  1.0000
  H   H135      1.0  0.37561  0.34109  0.92213  1.0000
  C   C171      1.0  0.17668  0.48911  0.82301  1.0000
  C   C172      1.0  0.46488  0.48340  0.94007  1.0000
  S   S29       1.0  0.37470  0.47278  0.76974  1.0000
  H   H136      1.0  0.11833  0.42031  0.76816  1.0000
  C   C173      1.0  0.03828  0.28110  0.95420  1.0000
  C   C174      1.0  0.34341  0.99628  0.93051  1.0000
  H   H137      1.0  0.33758  0.39600  0.72794  1.0000
  C   C175      1.0  0.05076  0.39894  0.83315  1.0000
  C   C176      1.0  0.44727  0.01263  0.86091  1.0000
  C   C177      1.0  0.43235  0.17265  0.85850  1.0000
  C   C178      1.0  0.34040  0.08171  0.99137  1.0000
  S   S30       1.0  0.29668  0.00937  0.72767  1.0000
  C   C179      1.0  0.40109  0.03231  0.97001  1.0000
  C   C180      1.0  0.41902  0.06982  0.95086  1.0000
  C   C181      1.0  0.35681  0.35214  0.70897  1.0000
  H   H138      1.0  0.36765  0.12560  0.95141  1.0000
  H   H139      1.0  0.13419  0.31269  0.99147  1.0000
  Fe  Fe15      1.0  0.37533  0.01966  0.79730  1.0000
  C   C182      1.0  0.34943  0.38677  0.70683  1.0000
  H   H140      1.0  0.37925  0.31428  0.68390  1.0000
  Fe  Fe16      1.0  0.99798  0.37797  0.93029  1.0000
  H   H141      1.0  0.10689  0.48755  0.93644  1.0000
  C   C183      1.0  0.21235  0.03690  0.83118  1.0000
  H   H142      1.0  0.26949  0.01103  0.90008  1.0000
  H   H143      1.0  0.01159  0.40459  0.76138  1.0000
  C   C184      1.0  0.20559  0.99521  0.83471  1.0000
  H   H144      1.0  0.46172  0.46562  0.91800  1.0000
  H   H145      1.0  0.47960  0.41469  0.98786  1.0000
  C   C185      1.0  0.47950  0.03618  0.88415  1.0000
  H   H146      1.0  0.23102  0.03325  0.94593  1.0000
  C   C186      1.0  0.02271  0.35497  0.82750  1.0000
  C   C187      1.0  0.37309  0.34087  0.68205  1.0000
  H   H147      1.0  0.48296  0.12719  0.73082  1.0000
  H   H148      1.0  0.12561  0.46249  0.88638  1.0000
  C   C188      1.0  0.10072  0.30416  0.98864  1.0000
  H   H149      1.0  0.00780  0.30045  0.79700  1.0000
  S   S31       1.0  0.98583  0.43419  0.93540  1.0000
  C   C189      1.0  0.35827  0.41024  0.67784  1.0000
  H   H150      1.0  0.48111  0.09376  0.78420  1.0000
  H   H151      1.0  0.48368  0.46231  0.82690  1.0000
  H   H152      1.0  0.23519  0.00273  0.99871  1.0000
  C   C190      1.0  0.48451  0.48491  0.72798  1.0000
  C   C191      1.0  0.42162  0.48942  0.74521  1.0000
  C   C192      1.0  0.37181  0.35187  0.00432  1.0000
  P   P8        1.0  0.42890  0.02847  0.00535  1.0000
  C   C193      1.0  0.46728  0.74692  0.07948  1.0000
  Fe  Fe17      1.0  0.30703  0.97218  0.25043  1.0000
  S   S32       1.0  0.25751  0.89937  0.24507  1.0000
  H   H153      1.0  0.40724  0.97049  0.17197  1.0000
  S   S33       1.0  0.04519  0.64790  0.18720  1.0000
  H   H154      1.0  0.40421  0.53095  0.09304  1.0000
  C   C194      1.0  0.42798  0.51287  0.21566  1.0000
  C   C195      1.0  0.25020  0.89576  0.32835  1.0000
  H   H155      1.0  0.32235  0.96844  0.09545  1.0000
  Fe  Fe18      1.0  0.02265  0.69610  0.18771  1.0000
  S   S34       1.0  0.06656  0.77019  0.19002  1.0000
  C   C196      1.0  0.12921  0.56508  0.24145  1.0000
  C   C197      1.0  0.20485  0.86418  0.22856  1.0000
  C   C198      1.0  0.18103  0.87939  0.21193  1.0000
  C   C199      1.0  0.13920  0.85017  0.20009  1.0000
  C   C200      1.0  0.12054  0.80524  0.20426  1.0000
  C   C201      1.0  0.14464  0.79000  0.22044  1.0000
  C   C202      1.0  0.18629  0.81925  0.23261  1.0000
  H   H156      1.0  0.19473  0.91365  0.20822  1.0000
  H   H157      1.0  0.12105  0.86249  0.18763  1.0000
  H   H158      1.0  0.13092  0.75569  0.22404  1.0000
  H   H159      1.0  0.20418  0.80692  0.24540  1.0000
  H   H160      1.0  0.33512  0.88816  0.21980  1.0000
  H   H161      1.0  0.00963  0.53510  0.15397  1.0000
  C   C203      1.0  0.13377  0.53663  0.26212  1.0000
  H   H162      1.0  0.37583  0.81672  0.15971  1.0000
  H   H163      1.0  0.22989  0.87199  0.31057  1.0000
  C   C204      1.0  0.20253  0.95909  0.27915  1.0000
  C   C205      1.0  0.39520  0.71535  0.00669  1.0000
  C   C206      1.0  0.40175  0.90467  0.22477  1.0000
  H   H164      1.0  0.42164  0.89821  0.05299  1.0000
  H   H165      1.0  0.42926  0.97031  0.05582  1.0000
  H   H166      1.0  0.11439  0.61645  0.23842  1.0000
  H   H167      1.0  0.13250  0.56327  0.21534  1.0000
  H   H168      1.0  0.06756  0.75435  0.27559  1.0000
  C   C207      1.0  0.25296  0.52474  0.28926  1.0000
  C   C208      1.0  0.44697  0.96332  0.13528  1.0000
  S   S35       1.0  0.01797  0.59374  0.10075  1.0000
  S   S36       1.0  0.37608  0.98561  0.25286  1.0000
  C   C209      1.0  0.35092  0.85003  0.18811  1.0000
  C   C210      1.0  0.02630  0.52632  0.20248  1.0000
  C   C211      1.0  0.00032  0.51369  0.17484  1.0000
  C   C212      1.0  0.43340  0.98696  0.15463  1.0000
  H   H169      1.0  0.11954  0.89054  0.28449  1.0000
  H   H170      1.0  0.01942  0.65374  0.04240  1.0000
  H   H171      1.0  0.05522  0.55775  0.20311  1.0000
  Fe  Fe19      1.0  0.99692  0.61395  0.14708  1.0000
  S   S37       1.0  0.00908  0.58580  0.26743  1.0000
  C   C213      1.0  0.01397  0.49924  0.22968  1.0000
  C   C214      1.0  0.00767  0.53930  0.05004  1.0000
  C   C215      1.0  0.47195  0.70469  0.00955  1.0000
  C   C216      1.0  0.48406  0.83172  0.08534  1.0000
  C   C217      1.0  0.11566  0.78561  0.31299  1.0000
  C   C218      1.0  0.98752  0.49994  0.03287  1.0000
  H   H172      1.0  0.42974  0.82053  0.32063  1.0000
  H   H173      1.0  0.27729  0.54573  0.27182  1.0000
  H   H174      1.0  0.46109  0.71416  0.07771  1.0000
  H   H175      1.0  0.30091  0.67596  0.04971  1.0000
  H   H176      1.0  0.03341  0.50980  0.25156  1.0000
  C   C219      1.0  0.46605  0.76906  0.05168  1.0000
  C   C220      1.0  0.36018  0.88152  0.21170  1.0000
  H   H177      1.0  0.03711  0.56625  0.04051  1.0000
  C   C221      1.0  0.11915  0.59508  0.25436  1.0000
  C   C222      1.0  0.42182  0.91451  0.03075  1.0000
  C   C223      1.0  0.42471  0.86435  0.19105  1.0000
  C   C224      1.0  0.13000  0.53915  0.29600  1.0000
  H   H178      1.0  0.43085  0.92865  0.13787  1.0000
  H   H179      1.0  0.31872  0.83239  0.17788  1.0000
  H   H180      1.0  0.40818  0.92857  0.24321  1.0000
  C   C225      1.0  0.14726  0.86337  0.31713  1.0000
  H   H181      1.0  0.01452  0.71423  0.06712  1.0000
  C   C226      1.0  0.09061  0.82245  0.27775  1.0000
  H   H182      1.0  0.47599  0.54493  0.02079  1.0000
  C   C227      1.0  0.42601  0.95542  0.03226  1.0000
  C   C228      1.0  0.11350  0.59653  0.28789  1.0000
  H   H183      1.0  0.21159  0.55051  0.27989  1.0000
  C   C229      1.0  0.25948  0.49556  0.30742  1.0000
  H   H184      1.0  0.02973  0.55376  0.32451  1.0000
  H   H185      1.0  0.00132  0.49678  0.01026  1.0000
  H   H186      1.0  0.10377  0.61855  0.29762  1.0000
  H   H187      1.0  0.20124  0.93104  0.26822  1.0000
  H   H188      1.0  0.35348  0.96439  0.04271  1.0000
  C   C230      1.0  0.38310  0.84128  0.17792  1.0000
  C   C231      1.0  0.08906  0.78449  0.28776  1.0000
  H   H189      1.0  0.07021  0.82143  0.25791  1.0000
  C   C232      1.0  0.48120  0.98418  0.11275  1.0000
  H   H190      1.0  0.37966  0.71367  0.05800  1.0000
  C   C233      1.0  0.11924  0.86169  0.29255  1.0000
  C   C234      1.0  0.11876  0.56866  0.30868  1.0000
  C   C235      1.0  0.14427  0.82480  0.32793  1.0000
  C   C236      1.0  0.43458  0.89694  0.21413  1.0000
  H   H191      1.0  0.47921  0.75032  0.13106  1.0000
  C   C237      1.0  0.32238  0.68366  0.02893  1.0000
  H   H192      1.0  0.40361  0.52200  0.21260  1.0000
  C   C238      1.0  0.44502  0.50303  0.09721  1.0000
  H   H193      1.0  0.43015  0.84587  0.26477  1.0000
  C   C239      1.0  0.99725  0.52995  0.31754  1.0000
  C   C240      1.0  0.99016  0.54405  0.07946  1.0000
  C   C241      1.0  0.36717  0.70515  0.03352  1.0000
  C   C242      1.0  0.21522  0.52690  0.29365  1.0000
  C   C243      1.0  0.41044  0.50597  0.08451  1.0000
  H   H194      1.0  0.42476  0.96489  0.32978  1.0000
  H   H195      1.0  0.46596  0.55043  0.17423  1.0000
  H   H196      1.0  0.11426  0.75607  0.32075  1.0000
  P   P9        1.0  0.45316  0.74310  0.01224  1.0000
  C   C244      1.0  0.19466  0.95963  0.31257  1.0000
  H   H197      1.0  0.14010  0.51255  0.25171  1.0000
  C   C245      1.0  0.46336  0.52908  0.19379  1.0000
  H   H198      1.0  0.46525  0.52528  0.11592  1.0000
  H   H199      1.0  0.47160  0.97321  0.28372  1.0000
  H   H200      1.0  0.44894  0.85670  0.18306  1.0000
  H   H201      1.0  0.30339  0.88504  0.31923  1.0000
  H   H202      1.0  0.28852  0.49356  0.30384  1.0000
  Fe  Fe20      1.0  0.98978  0.60876  0.22180  1.0000
  C   C246      1.0  0.45595  0.86642  0.28119  1.0000
  C   C247      1.0  0.47721  0.76724  0.10989  1.0000
  C   C248      1.0  0.45563  0.85184  0.31285  1.0000
  P   P10       1.0  0.13411  0.50102  0.32235  1.0000
  C   C249      1.0  0.47412  0.81149  0.05494  1.0000
  H   H203      1.0  0.47321  0.82931  0.03404  1.0000
  C   C250      1.0  0.18330  0.49921  0.31591  1.0000
  C   C251      1.0  0.29211  0.90325  0.33308  1.0000
  H   H204      1.0  0.11293  0.56966  0.33445  1.0000
  P   P11       1.0  0.18313  0.91357  0.33742  1.0000
  C   C252      1.0  0.98804  0.65013  0.04770  1.0000
  C   C253      1.0  0.98529  0.68413  0.06178  1.0000
  H   H205      1.0  0.09423  0.90892  0.45404  1.0000
  C   C254      1.0  0.45817  0.95756  0.37099  1.0000
  H   H206      1.0  0.39844  0.57245  0.56682  1.0000
  C   C255      1.0  0.17286  0.57057  0.40672  1.0000
  H   H207      1.0  0.45214  0.58551  0.63953  1.0000
  C   C256      1.0  0.13651  0.51717  0.36428  1.0000
  C   C257      1.0  0.12136  0.92113  0.37359  1.0000
  C   C258      1.0  0.99981  0.54315  0.54096  1.0000
  C   C259      1.0  0.33832  0.85434  0.62076  1.0000
  C   C260      1.0  0.14519  0.90112  0.43295  1.0000
  C   C261      1.0  0.38307  0.55428  0.63365  1.0000
  H   H208      1.0  0.03009  0.56952  0.53203  1.0000
  H   H209      1.0  0.44197  0.56789  0.34359  1.0000
  H   H210      1.0  0.10230  0.70256  0.59535  1.0000
  C   C262      1.0  0.42277  0.55560  0.63399  1.0000
  P   P12       1.0  0.25931  0.84626  0.64047  1.0000
  C   C263      1.0  0.44145  0.95712  0.64434  1.0000
  C   C264      1.0  0.09936  0.91986  0.40220  1.0000
  H   H211      1.0  0.47554  0.62591  0.57743  1.0000
  C   C265      1.0  0.20668  0.78575  0.59344  1.0000
  H   H212      1.0  0.40192  0.49943  0.49798  1.0000
  H   H213      1.0  0.38170  0.58318  0.63898  1.0000
  H   H214      1.0  0.37088  0.55849  0.51027  1.0000
  C   C266      1.0  0.26414  0.95282  0.36650  1.0000
  H   H215      1.0  0.47437  0.57027  0.44412  1.0000
  C   C267      1.0  0.45672  0.56452  0.39387  1.0000
  C   C268      1.0  0.14159  0.54349  0.42929  1.0000
  C   C269      1.0  0.44153  0.97890  0.35228  1.0000
  H   H216      1.0  0.40103  0.86463  0.60644  1.0000
  C   C270      1.0  0.46557  0.97695  0.61592  1.0000
  H   H217      1.0  0.45552  0.51956  0.62917  1.0000
  H   H218      1.0  0.19900  0.60173  0.41434  1.0000
  C   C271      1.0  0.17399  0.78008  0.64639  1.0000
  H   H219      1.0  0.11139  0.92825  0.35065  1.0000
  C   C272      1.0  0.40464  0.58128  0.51491  1.0000
  C   C273      1.0  0.11137  0.91001  0.43189  1.0000
  C   C274      1.0  0.43263  0.60296  0.48895  1.0000
  H   H220      1.0  0.02030  0.50364  0.60202  1.0000
  H   H221      1.0  0.47117  0.53533  0.52858  1.0000
  H   H222      1.0  0.45395  0.92714  0.36262  1.0000
  H   H223      1.0  0.34401  0.91459  0.54078  1.0000
  H   H224      1.0  0.07282  0.92627  0.40130  1.0000
  H   H225      1.0  0.15418  0.89299  0.45591  1.0000
  C   C275      1.0  0.10553  0.48994  0.38719  1.0000
  C   C276      1.0  0.42467  0.51822  0.62773  1.0000
  C   C277      1.0  0.45574  0.58594  0.36582  1.0000
  C   C278      1.0  0.47224  0.63049  0.36654  1.0000
  S   S38       1.0  0.00921  0.59842  0.59100  1.0000
  H   H226      1.0  0.40432  0.90257  0.55548  1.0000
  H   H227      1.0  0.98840  0.66286  0.56607  1.0000
  C   C279      1.0  0.42989  0.49913  0.48824  1.0000
  H   H228      1.0  0.31442  0.51461  0.62639  1.0000
  C   C280      1.0  0.47675  0.63179  0.49463  1.0000
  C   C281      1.0  0.13236  0.72994  0.60366  1.0000
  Fe  Fe21      1.0  0.98782  0.61511  0.63877  1.0000
  C   C282      1.0  0.20870  0.92665  0.64639  1.0000
  C   C283      1.0  0.46365  0.61877  0.55269  1.0000
  C   C284      1.0  0.42016  0.58910  0.54676  1.0000
  H   H229      1.0  0.14337  0.55351  0.45440  1.0000
  C   C285      1.0  0.34525  0.51572  0.62648  1.0000
  C   C286      1.0  0.47434  0.58759  0.42257  1.0000
  H   H230      1.0  0.05794  0.56717  0.63804  1.0000
  C   C287      1.0  0.16803  0.75027  0.58268  1.0000
  H   H231      1.0  0.18321  0.85880  0.64219  1.0000
  C   C288      1.0  0.24569  0.96728  0.64896  1.0000
  H   H232      1.0  0.99438  0.49992  0.50197  1.0000
  C   C289      1.0  0.17047  0.55740  0.37435  1.0000
  H   H233      1.0  0.41961  0.59717  0.46456  1.0000
  H   H234      1.0  0.23385  0.80083  0.57683  1.0000
  C   C290      1.0  0.00931  0.50190  0.62692  1.0000
  H   H235      1.0  0.47127  0.64701  0.34477  1.0000
  H   H236      1.0  0.33837  0.83915  0.64344  1.0000
  H   H237      1.0  0.44347  0.52985  0.39350  1.0000
  C   C291      1.0  0.20983  0.80106  0.62539  1.0000
  H   H238      1.0  0.28058  0.88911  0.57727  1.0000
  H   H239      1.0  0.16437  0.82507  0.34766  1.0000
  C   C292      1.0  0.03069  0.53764  0.64726  1.0000
  C   C293      1.0  0.28649  0.97106  0.64916  1.0000
  H   H240      1.0  0.19279  0.89454  0.40558  1.0000
  H   H241      1.0  0.32245  0.93801  0.64788  1.0000
  C   C294      1.0  0.46918  0.51968  0.50560  1.0000
  C   C295      1.0  0.15591  0.91309  0.37459  1.0000
  H   H242      1.0  0.16560  0.73848  0.55804  1.0000
  H   H243      1.0  0.47020  0.70240  0.49667  1.0000
  C   C296      1.0  0.16724  0.90235  0.40438  1.0000
  C   C297      1.0  0.10807  0.50319  0.41953  1.0000
  C   C298      1.0  0.37399  0.86873  0.59988  1.0000
  C   C299      1.0  0.21245  0.88975  0.64405  1.0000
  C   C300      1.0  0.30603  0.96016  0.37124  1.0000
  H   H244      1.0  0.17699  0.92362  0.64668  1.0000
  C   C301      1.0  0.37594  0.89029  0.57106  1.0000
  H   H245      1.0  0.32836  0.98605  0.38696  1.0000
  H   H246      1.0  0.10765  0.72973  0.65168  1.0000
  C   C302      1.0  0.13538  0.74499  0.63546  1.0000
  C   C303      1.0  0.30618  0.88265  0.58358  1.0000
  C   C304      1.0  0.34201  0.89716  0.56287  1.0000
  C   C305      1.0  0.23570  0.92013  0.34533  1.0000
  H   H247      1.0  0.19498  0.57859  0.35710  1.0000
  C   C306      1.0  0.29042  0.93426  0.64726  1.0000
  C   C307      1.0  0.30399  0.86105  0.61268  1.0000
  C   C308      1.0  0.25340  0.89326  0.64440  1.0000
  H   H248      1.0  0.43803  0.92688  0.65245  1.0000
  H   H249      1.0  0.25436  0.97335  0.37871  1.0000
  C   C309      1.0  0.31990  0.93525  0.35465  1.0000
  C   C310      1.0  0.42145  0.97595  0.66235  1.0000
  H   H250      1.0  0.35256  0.94154  0.35795  1.0000
  H   H251      1.0  0.25760  0.76780  0.66078  1.0000
  H   H252      1.0  0.17564  0.79128  0.67117  1.0000
  C   C311      1.0  0.47955  0.97488  0.40065  1.0000
  H   H253      1.0  0.22137  0.95389  0.86201  1.0000
  Fe  Fe22      1.0  0.28797  0.95867  0.76396  1.0000
  S   S39       1.0  0.23128  0.88877  0.76838  1.0000
  C   C312      1.0  0.26557  0.78850  0.68191  1.0000
  C   C313      1.0  0.37769  0.70343  0.97531  1.0000
  H   H254      1.0  0.08111  0.54014  0.93325  1.0000
  C   C314      1.0  0.99682  0.52598  0.80804  1.0000
  H   H255      1.0  0.20627  0.55857  0.82180  1.0000
  H   H256      1.0  0.43659  0.96611  0.74709  1.0000
  C   C315      1.0  0.18492  0.85530  0.74392  1.0000
  C   C316      1.0  0.16220  0.81034  0.74919  1.0000
  C   C317      1.0  0.12422  0.78273  0.73160  1.0000
  C   C318      1.0  0.10799  0.79973  0.70861  1.0000
  C   C319      1.0  0.13091  0.84464  0.70317  1.0000
  C   C320      1.0  0.16914  0.87218  0.72052  1.0000
  H   H257      1.0  0.17387  0.79677  0.76726  1.0000
  H   H258      1.0  0.10716  0.74838  0.73620  1.0000
  H   H259      1.0  0.03293  0.56322  0.69503  1.0000
  H   H260      1.0  0.18584  0.90661  0.71635  1.0000
  H   H261      1.0  0.07543  0.56848  0.87950  1.0000
  C   C321      1.0  0.28073  0.79975  0.73958  1.0000
  C   C322      1.0  0.08648  0.54538  0.88095  1.0000
  C   C323      1.0  0.46311  0.63600  0.99139  1.0000
  H   H262      1.0  0.31446  0.96763  0.92237  1.0000
  H   H263      1.0  0.26786  0.74213  0.71395  1.0000
  H   H264      1.0  0.42870  0.51895  0.88373  1.0000
  H   H265      1.0  0.40010  0.54304  0.83851  1.0000
  C   C324      1.0  0.10436  0.50005  0.91304  1.0000
  H   H266      1.0  0.44229  0.57098  0.78749  1.0000
  H   H267      1.0  0.28072  0.57206  0.82923  1.0000
  C   C325      1.0  0.11672  0.50432  0.78135  1.0000
  H   H268      1.0  0.18589  0.97043  0.81724  1.0000
  C   C326      1.0  0.40293  0.90027  0.73152  1.0000
  H   H269      1.0  0.44207  0.91568  0.87123  1.0000
  H   H270      1.0  0.41383  0.53802  0.72040  1.0000
  H   H271      1.0  0.41976  0.90248  0.94860  1.0000
  C   C327      1.0  0.44717  0.87071  0.71347  1.0000
  C   C328      1.0  0.43159  0.54577  0.83626  1.0000
  C   C329      1.0  0.44759  0.53197  0.86161  1.0000
  C   C330      1.0  0.43411  0.96907  0.85627  1.0000
  C   C331      1.0  0.44008  0.93983  0.73763  1.0000
  H   H272      1.0  0.42446  0.79332  0.97366  1.0000
  C   C332      1.0  0.42484  0.95771  0.97340  1.0000
  C   C333      1.0  0.28446  0.84030  0.73707  1.0000
  H   H273      1.0  0.46252  0.85363  0.93511  1.0000
  H   H274      1.0  0.39875  0.71070  0.95431  1.0000
  H   H275      1.0  0.11874  0.85831  0.68559  1.0000
  H   H276      1.0  0.34696  0.96729  0.97518  1.0000
  H   H277      1.0  0.40257  0.96015  0.68382  1.0000
  C   C334      1.0  0.07673  0.50109  0.77469  1.0000
  C   C335      1.0  0.47082  0.53779  0.70302  1.0000
  H   H278      1.0  0.44981  0.84385  0.70422  1.0000
  C   C336      1.0  0.45261  0.94938  0.87496  1.0000
  S   S40       1.0  0.35601  0.97000  0.75749  1.0000
  S   S41       1.0  0.99896  0.57491  0.75577  1.0000
  C   C337      1.0  0.45773  0.80393  0.96739  1.0000
  Fe  Fe23      1.0  0.01261  0.69339  0.68388  1.0000
  C   C338      1.0  0.27874  0.85515  0.70705  1.0000
  H   H279      1.0  0.04119  0.51944  0.74293  1.0000
  H   H280      1.0  0.29099  0.86008  0.75862  1.0000
  H   H281      1.0  0.37738  0.83533  0.71428  1.0000
  H   H282      1.0  0.28440  0.78824  0.76305  1.0000
  H   H283      1.0  0.18125  0.52619  0.76243  1.0000
  C   C339      1.0  0.09694  0.53108  0.85248  1.0000
  C   C340      1.0  0.43289  0.50486  0.98266  1.0000
  H   H284      1.0  0.37151  0.89672  0.73608  1.0000
  C   C341      1.0  0.25377  0.53930  0.82858  1.0000
  H   H285      1.0  0.28071  0.88628  0.70598  1.0000
  C   C342      1.0  0.27140  0.77386  0.71196  1.0000
  C   C343      1.0  0.45550  0.56167  0.80752  1.0000
  C   C344      1.0  0.48447  0.91033  0.71958  1.0000
  C   C345      1.0  0.33290  0.68189  0.97082  1.0000
  C   C346      1.0  0.07163  0.52054  0.74697  1.0000
  C   C347      1.0  0.40636  0.86580  0.71922  1.0000
  H   H286      1.0  0.31960  0.67277  0.94655  1.0000
  H   H287      1.0  0.09489  0.54462  0.82957  1.0000
  H   H288      1.0  0.03126  0.54821  0.80902  1.0000
  C   C348      1.0  0.43344  0.52300  0.72256  1.0000
  H   H289      1.0  0.40956  0.95052  0.83842  1.0000
  C   C349      1.0  0.08986  0.52961  0.91122  1.0000
  C   C350      1.0  0.47326  0.52814  0.99825  1.0000
  C   C351      1.0  0.47968  0.78482  0.98176  1.0000
  H   H290      1.0  0.44435  0.60538  0.97902  1.0000
  C   C352      1.0  0.21165  0.53155  0.82423  1.0000
  C   C353      1.0  0.41922  0.89525  0.00066  1.0000
  C   C354      1.0  0.26920  0.82926  0.67925  1.0000
  C   C355      1.0  0.42072  0.91686  0.97201  1.0000
  S   S42       1.0  0.03517  0.64547  0.67987  1.0000
  C   C356      1.0  0.14525  0.54377  0.73069  1.0000
  H   H291      1.0  0.27053  0.65536  0.99413  1.0000
  S   S43       1.0  0.05941  0.76684  0.68616  1.0000
  H   H292      1.0  0.10193  0.55726  0.70357  1.0000
  C   C357      1.0  0.10588  0.54200  0.72499  1.0000
  H   H293      1.0  0.42707  0.97427  0.95081  1.0000
  C   C358      1.0  0.10990  0.50002  0.85405  1.0000
  H   H294      1.0  0.17161  0.55996  0.71342  1.0000
  C   C359      1.0  0.48108  0.94547  0.73098  1.0000
  C   C360      1.0  0.15070  0.52488  0.75873  1.0000
  C   C361      1.0  0.47922  0.83838  0.94567  1.0000
  H   H295      1.0  0.40485  0.50431  0.99318  1.0000
  H   H296      1.0  0.48025  0.56444  0.68646  1.0000
  H   H297      1.0  0.41708  0.65615  0.98233  1.0000
  H   H298      1.0  0.29370  0.51058  0.83562  1.0000
  C   C362      1.0  0.44778  0.66505  0.99335  1.0000
  H   H299      1.0  0.41716  0.86411  0.99953  1.0000
  C   C363      1.0  0.01627  0.53555  0.67918  1.0000
  C   C364      1.0  0.26113  0.50476  0.83228  1.0000
  C   C365      1.0  0.42633  0.97684  0.00360  1.0000
  C   C366      1.0  0.48444  0.97288  0.89849  1.0000
  C   C367      1.0  0.22567  0.98595  0.85999  1.0000
  C   C368      1.0  0.30525  0.67205  0.99762  1.0000
  C   C369      1.0  0.93229  0.46947  0.07460  1.0000
  C   C370      1.0  0.85884  0.21711  0.02906  1.0000
  H   H300      1.0  0.51497  0.48000  0.22577  1.0000
  C   C371      1.0  0.48925  0.39194  0.32429  1.0000
  C   C372      1.0  0.91319  0.46860  0.30031  1.0000
  H   H301      1.0  0.51268  0.47631  0.03334  1.0000
  C   C373      1.0  0.91962  0.28694  0.04313  1.0000
  H   H302      1.0  0.54507  0.43613  0.29616  1.0000
  H   H303      1.0  0.55928  0.37806  0.07861  1.0000
  H   H304      1.0  0.53723  0.07625  0.19215  1.0000
  C   C374      1.0  0.82342  0.44653  0.09873  1.0000
  C   C375      1.0  0.94854  0.44707  0.20192  1.0000
  H   H305      1.0  0.93147  0.32035  0.04915  1.0000
  Fe  Fe24      1.0  0.62432  0.03747  0.00663  1.0000
  H   H306      1.0  0.89080  0.33248  0.30943  1.0000
  C   C376      1.0  0.82649  0.34294  0.11966  1.0000
  C   C377      1.0  0.83775  0.35802  0.15159  1.0000
  C   C378      1.0  0.89590  0.29538  0.27004  1.0000
  C   C379      1.0  0.83280  0.47402  0.07202  1.0000
  C   C380      1.0  0.49087  0.48953  0.22295  1.0000
  C   C381      1.0  0.79826  0.43568  0.24238  1.0000
  C   C382      1.0  0.85761  0.41294  0.21792  1.0000
  C   C383      1.0  0.89330  0.32991  0.28325  1.0000
  H   H307      1.0  0.96567  0.44030  0.25134  1.0000
  C   C384      1.0  0.96145  0.47444  0.17462  1.0000
  H   H308      1.0  0.55591  0.17165  0.30281  1.0000
  H   H309      1.0  0.88040  0.44516  0.29364  1.0000
  H   H310      1.0  0.97913  0.33973  0.30661  1.0000
  H   H311      1.0  0.95260  0.21501  0.02507  1.0000
  H   H312      1.0  0.96855  0.22711  0.08591  1.0000
  C   C385      1.0  0.94809  0.27099  0.03882  1.0000
  H   H313      1.0  0.61662  0.17566  0.33423  1.0000
  C   C386      1.0  0.54894  0.39941  0.06873  1.0000
  H   H314      1.0  0.50368  0.08724  0.12611  1.0000
  H   H315      1.0  0.84996  0.33710  0.07246  1.0000
  C   C387      1.0  0.85831  0.34743  0.09754  1.0000
  C   C388      1.0  0.88688  0.20109  0.02443  1.0000
  C   C389      1.0  0.91257  0.38051  0.13954  1.0000
  H   H316      1.0  0.79313  0.32813  0.11189  1.0000
  H   H317      1.0  0.81265  0.35452  0.16824  1.0000
  H   H318      1.0  0.57063  0.12316  0.05715  1.0000
  C   C390      1.0  0.81998  0.38226  0.23420  1.0000
  H   H319      1.0  0.89171  0.38770  0.27357  1.0000
  C   C391      1.0  0.89685  0.35840  0.22886  1.0000
  C   C392      1.0  0.57974  0.44052  0.05776  1.0000
  C   C393      1.0  0.90124  0.36595  0.10755  1.0000
  C   C394      1.0  0.87522  0.26007  0.03816  1.0000
  H   H320      1.0  0.49210  0.07226  0.05757  1.0000
  H   H321      1.0  0.85352  0.27278  0.04045  1.0000
  H   H322      1.0  0.82312  0.44175  0.15099  1.0000
  C   C395      1.0  0.52345  0.39053  0.15788  1.0000
  C   C396      1.0  0.52429  0.05406  0.21251  1.0000
  H   H323      1.0  0.82575  0.46021  0.04785  1.0000
  H   H324      1.0  0.92582  0.37013  0.09005  1.0000
  H   H325      1.0  0.82450  0.19644  0.02479  1.0000
  C   C397      1.0  0.51278  0.40830  0.29543  1.0000
  C   C398      1.0  0.89931  0.29239  0.23632  1.0000
  H   H326      1.0  0.87409  0.16811  0.01638  1.0000
  H   H327      1.0  0.53625  0.44588  0.12874  1.0000
  C   C399      1.0  0.83087  0.46312  0.13031  1.0000
  H   H328      1.0  0.81023  0.41232  0.09486  1.0000
  C   C400      1.0  0.93255  0.46040  0.32704  1.0000
  C   C401      1.0  0.51854  0.01262  0.20972  1.0000
  C   C402      1.0  0.49303  0.03708  0.26655  1.0000
  C   C403      1.0  0.88108  0.37776  0.16159  1.0000
  C   C404      1.0  0.86474  0.45486  0.21354  1.0000
  H   H329      1.0  0.77574  0.44472  0.25221  1.0000
  C   C405      1.0  0.52245  0.45459  0.04328  1.0000
  C   C406      1.0  0.79055  0.39370  0.24649  1.0000
  H   H330      1.0  0.81347  0.34959  0.23764  1.0000
  H   H331      1.0  0.76195  0.37011  0.25950  1.0000
  H   H332      1.0  0.90225  0.32069  0.18974  1.0000
  H   H333      1.0  0.90285  0.44266  0.08414  1.0000
  C   C407      1.0  0.50482  0.38585  0.06699  1.0000
  C   C408      1.0  0.51127  0.06618  0.24077  1.0000
  C   C409      1.0  0.89981  0.32377  0.21576  1.0000
  C   C410      1.0  0.50866  0.08340  0.03450  1.0000
  C   C411      1.0  0.55328  0.11225  0.03438  1.0000
  H   H334      1.0  0.90131  0.26558  0.22610  1.0000
  C   C412      1.0  0.93129  0.22784  0.02925  1.0000
  H   H335      1.0  0.52747  0.00381  0.18706  1.0000
  P   P13       1.0  0.89614  0.39848  0.20255  1.0000
  H   H336      1.0  0.52859  0.04544  0.09306  1.0000
  H   H337      1.0  0.51355  0.40218  0.24366  1.0000
  C   C413      1.0  0.51468  0.42191  0.14618  1.0000
  H   H338      1.0  0.51422  0.09771  0.24231  1.0000
  H   H339      1.0  0.89327  0.47919  0.20105  1.0000
  H   H340      1.0  0.94084  0.46627  0.15353  1.0000
  C   C414      1.0  0.50166  0.02898  0.10977  1.0000
  C   C415      1.0  0.89384  0.36129  0.26279  1.0000
  H   H341      1.0  0.89525  0.27097  0.28599  1.0000
  S   S44       1.0  0.67304  0.11070  0.00733  1.0000
  H   H342      1.0  0.94608  0.39489  0.14679  1.0000
  C   C416      1.0  0.95012  0.46453  0.04539  1.0000
  S   S45       1.0  0.92436  0.41369  0.02554  1.0000
  H   H343      1.0  0.55179  0.38988  0.14927  1.0000
  H   H344      1.0  0.48781  0.15561  0.33086  1.0000
  S   S46       1.0  0.61343  0.99309  0.04945  1.0000
  C   C417      1.0  0.83526  0.46619  0.22580  1.0000
  C   C418      1.0  0.55338  0.16793  0.32903  1.0000
  H   H345      1.0  0.97608  0.40646  0.31610  1.0000
  C   C419      1.0  0.48763  0.05257  0.12870  1.0000
  C   C420      1.0  0.56643  0.46800  0.04492  1.0000
  C   C421      1.0  0.48726  0.99565  0.26388  1.0000
  H   H346      1.0  0.50471  0.33796  0.19125  1.0000
  H   H347      1.0  0.61391  0.45115  0.05917  1.0000
  C   C422      1.0  0.49463  0.38888  0.26561  1.0000
  C   C423      1.0  0.49654  0.36104  0.18155  1.0000
  C   C424      1.0  0.97523  0.45976  0.22948  1.0000
  C   C425      1.0  0.49126  0.41347  0.05428  1.0000
  H   H348      1.0  0.72749  0.20300  0.00608  1.0000
  Fe  Fe25      1.0  0.61555  0.03051  0.50952  1.0000
  H   H349      1.0  0.61512  0.17329  0.54026  1.0000
  S   S47       1.0  0.67151  0.10135  0.51156  1.0000
  C   C426      1.0  0.89046  0.30575  0.63727  1.0000
  C   C427      1.0  0.54568  0.15600  0.39657  1.0000
  S   S48       1.0  0.54682  0.01820  0.50696  1.0000
  S   S49       1.0  0.87550  0.35731  0.43362  1.0000
  Fe  Fe26      1.0  0.89414  0.30615  0.43409  1.0000
  S   S50       1.0  0.84579  0.23264  0.43346  1.0000
  H   H350      1.0  0.78420  0.22812  0.38482  1.0000
  C   C428      1.0  0.75616  0.23211  0.38282  1.0000
  H   H351      1.0  0.56610  0.10160  0.45190  1.0000
  C   C429      1.0  0.71936  0.13725  0.48888  1.0000
  C   C430      1.0  0.73716  0.12284  0.46493  1.0000
  C   C431      1.0  0.77543  0.15249  0.44819  1.0000
  C   C432      1.0  0.79684  0.19703  0.45512  1.0000
  C   C433      1.0  0.77884  0.21148  0.47888  1.0000
  C   C434      1.0  0.74056  0.18181  0.49562  1.0000
  H   H352      1.0  0.72173  0.08881  0.45951  1.0000
  H   H353      1.0  0.78884  0.14074  0.42991  1.0000
  H   H354      1.0  0.79459  0.24549  0.48454  1.0000
  H   H355      1.0  0.72731  0.19353  0.51405  1.0000
  S   S51       1.0  0.97916  0.43039  0.42841  1.0000
  C   C435      1.0  0.58845  0.07882  0.37347  1.0000
  S   S52       1.0  0.91379  0.41842  0.51512  1.0000
  H   H356      1.0  0.86595  0.28517  0.58866  1.0000
  C   C436      1.0  0.63638  0.05257  0.41065  1.0000
  S   S53       1.0  0.94059  0.33595  0.39141  1.0000
  S   S54       1.0  0.90370  0.41024  0.34788  1.0000
  C   C437      1.0  0.81161  0.44708  0.58436  1.0000
  H   H357      1.0  0.50320  0.40692  0.34742  1.0000
  C   C438      1.0  0.58636  0.13433  0.49775  1.0000
  H   H358      1.0  0.48799  0.03175  0.58411  1.0000
  H   H359      1.0  0.53932  0.46958  0.63663  1.0000
  H   H360      1.0  0.87051  0.40095  0.62141  1.0000
  H   H361      1.0  0.89204  0.44829  0.57279  1.0000
  H   H362      1.0  0.71247  0.16789  0.39854  1.0000
  S   S55       1.0  0.94713  0.34119  0.47097  1.0000
  H   H363      1.0  0.56155  0.10744  0.51150  1.0000
  H   H364      1.0  0.50440  0.45230  0.53561  1.0000
  Fe  Fe27      1.0  0.92514  0.38971  0.39373  1.0000
  H   H365      1.0  0.79955  0.41332  0.57914  1.0000
  H   H366      1.0  0.57531  0.99283  0.62583  1.0000
  H   H367      1.0  0.98463  0.22374  0.45698  1.0000
  C   C439      1.0  0.61871  0.10752  0.39606  1.0000
  C   C440      1.0  0.64189  0.09363  0.41505  1.0000
  P   P14       1.0  0.62599  0.16062  0.40267  1.0000
  H   H368      1.0  0.79352  0.29868  0.36819  1.0000
  C   C441      1.0  0.62144  0.16583  0.44607  1.0000
  C   C442      1.0  0.64904  0.20602  0.49642  1.0000
  C   C443      1.0  0.65152  0.20328  0.46259  1.0000
  H   H369      1.0  0.65490  0.04251  0.42522  1.0000
  H   H370      1.0  0.80870  0.46308  0.53451  1.0000
  C   C444      1.0  0.67864  0.20291  0.38899  1.0000
  H   H371      1.0  0.54143  0.15026  0.42250  1.0000
  C   C445      1.0  0.58398  0.16400  0.38084  1.0000
  C   C446      1.0  0.76141  0.27190  0.37350  1.0000
  C   C447      1.0  0.72544  0.27736  0.37177  1.0000
  C   C448      1.0  0.68425  0.24312  0.37960  1.0000
  C   C449      1.0  0.51143  0.15361  0.37855  1.0000
  C   C450      1.0  0.58899  0.13123  0.46397  1.0000
  H   H372      1.0  0.50046  0.02774  0.43406  1.0000
  H   H373      1.0  0.65291  0.04263  0.63655  1.0000
  H   H374      1.0  0.66365  0.11428  0.43376  1.0000
  H   H375      1.0  0.67293  0.23454  0.50909  1.0000
  H   H376      1.0  0.67755  0.23010  0.44968  1.0000
  H   H377      1.0  0.85357  0.34627  0.57873  1.0000
  H   H378      1.0  0.95668  0.43795  0.62135  1.0000
  C   C451      1.0  0.71507  0.19777  0.39057  1.0000
  C   C452      1.0  0.87321  0.30894  0.60759  1.0000
  C   C453      1.0  0.58611  0.00428  0.65037  1.0000
  H   H379      1.0  0.72969  0.30846  0.36502  1.0000
  H   H380      1.0  0.65699  0.24842  0.37918  1.0000
  C   C454      1.0  0.52627  0.46114  0.58520  1.0000
  C   C455      1.0  0.94080  0.46910  0.53535  1.0000
  C   C456      1.0  0.86589  0.34318  0.60208  1.0000
  Fe  Fe28      1.0  0.93076  0.39436  0.46846  1.0000
  C   C457      1.0  0.82178  0.46229  0.61625  1.0000
  C   C458      1.0  0.87566  0.37416  0.62626  1.0000
  C   C459      1.0  0.61652  0.17155  0.51399  1.0000
  C   C460      1.0  0.51528  0.46143  0.61784  1.0000
  H   H381      1.0  0.72444  0.04834  0.53327  1.0000
  H   H382      1.0  0.72786  0.06982  0.59090  1.0000
  C   C461      1.0  0.71721  0.03650  0.58502  1.0000
  H   H383      1.0  0.81755  0.44035  0.63578  1.0000
  C   C462      1.0  0.95725  0.46253  0.67002  1.0000
  H   H384      1.0  0.55880  0.46904  0.57856  1.0000
  C   C463      1.0  0.58209  0.03727  0.36983  1.0000
  C   C464      1.0  0.97261  0.46459  0.63807  1.0000
  C   C465      1.0  0.89394  0.37176  0.65584  1.0000
  C   C466      1.0  0.92215  0.47473  0.56384  1.0000
  C   C467      1.0  0.81726  0.47550  0.55905  1.0000
  H   H385      1.0  0.56849  0.08745  0.35936  1.0000
  C   C468      1.0  0.70403  0.00546  0.60973  1.0000
  C   C469      1.0  0.62988  0.03223  0.65648  1.0000
  C   C470      1.0  0.60608  0.02414  0.38838  1.0000
  H   H386      1.0  0.70492  0.01538  0.63468  1.0000
  C   C471      1.0  0.71555  0.02448  0.55246  1.0000
  H   H387      1.0  0.89626  0.27924  0.64140  1.0000
  C   C472      1.0  0.49558  0.45175  0.56098  1.0000
  H   H388      1.0  0.55747  0.01480  0.35338  1.0000
  C   C473      1.0  0.90099  0.33714  0.66132  1.0000
  C   C474      1.0  0.58774  0.17041  0.34694  1.0000
  C   C475      1.0  0.51510  0.15915  0.34481  1.0000
  H   H389      1.0  0.60028  0.99155  0.38626  1.0000
  H   H390      1.0  0.75436  0.36700  0.69456  1.0000
  C   C476      1.0  0.87453  0.48932  0.94913  1.0000
  C   C477      1.0  0.50456  0.08958  0.70441  1.0000
  H   H391      1.0  0.91615  0.47530  0.97797  1.0000
  S   S56       1.0  0.94475  0.34277  0.89376  1.0000
  S   S57       1.0  0.90576  0.42132  0.85927  1.0000
  S   S58       1.0  0.88202  0.36155  0.94135  1.0000
  Fe  Fe29      1.0  0.90012  0.31027  0.93679  1.0000
  S   S59       1.0  0.85496  0.23664  0.93685  1.0000
  P   P15       1.0  0.91006  0.41449  0.68533  1.0000
  C   C478      1.0  0.49262  0.10305  0.73250  1.0000
  H   H392      1.0  0.52116  0.38599  0.77030  1.0000
  C   C479      1.0  0.54863  0.99715  0.77946  1.0000
  C   C480      1.0  0.55402  0.10958  0.97557  1.0000
  H   H393      1.0  0.69739  0.47573  0.70592  1.0000
  Fe  Fe30      1.0  0.93028  0.39670  0.90094  1.0000
  C   C481      1.0  0.74308  0.19007  0.99092  1.0000
  C   C482      1.0  0.61335  0.03507  0.71348  1.0000
  C   C483      1.0  0.78295  0.21860  0.97558  1.0000
  C   C484      1.0  0.80381  0.20246  0.95605  1.0000
  C   C485      1.0  0.78394  0.15744  0.95199  1.0000
  C   C486      1.0  0.74393  0.12893  0.96713  1.0000
  H   H394      1.0  0.79768  0.25304  0.97904  1.0000
  H   H395      1.0  0.61236  0.06812  0.83803  1.0000
  H   H396      1.0  0.79968  0.14447  0.93703  1.0000
  H   H397      1.0  0.61083  0.14640  0.00487  1.0000
  C   C487      1.0  0.90799  0.46932  0.80626  1.0000
  C   C488      1.0  0.59029  0.03763  0.82661  1.0000
  C   C489      1.0  0.56909  0.00779  0.70737  1.0000
  H   H398      1.0  0.91501  0.33450  0.68388  1.0000
  H   H399      1.0  0.57196  0.11839  0.95283  1.0000
  C   C490      1.0  0.50800  0.46029  0.81255  1.0000
  C   C491      1.0  0.93264  0.46384  0.83045  1.0000
  S   S60       1.0  0.95442  0.34207  0.97273  1.0000
  Fe  Fe31      1.0  0.93865  0.39538  0.97535  1.0000
  C   C492      1.0  0.79408  0.43456  0.70561  1.0000
  C   C493      1.0  0.56969  0.45316  0.77522  1.0000
  C   C494      1.0  0.50199  0.05160  0.76439  1.0000
  H   H400      1.0  0.50413  0.46991  0.73019  1.0000
  H   H401      1.0  0.49032  0.06998  0.88773  1.0000
  H   H402      1.0  0.87344  0.44742  0.80547  1.0000
  C   C495      1.0  0.89563  0.38544  0.74985  1.0000
  C   C496      1.0  0.86479  0.42295  0.69220  1.0000
  C   C497      1.0  0.72318  0.14502  0.98682  1.0000
  H   H403      1.0  0.88588  0.36651  0.80041  1.0000
  H   H404      1.0  0.50364  0.10297  0.68097  1.0000
  C   C498      1.0  0.82223  0.38815  0.68979  1.0000
  C   C499      1.0  0.92491  0.40076  0.72359  1.0000
  C   C500      1.0  0.51497  0.03849  0.73632  1.0000
  C   C501      1.0  0.96671  0.40713  0.72783  1.0000
  H   H405      1.0  0.86336  0.38056  0.74757  1.0000
  C   C502      1.0  0.51553  0.05733  0.70621  1.0000
  H   H406      1.0  0.52354  0.03518  0.91987  1.0000
  H   H407      1.0  0.76691  0.43919  0.71064  1.0000
  C   C503      1.0  0.78707  0.39399  0.69643  1.0000
  C   C504      1.0  0.83625  0.46917  0.70842  1.0000
  H   H408      1.0  0.59086  0.06651  0.78077  1.0000
  H   H409      1.0  0.58093  0.00062  0.87037  1.0000
  H   H410      1.0  0.62459  0.04790  0.73752  1.0000
  H   H411      1.0  0.52332  0.04664  0.68388  1.0000
  C   C505      1.0  0.57827  0.03648  0.79409  1.0000
  C   C506      1.0  0.87140  0.46331  0.70198  1.0000
  H   H412      1.0  0.67756  0.06925  0.69274  1.0000
  C   C507      1.0  0.95004  0.38452  0.78417  1.0000
  S   S61       1.0  0.55387  0.01969  0.00450  1.0000
  C   C508      1.0  0.64358  0.04733  0.68807  1.0000
  C   C509      1.0  0.57269  0.99963  0.84485  1.0000
  C   C510      1.0  0.52900  0.41688  0.78066  1.0000
  H   H413      1.0  0.72930  0.09449  0.96374  1.0000
  C   C511      1.0  0.49828  0.42041  0.79948  1.0000
  H   H414      1.0  0.49922  0.03639  0.78777  1.0000
  P   P16       1.0  0.52904  0.99668  0.73878  1.0000
  H   H415      1.0  0.87766  0.47363  0.92749  1.0000
  H   H416      1.0  0.63583  0.48780  0.69583  1.0000
  H   H417      1.0  0.49343  0.06716  0.95291  1.0000
  C   C512      1.0  0.90821  0.37730  0.77994  1.0000
  H   H418      1.0  0.59351  0.45036  0.76068  1.0000
  H   H419      1.0  0.95978  0.37929  0.80789  1.0000
  C   C513      1.0  0.97918  0.39905  0.75805  1.0000
  C   C514      1.0  0.49139  0.08409  0.76248  1.0000
  C   C515      1.0  0.49814  0.01654  0.90265  1.0000
  C   C516      1.0  0.55583  0.99233  0.67557  1.0000
  H   H420      1.0  0.74191  0.99620  0.75524  1.0000
  C   C517      1.0  0.50944  0.08057  0.97571  1.0000
  H   H421      1.0  0.81613  0.35633  0.68320  1.0000
  H   H422      1.0  0.98251  0.27787  0.97636  1.0000
  H   H423      1.0  0.67765  0.99849  0.73544  1.0000
  C   C518      1.0  0.57596  0.12542  0.00491  1.0000
  C   C519      1.0  0.48613  0.06795  0.00513  1.0000
  Fe  Fe32      1.0  0.59973  0.94146  0.01216  1.0000
  C   C520      1.0  0.97456  0.49157  0.33580  1.0000
  C   C521      1.0  0.74929  0.55720  0.06037  1.0000
  Fe  Fe33      1.0  0.65975  0.63371  0.09711  1.0000
  S   S62       1.0  0.62486  0.65032  0.13527  1.0000
  S   S63       1.0  0.73159  0.65173  0.09710  1.0000
  Fe  Fe34      1.0  0.57908  0.59218  0.05268  1.0000
  S   S64       1.0  0.53837  0.60456  0.08824  1.0000
  C   C522      1.0  0.90740  0.63912  0.06474  1.0000
  Fe  Fe35      1.0  0.59760  0.67097  0.09382  1.0000
  S   S65       1.0  0.58822  0.72980  0.09998  1.0000
  Fe  Fe36      1.0  0.56820  0.58339  0.12728  1.0000
  S   S66       1.0  0.53879  0.53411  0.16903  1.0000
  S   S67       1.0  0.63666  0.65948  0.05617  1.0000
  S   S68       1.0  0.60475  0.56610  0.09099  1.0000
  Fe  Fe37      1.0  0.92611  0.62393  0.18101  1.0000
  S   S69       1.0  0.85312  0.60108  0.17870  1.0000
  S   S70       1.0  0.94343  0.57113  0.18154  1.0000
  C   C523      1.0  0.76452  0.63616  0.11952  1.0000
  C   C524      1.0  0.74728  0.60229  0.14212  1.0000
  C   C525      1.0  0.77481  0.59174  0.15950  1.0000
  C   C526      1.0  0.81996  0.61457  0.15451  1.0000
  C   C527      1.0  0.83713  0.64792  0.13149  1.0000
  C   C528      1.0  0.80961  0.65855  0.11417  1.0000
  H   H424      1.0  0.71275  0.58428  0.14632  1.0000
  H   H425      1.0  0.76102  0.56591  0.17721  1.0000
  H   H426      1.0  0.87171  0.66613  0.12754  1.0000
  H   H427      1.0  0.82346  0.68469  0.09671  1.0000
  H   H428      1.0  0.75154  0.72127  0.27456  1.0000
  C   C529      1.0  0.61400  0.84793  0.03697  1.0000
  C   C530      1.0  0.85812  0.53504  0.10850  1.0000
  C   C531      1.0  0.62265  0.78475  0.04592  1.0000
  C   C532      1.0  0.60023  0.77586  0.07556  1.0000
  C   C533      1.0  0.58528  0.80362  0.08588  1.0000
  C   C534      1.0  0.59167  0.83909  0.06664  1.0000
  H   H429      1.0  0.63450  0.76396  0.03754  1.0000
  H   H430      1.0  0.56824  0.79740  0.10883  1.0000
  H   H431      1.0  0.57968  0.85982  0.07489  1.0000
  C   C535      1.0  0.52771  0.92480  0.20495  1.0000
  H   H432      1.0  0.64172  0.57433  0.18593  1.0000
  C   C536      1.0  0.84780  0.50727  0.13516  1.0000
  C   C537      1.0  0.81688  0.56538  0.03967  1.0000
  H   H433      1.0  0.59063  0.56909  0.22901  1.0000
  C   C538      1.0  0.78336  0.82655  0.28837  1.0000
  H   H434      1.0  0.92082  0.51296  0.26157  1.0000
  C   C539      1.0  0.62955  0.82056  0.02690  1.0000
  H   H435      1.0  0.54748  0.96503  0.28615  1.0000
  H   H436      1.0  0.49434  0.82573  0.13620  1.0000
  H   H437      1.0  0.95392  0.58493  0.03144  1.0000
  H   H438      1.0  0.77735  0.52057  0.07771  1.0000
  H   H439      1.0  0.70878  0.64367  0.17549  1.0000
  C   C540      1.0  0.52136  0.91852  0.32489  1.0000
  H   H440      1.0  0.85261  0.52017  0.15962  1.0000
  C   C541      1.0  0.77177  0.78380  0.29482  1.0000
  H   H441      1.0  0.61000  0.91565  0.14764  1.0000
  C   C542      1.0  0.52695  0.68569  0.02134  1.0000
  H   H442      1.0  0.93729  0.51283  0.11333  1.0000
  S   S71       1.0  0.52896  0.91921  0.00940  1.0000
  C   C543      1.0  0.78327  0.83976  0.25637  1.0000
  S   S72       1.0  0.97788  0.66505  0.14477  1.0000
  C   C544      1.0  0.58815  0.91238  0.19723  1.0000
  S   S73       1.0  0.49772  0.95295  0.08951  1.0000
  H   H443      1.0  0.67269  0.70302  0.25127  1.0000
  H   H444      1.0  0.94291  0.70457  0.08210  1.0000
  C   C545      1.0  0.82068  0.59798  0.01859  1.0000
  P   P17       1.0  0.48826  0.92781  0.23110  1.0000
  C   C546      1.0  0.90974  0.60497  0.04990  1.0000
  C   C547      1.0  0.94495  0.67863  0.07026  1.0000
  S   S74       1.0  0.96898  0.65861  0.22412  1.0000
  C   C548      1.0  0.58710  0.91811  0.16366  1.0000
  C   C549      1.0  0.85080  0.51863  0.07668  1.0000
  H   H445      1.0  0.60615  0.63349  0.26148  1.0000
  P   P18       1.0  0.86080  0.55413  0.04244  1.0000
  H   H446      1.0  0.61192  0.90536  0.20727  1.0000
  H   H447      1.0  0.79286  0.87305  0.25132  1.0000
  C   C550      1.0  0.78079  0.54497  0.06054  1.0000
  H   H448      1.0  0.87670  0.63525  0.07255  1.0000
  H   H449      1.0  0.87101  0.56915  0.11288  1.0000
  H   H450      1.0  0.53106  0.74523  0.03547  1.0000
  C   C551      1.0  0.48891  0.90741  0.27124  1.0000
  H   H451      1.0  0.77241  0.82129  0.20613  1.0000
  H   H452      1.0  0.50318  0.93684  0.16049  1.0000
  H   H453      1.0  0.55752  0.69362  0.03242  1.0000
  C   C552      1.0  0.68830  0.77283  0.14068  1.0000
  C   C553      1.0  0.70364  0.76824  0.11048  1.0000
  C   C554      1.0  0.73251  0.75277  0.10882  1.0000
  C   C555      1.0  0.74625  0.74212  0.13736  1.0000
  C   C556      1.0  0.73142  0.74716  0.16783  1.0000
  C   C557      1.0  0.70169  0.76184  0.16924  1.0000
  P   P19       1.0  0.74459  0.72866  0.20451  1.0000
  C   C558      1.0  0.69692  0.67781  0.21383  1.0000
  C   C559      1.0  0.79149  0.72261  0.19965  1.0000
  C   C560      1.0  0.79256  0.68748  0.21377  1.0000
  C   C561      1.0  0.82981  0.68419  0.21133  1.0000
  C   C562      1.0  0.86626  0.71587  0.19492  1.0000
  C   C563      1.0  0.86573  0.75128  0.18127  1.0000
  C   C564      1.0  0.82866  0.75492  0.18392  1.0000
  C   C565      1.0  0.68741  0.64136  0.19514  1.0000
  C   C566      1.0  0.64947  0.60216  0.20093  1.0000
  C   C567      1.0  0.62052  0.59926  0.22511  1.0000
  C   C568      1.0  0.62930  0.63563  0.24339  1.0000
  C   C569      1.0  0.66723  0.67492  0.23764  1.0000
  C   C570      1.0  0.75864  0.76694  0.23721  1.0000
  C   C571      1.0  0.75976  0.75415  0.26931  1.0000
  C   C572      1.0  0.77128  0.81017  0.23081  1.0000
  H   H454      1.0  0.66479  0.78347  0.14175  1.0000
  H   H455      1.0  0.69207  0.77548  0.08835  1.0000
  H   H456      1.0  0.74320  0.74761  0.08537  1.0000
  H   H457      1.0  0.76725  0.72860  0.13538  1.0000
  H   H458      1.0  0.68803  0.76383  0.19231  1.0000
  H   H459      1.0  0.76486  0.66259  0.22673  1.0000
  H   H460      1.0  0.83026  0.65657  0.22161  1.0000
  H   H461      1.0  0.89471  0.71257  0.19252  1.0000
  H   H462      1.0  0.89408  0.77581  0.16857  1.0000
  H   H463      1.0  0.82892  0.78283  0.17359  1.0000
  H   H464      1.0  0.72240  0.54265  0.07737  1.0000
  C   C573      1.0  0.49494  0.51727  0.19715  1.0000
  H   H465      1.0  0.55586  0.93191  0.12462  1.0000
  C   C574      1.0  0.48821  0.87794  0.33472  1.0000
  C   C575      1.0  0.48581  0.80969  0.11279  1.0000
  S   S75       1.0  0.62410  0.89279  0.01176  1.0000
  C   C576      1.0  0.55654  0.92715  0.15066  1.0000
  C   C577      1.0  0.93590  0.50702  0.28207  1.0000
  C   C578      1.0  0.55865  0.91573  0.21783  1.0000
  C   C579      1.0  0.95180  0.50918  0.09129  1.0000
  C   C580      1.0  0.97823  0.53776  0.29042  1.0000
  C   C581      1.0  0.51180  0.71480  0.02321  1.0000
  H   H466      1.0  0.56012  0.91098  0.24367  1.0000
  C   C582      1.0  0.52690  0.93031  0.17115  1.0000
  C   C583      1.0  0.52185  0.93323  0.29327  1.0000
  H   H467      1.0  0.84148  0.49892  0.22282  1.0000
  H   H468      1.0  0.79283  0.84955  0.30814  1.0000
  C   C584      1.0  0.75337  0.58963  0.03933  1.0000
  C   C585      1.0  0.95051  0.61076  0.04171  1.0000
  Fe  Fe38      1.0  0.54290  0.97279  0.04487  1.0000
  H   H469      1.0  0.72951  0.59986  0.03996  1.0000
  H   H470      1.0  0.59011  0.49991  0.03625  1.0000
  H   H471      1.0  0.49101  0.86478  0.08746  1.0000
  C   C586      1.0  0.78897  0.60992  0.01838  1.0000
  H   H472      1.0  0.77242  0.77367  0.31956  1.0000
  C   C587      1.0  0.50017  0.98302  0.23548  1.0000
  H   H473      1.0  0.90905  0.51043  0.02730  1.0000
  H   H474      1.0  0.48741  0.86717  0.35953  1.0000
  C   C588      1.0  0.59803  0.70481  0.48393  1.0000
  H   H475      1.0  0.72644  0.58594  0.57015  1.0000
  H   H476      1.0  0.64532  0.82865  0.51945  1.0000
  H   H477      1.0  0.52562  0.66267  0.53186  1.0000
  H   H478      1.0  0.69476  0.50393  0.48645  1.0000
  H   H479      1.0  0.74155  0.92857  0.66896  1.0000
  C   C589      1.0  0.73545  0.56951  0.55230  1.0000
  S   S76       1.0  0.51406  0.91459  0.51231  1.0000
  Fe  Fe39      1.0  0.58356  0.93210  0.51589  1.0000
  S   S77       1.0  0.60749  0.88303  0.51701  1.0000
  Fe  Fe40      1.0  0.65510  0.63845  0.60350  1.0000
  S   S78       1.0  0.61659  0.65192  0.64069  1.0000
  S   S79       1.0  0.72898  0.66736  0.60483  1.0000
  Fe  Fe41      1.0  0.57391  0.58232  0.56189  1.0000
  S   S80       1.0  0.52998  0.59018  0.59690  1.0000
  S   S81       1.0  0.55605  0.54437  0.51408  1.0000
  Fe  Fe42      1.0  0.58187  0.66081  0.59791  1.0000
  S   S82       1.0  0.55726  0.70928  0.59672  1.0000
  Fe  Fe43      1.0  0.56758  0.58100  0.63691  1.0000
  H   H480      1.0  0.76594  0.50867  0.48908  1.0000
  S   S83       1.0  0.62413  0.65301  0.56110  1.0000
  S   S84       1.0  0.60799  0.56754  0.60158  1.0000
  H   H481      1.0  0.70304  0.78635  0.60475  1.0000
  H   H482      1.0  0.91344  0.49348  0.46901  1.0000
  H   H483      1.0  0.79768  0.59086  0.57348  1.0000
  C   C590      1.0  0.76020  0.64620  0.62231  1.0000
  H   H484      1.0  0.52548  0.89272  0.59111  1.0000
  C   C591      1.0  0.84342  0.53445  0.59761  1.0000
  H   H485      1.0  0.90702  0.71472  0.54084  1.0000
  C   C592      1.0  0.83155  0.65370  0.63217  1.0000
  C   C593      1.0  0.80545  0.66847  0.61778  1.0000
  C   C594      1.0  0.83418  0.51957  0.56540  1.0000
  C   C595      1.0  0.71693  0.88748  0.60849  1.0000
  H   H486      1.0  0.82051  0.69776  0.60343  1.0000
  C   C596      1.0  0.59230  0.83425  0.53903  1.0000
  C   C597      1.0  0.61741  0.81423  0.53541  1.0000
  C   C598      1.0  0.60700  0.77587  0.55243  1.0000
  C   C599      1.0  0.57124  0.75685  0.57345  1.0000
  C   C600      1.0  0.54602  0.77675  0.57693  1.0000
  C   C601      1.0  0.55626  0.81493  0.55975  1.0000
  H   H487      1.0  0.62704  0.76138  0.54968  1.0000
  H   H488      1.0  0.51826  0.76251  0.59306  1.0000
  H   H489      1.0  0.53612  0.82928  0.56245  1.0000
  H   H490      1.0  0.89691  0.51382  0.41549  1.0000
  C   C602      1.0  0.55991  0.78935  0.44153  1.0000
  C   C603      1.0  0.69069  0.94462  0.67181  1.0000
  C   C604      1.0  0.78826  0.55226  0.53028  1.0000
  C   C605      1.0  0.91158  0.68727  0.54397  1.0000
  C   C606      1.0  0.69627  0.81199  0.61018  1.0000
  C   C607      1.0  0.71768  0.52346  0.50504  1.0000
  C   C608      1.0  0.56528  0.66719  0.46915  1.0000
  C   C609      1.0  0.57374  0.63403  0.46118  1.0000
  C   C610      1.0  0.61445  0.63891  0.46701  1.0000
  C   C611      1.0  0.64714  0.67691  0.48079  1.0000
  C   C612      1.0  0.63887  0.70982  0.48934  1.0000
  H   H491      1.0  0.54896  0.60386  0.45118  1.0000
  C   C613      1.0  0.87765  0.64566  0.53733  1.0000
  C   C614      1.0  0.50576  0.51983  0.49315  1.0000
  S   S85       1.0  0.96871  0.66615  0.64003  1.0000
  C   C615      1.0  0.51934  0.71487  0.46015  1.0000
  C   C616      1.0  0.55184  0.74694  0.44047  1.0000
  H   H492      1.0  0.75608  0.86205  0.58976  1.0000
  H   H493      1.0  0.62012  0.61252  0.46175  1.0000
  H   H494      1.0  0.67835  0.68020  0.48592  1.0000
  H   H495      1.0  0.66376  0.73874  0.50100  1.0000
  C   C617      1.0  0.86366  0.54449  0.43646  1.0000
  H   H496      1.0  0.54276  0.83326  0.46373  1.0000
  H   H497      1.0  0.59206  0.73019  0.49176  1.0000
  C   C618      1.0  0.83710  0.50580  0.62291  1.0000
  C   C619      1.0  0.94204  0.51428  0.58077  1.0000
  C   C620      1.0  0.88294  0.60982  0.54234  1.0000
  C   C621      1.0  0.58646  0.90313  0.60905  1.0000
  C   C622      1.0  0.58610  0.87981  0.66438  1.0000
  Fe  Fe44      1.0  0.53112  0.96954  0.54730  1.0000
  S   S86       1.0  0.50017  0.94661  0.42307  1.0000
  H   H498      1.0  0.67622  0.91713  0.56259  1.0000
  C   C623      1.0  0.52017  0.87081  0.64063  1.0000
  C   C624      1.0  0.77598  0.57258  0.55386  1.0000
  H   H499      1.0  0.83307  0.57299  0.46389  1.0000
  P   P20       1.0  0.51279  0.66139  0.46142  1.0000
  H   H500      1.0  0.60264  0.91619  0.58609  1.0000
  H   H501      1.0  0.74052  0.92037  0.60199  1.0000
  H   H502      1.0  0.48605  0.86034  0.64243  1.0000
  Fe  Fe45      1.0  0.53513  0.96458  0.47234  1.0000
  P   P21       1.0  0.66666  0.92069  0.63312  1.0000
  C   C625      1.0  0.89546  0.51045  0.46786  1.0000
  C   C626      1.0  0.67767  0.87789  0.62349  1.0000
  C   C627      1.0  0.84971  0.55481  0.46525  1.0000
  C   C628      1.0  0.88181  0.52097  0.49661  1.0000
  H   H503      1.0  0.92740  0.51793  0.60275  1.0000
  C   C629      1.0  0.65742  0.80229  0.62542  1.0000
  C   C630      1.0  0.64788  0.83495  0.63179  1.0000
  C   C631      1.0  0.81264  0.61626  0.65127  1.0000
  H   H504      1.0  0.54612  0.93885  0.34213  1.0000
  H   H505      1.0  0.84755  0.64177  0.52827  1.0000
  C   C632      1.0  0.72602  0.85459  0.60169  1.0000
  C   C633      1.0  0.74127  0.60816  0.64068  1.0000
  C   C634      1.0  0.68895  0.96204  0.60197  1.0000
  H   H506      1.0  0.84398  0.51753  0.64770  1.0000
  H   H507      1.0  0.85729  0.55414  0.41311  1.0000
  C   C635      1.0  0.54187  0.86547  0.66684  1.0000
  C   C636      1.0  0.75830  0.52664  0.50640  1.0000
  C   C637      1.0  0.68833  0.95048  0.56925  1.0000
  C   C638      1.0  0.92327  0.61643  0.55238  1.0000
  C   C639      1.0  0.54242  0.88928  0.61169  1.0000
  C   C640      1.0  0.88618  0.52197  0.43776  1.0000
  C   C641      1.0  0.60899  0.89978  0.63568  1.0000
  H   H508      1.0  0.85512  0.56804  0.60334  1.0000
  C   C642      1.0  0.49490  0.72598  0.48072  1.0000
  H   H509      1.0  0.63416  0.76916  0.63168  1.0000
  H   H510      1.0  0.61709  0.82628  0.64290  1.0000
  H   H511      1.0  0.58569  0.81424  0.42697  1.0000
  H   H512      1.0  0.86629  0.67167  0.62895  1.0000
  C   C643      1.0  0.76733  0.59327  0.65479  1.0000
  C   C644      1.0  0.85758  0.54197  0.49552  1.0000
  H   H513      1.0  0.92849  0.58939  0.55558  1.0000
  H   H514      1.0  0.70658  0.59032  0.64417  1.0000
  C   C645      1.0  0.53568  0.80011  0.46221  1.0000
  C   C646      1.0  0.49201  0.63973  0.52674  1.0000
  H   H515      1.0  0.53053  0.49924  0.45331  1.0000
  P   P22       1.0  0.84047  0.55593  0.53282  1.0000
  H   H516      1.0  0.57177  0.73936  0.42503  1.0000
  S   S87       1.0  0.60409  0.97857  0.47344  1.0000
  C   C647      1.0  0.70138  0.98151  0.54461  1.0000
  C   C648      1.0  0.70640  0.54518  0.52781  1.0000
  H   H517      1.0  0.67497  0.54287  0.52674  1.0000
  S   S88       1.0  0.93413  0.56958  0.67177  1.0000
  C   C649      1.0  0.95740  0.65812  0.55823  1.0000
  C   C650      1.0  0.95142  0.69349  0.55452  1.0000
  C   C651      1.0  0.50317  0.76846  0.48173  1.0000
  H   H518      1.0  0.75225  0.56385  0.66880  1.0000
  H   H519      1.0  0.89054  0.51289  0.51963  1.0000
  S   S89       1.0  0.48983  0.95141  0.59412  1.0000
  C   C652      1.0  0.48967  0.65366  0.39533  1.0000
  H   H520      1.0  0.50162  0.68793  0.39530  1.0000
  C   C653      1.0  0.50248  0.49938  0.46316  1.0000
  H   H521      1.0  0.69909  0.97184  0.51934  1.0000
  S   S90       1.0  0.60040  0.98536  0.55233  1.0000
  C   C654      1.0  0.97970  0.50366  0.52389  1.0000
  C   C655      1.0  0.98132  0.54865  0.56960  1.0000
  H   H522      1.0  0.97771  0.72565  0.55979  1.0000
  C   C656      1.0  0.49087  0.63235  0.42367  1.0000
  S   S91       1.0  0.84355  0.59704  0.67196  1.0000
  H   H523      1.0  0.48520  0.77723  0.49831  1.0000
  H   H524      1.0  0.52192  0.97230  0.66975  1.0000
  C   C657      1.0  0.52293  0.85459  0.93855  1.0000
  H   H525      1.0  0.53319  0.50729  0.94487  1.0000
  S   S92       1.0  0.56186  0.55944  0.00266  1.0000
  H   H526      1.0  0.87979  0.53783  0.81675  1.0000
  H   H527      1.0  0.83143  0.50708  0.92680  1.0000
  H   H528      1.0  0.52896  0.93123  0.84514  1.0000
  C   C658      1.0  0.54510  0.83613  0.95297  1.0000
  H   H529      1.0  0.61255  0.61448  0.71560  1.0000
  H   H530      1.0  0.92163  0.73402  0.73023  1.0000
  C   C659      1.0  0.52367  0.80146  0.97452  1.0000
  H   H531      1.0  0.51196  0.57394  0.78078  1.0000
  H   H532      1.0  0.84888  0.59716  0.73899  1.0000
  H   H533      1.0  0.67512  0.68140  0.73686  1.0000
  C   C660      1.0  0.59068  0.58605  0.76307  1.0000
  C   C661      1.0  0.58805  0.58597  0.88541  1.0000
  H   H534      1.0  0.84181  0.50068  0.71561  1.0000
  C   C662      1.0  0.82951  0.55272  0.82712  1.0000
  H   H535      1.0  0.82429  0.54013  0.85172  1.0000
  C   C663      1.0  0.65363  0.65628  0.75361  1.0000
  H   H536      1.0  0.63751  0.55298  0.71729  1.0000
  H   H537      1.0  0.57946  0.84984  0.94849  1.0000
  H   H538      1.0  0.49864  0.52192  0.87773  1.0000
  H   H539      1.0  0.80950  0.71353  0.67738  1.0000
  C   C664      1.0  0.81256  0.58770  0.78352  1.0000
  C   C665      1.0  0.61971  0.56206  0.92652  1.0000
  C   C666      1.0  0.61721  0.53042  0.90527  1.0000
  C   C667      1.0  0.60004  0.52641  0.87405  1.0000
  H   H540      1.0  0.53995  0.88239  0.92269  1.0000
  H   H541      1.0  0.96991  0.49684  0.71570  1.0000
  C   C668      1.0  0.59742  0.59110  0.79682  1.0000
  C   C669      1.0  0.58546  0.55430  0.86385  1.0000
  C   C670      1.0  0.74555  0.96223  0.71311  1.0000
  C   C671      1.0  0.66320  0.51072  0.71015  1.0000
  C   C672      1.0  0.66084  0.66154  0.78715  1.0000
  C   C673      1.0  0.63272  0.62925  0.80872  1.0000
  H   H542      1.0  0.57600  0.60713  0.87837  1.0000
  H   H543      1.0  0.51468  0.62396  0.00390  1.0000
  H   H544      1.0  0.59774  0.50121  0.85822  1.0000
  C   C674      1.0  0.54336  0.96038  0.83052  1.0000
  S   S93       1.0  0.50671  0.94658  0.92153  1.0000
  C   C675      1.0  0.60505  0.58973  0.91661  1.0000
  H   H545      1.0  0.56374  0.55697  0.75324  1.0000
  H   H546      1.0  0.63162  0.56433  0.95112  1.0000
  C   C676      1.0  0.86068  0.55122  0.80739  1.0000
  H   H547      1.0  0.77365  0.96128  0.72177  1.0000
  Fe  Fe46      1.0  0.54575  0.96819  0.96923  1.0000
  H   H548      1.0  0.68809  0.69084  0.79646  1.0000
  H   H549      1.0  0.63875  0.63433  0.83452  1.0000
  H   H550      1.0  0.60558  0.61314  0.93365  1.0000
  C   C677      1.0  0.84315  0.58492  0.76363  1.0000
  C   C678      1.0  0.49635  0.51857  0.70539  1.0000
  P   P23       1.0  0.78184  0.61140  0.76785  1.0000
  C   C679      1.0  0.73515  0.57152  0.74567  1.0000
  C   C680      1.0  0.76354  0.63091  0.80144  1.0000
  C   C681      1.0  0.72582  0.60242  0.81873  1.0000
  C   C682      1.0  0.71223  0.61713  0.84531  1.0000
  C   C683      1.0  0.73583  0.66036  0.85463  1.0000
  C   C684      1.0  0.77327  0.68894  0.83749  1.0000
  C   C685      1.0  0.78723  0.67430  0.81109  1.0000
  C   C686      1.0  0.69987  0.57776  0.74017  1.0000
  C   C687      1.0  0.66420  0.54758  0.72229  1.0000
  C   C688      1.0  0.50990  0.52973  0.98452  1.0000
  C   C689      1.0  0.82377  0.70475  0.69702  1.0000
  C   C690      1.0  0.73380  0.53429  0.73343  1.0000
  C   C691      1.0  0.81578  0.65681  0.74171  1.0000
  C   C692      1.0  0.79755  0.66916  0.71670  1.0000
  H   H551      1.0  0.90817  0.50655  0.76476  1.0000
  H   H552      1.0  0.76088  0.52911  0.73659  1.0000
  C   C693      1.0  0.88688  0.71622  0.72674  1.0000
  C   C694      1.0  0.86065  0.68123  0.74695  1.0000
  H   H553      1.0  0.78175  0.57181  0.83109  1.0000
  Fe  Fe47      1.0  0.97943  0.60337  0.71344  1.0000
  H   H554      1.0  0.70724  0.56874  0.81194  1.0000
  H   H555      1.0  0.68347  0.59502  0.85880  1.0000
  H   H556      1.0  0.72527  0.67168  0.87527  1.0000
  H   H557      1.0  0.79179  0.72244  0.84484  1.0000
  H   H558      1.0  0.81663  0.69693  0.79845  1.0000
  H   H559      1.0  0.70029  0.60638  0.74911  1.0000
  H   H560      1.0  0.62775  0.50841  0.91330  1.0000
  C   C695      1.0  0.51152  0.54937  0.82917  1.0000
  S   S94       1.0  0.61629  0.98759  0.96952  1.0000
  C   C696      1.0  0.98011  0.49802  0.69067  1.0000
  H   H561      1.0  0.61129  0.52074  0.78414  1.0000
  H   H562      1.0  0.51592  0.91376  0.71515  1.0000
  C   C697      1.0  0.97731  0.49222  0.83106  1.0000
  C   C698      1.0  0.80546  0.57080  0.81527  1.0000
  H   H563      1.0  0.87566  0.67319  0.76643  1.0000
  P   P24       1.0  0.56131  0.54837  0.82420  1.0000
  C   C699      1.0  0.86744  0.56727  0.77564  1.0000
  H   H564      1.0  0.89197  0.56658  0.76041  1.0000
  C   C700      1.0  0.61846  0.61859  0.74161  1.0000
  C   C701      1.0  0.53135  0.95903  0.79797  1.0000
  C   C702      1.0  0.84421  0.52801  0.97685  1.0000
  C   C703      1.0  0.86845  0.72791  0.70173  1.0000
  C   C704      1.0  0.54842  0.49707  0.80665  1.0000
  H   H565      1.0  0.76329  0.65115  0.71179  1.0000
  S   S95       1.0  0.54414  0.53645  0.68165  1.0000
  S   S96       1.0  0.95857  0.65293  0.71937  1.0000
  C   C705      1.0  0.50537  0.50704  0.95544  1.0000
  H   H566      1.0  0.60250  0.87549  0.68488  1.0000
  H   H567      1.0  0.64524  0.96625  0.68249  1.0000
  C   C706      1.0  0.72718  0.94365  0.68313  1.0000
  H   H568      1.0  0.54213  0.78900  0.98631  1.0000
  H   H569      1.0  0.82338  0.54172  0.97603  1.0000
  C   C707      1.0  0.67316  0.96481  0.69082  1.0000
  C   C708      1.0  0.89229  0.51035  0.00546  1.0000
  C   C709      1.0  0.92759  0.50284  0.78308  1.0000
  C   C710      1.0  0.57955  0.49306  0.78839  1.0000
  H   H570      1.0  0.88886  0.75463  0.68577  1.0000
  C   C711      1.0  0.84850  0.50817  0.94880  1.0000
  H   H571      1.0  0.52446  0.85016  0.68902  1.0000
  C   C712      1.0  0.97214  0.53163  0.78400  1.0000
  C   C713      1.0  0.69782  0.50392  0.71591  1.0000
  Fe  Fe48      1.0  0.91668  0.62207  0.67498  1.0000
  H   H572      1.0  0.50760  0.92837  0.78782  1.0000
  H   H573      1.0  0.64703  0.82707  0.00409  1.0000
  C   C714      1.0  0.49514  0.56318  0.80381  1.0000
  H   H574      1.0  0.84888  0.61505  0.00303  1.0000
  C   C715      1.0  0.48736  0.53375  0.85810  1.0000
  C   C716      1.0  0.69153  0.98325  0.72080  1.0000
  C   C717      1.0  0.72770  0.98194  0.73196  1.0000
  H   H575      1.0  0.90356  0.49026  0.70512  1.0000
  H   H576      1.0  0.79255  0.63579  0.00269  1.0000
  C   C718      1.0  0.86617  0.52931  0.00551  1.0000
  C   C719      1.0  0.89634  0.49037  0.97751  1.0000
  C   C720      1.0  0.50269  0.64634  0.00540  1.0000
