data_image0
_chemical_formula_structural       H3FeSCS2HC3PHC5H2CHC2H2C2HC2HC2HC3HC2H3CHC2H2C3H3CHSHCFeC3FeSFeS3CH2C5H7C6HC4HCHCH2CHPHCH4CHC3HCHCH2SHC7H3CH2C13HCHCH4CH5SPHC3HC2HC4H2C2HFeH3C2HC2HFeSC3HCHCHFeS2FeSHFeSFeS2C3HC6HCH3C2SH3C6HSHCH2CH2CH2SCH4C3PHC3H3C3HCHC2H2CHSCFeSFeC6H4CHCH2C2H2C2HC5H2C2SHC2HC6SH9PHCHSC2SH2C2FeC6H5C6PH3CH3C5HC2HCH3C2H2C3H2C2SH4CS2FeSFeC6H5CHCHC2HC4HC3HC2H7SH2C2H2CHCH3C2HCSCFeSFeS2FeCFeS3HCPCHC7H7CSPCHC8H6C2HC2HC5H4C6H2CHSC3HC3H3C3H2CH4C2HC2S2FeSFeSFeSFeS3HC2HC8H4C3PH2C2H3C3H2CH2C3HFeCHCHCHCHPHCH3C2HC5HCH2C2H2C3PH3C2H2C6HCH2C2H2CH2C2HC4PHCHCH2CH4C7HCH2CH2CH3CHC3H2CHCHC5
_chemical_formula_sum              "H288 Fe24 S48 C360 P12"
_cell_length_a       30.6779
_cell_length_b       30.9079
_cell_length_c       32.6162
_cell_angle_alpha    90.4312
_cell_angle_beta     89.7018
_cell_angle_gamma    120.265

_space_group_name_H-M_alt    "P 1"
_space_group_IT_number       1

loop_
  _space_group_symop_operation_xyz
  'x, y, z'

loop_
  _atom_site_type_symbol
  _atom_site_label
  _atom_site_symmetry_multiplicity
  _atom_site_fract_x
  _atom_site_fract_y
  _atom_site_fract_z
  _atom_site_occupancy
  H   H1        1.0  0.43768  0.47033  0.19131  1.0000
  H   H2        1.0  0.12157  0.46663  0.02045  1.0000
  H   H3        1.0  0.24986  0.16216  0.31907  1.0000
  Fe  Fe1       1.0  0.46446  0.18111  0.57104  1.0000
  S   S1        1.0  0.40680  0.09597  0.57010  1.0000
  C   C1        1.0  0.47234  0.19879  0.42699  1.0000
  S   S2        1.0  0.44446  0.33930  0.59552  1.0000
  S   S3        1.0  0.46215  0.23807  0.52941  1.0000
  H   H4        1.0  0.18405  0.17426  0.35285  1.0000
  C   C2        1.0  0.39471  0.01081  0.46828  1.0000
  C   C3        1.0  0.41108  0.05190  0.49559  1.0000
  C   C4        1.0  0.38664  0.04606  0.53326  1.0000
  P   P1        1.0  0.32290  0.14753  0.44907  1.0000
  H   H5        1.0  0.44330  0.08779  0.48784  1.0000
  C   C5        1.0  0.29983  0.00969  0.41466  1.0000
  C   C6        1.0  0.33634  0.16045  0.57408  1.0000
  C   C7        1.0  0.39491  0.38863  0.62223  1.0000
  C   C8        1.0  0.40249  0.34782  0.62890  1.0000
  C   C9        1.0  0.33823  0.23482  0.54899  1.0000
  H   H6        1.0  0.41478  0.41416  0.59741  1.0000
  H   H7        1.0  0.41402  0.01606  0.43931  1.0000
  C   C10       1.0  0.48705  0.24166  0.40357  1.0000
  H   H8        1.0  0.34617  0.22175  0.61247  1.0000
  C   C11       1.0  0.36150  0.39659  0.64706  1.0000
  C   C12       1.0  0.34021  0.20681  0.58158  1.0000
  H   H9        1.0  0.34297  0.27155  0.55488  1.0000
  H   H10       1.0  0.33974  0.13949  0.59915  1.0000
  C   C13       1.0  0.45192  0.25606  0.39375  1.0000
  C   C14       1.0  0.33222  0.21643  0.50886  1.0000
  H   H11       1.0  0.33253  0.23940  0.48384  1.0000
  C   C15       1.0  0.33017  0.14188  0.53402  1.0000
  C   C16       1.0  0.24771  0.16271  0.35224  1.0000
  H   H12       1.0  0.32940  0.10688  0.52883  1.0000
  C   C17       1.0  0.32721  0.16935  0.50116  1.0000
  C   C18       1.0  0.27957  0.15732  0.41893  1.0000
  H   H13       1.0  0.17817  0.17388  0.42879  1.0000
  C   C19       1.0  0.29979  0.08105  0.44646  1.0000
  C   C20       1.0  0.34576  0.99832  0.54306  1.0000
  C   C21       1.0  0.25872  0.04800  0.47093  1.0000
  H   H14       1.0  0.41181  0.13787  0.45960  1.0000
  C   C22       1.0  0.38650  0.18341  0.42965  1.0000
  C   C23       1.0  0.42232  0.16992  0.44020  1.0000
  H   H15       1.0  0.31009  0.15051  0.36085  1.0000
  H   H16       1.0  0.34983  0.08580  0.39722  1.0000
  H   H17       1.0  0.46393  0.29014  0.37659  1.0000
  C   C24       1.0  0.21058  0.16941  0.37126  1.0000
  H   H18       1.0  0.23762  0.16180  0.47090  1.0000
  C   C25       1.0  0.40184  0.22728  0.40698  1.0000
  C   C26       1.0  0.24143  0.16286  0.43784  1.0000
  H   H19       1.0  0.24190  0.06220  0.49248  1.0000
  H   H20       1.0  0.32659  0.99305  0.57210  1.0000
  C   C27       1.0  0.28191  0.15635  0.37596  1.0000
  C   C28       1.0  0.31935  0.06141  0.41749  1.0000
  C   C29       1.0  0.20733  0.16929  0.41403  1.0000
  H   H21       1.0  0.31612  0.99460  0.39337  1.0000
  H   H22       1.0  0.37562  0.23994  0.40021  1.0000
  H   H23       1.0  0.04259  0.40173  0.59368  1.0000
  C   C30       1.0  0.01398  0.39585  0.61617  1.0000
  H   H24       1.0  0.35598  0.42789  0.64112  1.0000
  S   S4        1.0  0.47268  0.22640  0.62908  1.0000
  H   H25       1.0  0.44354  0.02117  0.59639  1.0000
  C   C31       1.0  0.46190  0.01099  0.57283  1.0000
  Fe  Fe2       1.0  0.47567  0.28529  0.58678  1.0000
  C   C32       1.0  0.23948  0.99632  0.46816  1.0000
  C   C33       1.0  0.37631  0.31531  0.66127  1.0000
  C   C34       1.0  0.02671  0.40443  0.65766  1.0000
  Fe  Fe3       1.0  0.17827  0.44595  0.75106  1.0000
  S   S5        1.0  0.09402  0.41968  0.76196  1.0000
  Fe  Fe4       1.0  0.26738  0.43009  0.72337  1.0000
  S   S6        1.0  0.29020  0.37018  0.71067  1.0000
  S   S7        1.0  0.22867  0.42462  0.78409  1.0000
  S   S8        1.0  0.21167  0.44436  0.68914  1.0000
  C   C35       1.0  0.39366  0.47076  0.81456  1.0000
  H   H26       1.0  0.17566  0.33614  0.88651  1.0000
  H   H27       1.0  0.36963  0.44721  0.83906  1.0000
  C   C36       1.0  0.42591  0.17694  0.95567  1.0000
  C   C37       1.0  0.01166  0.30596  0.84350  1.0000
  C   C38       1.0  0.39464  0.44944  0.77690  1.0000
  C   C39       1.0  0.04782  0.37828  0.79801  1.0000
  C   C40       1.0  0.05162  0.34055  0.81827  1.0000
  H   H28       1.0  0.12237  0.46898  0.84261  1.0000
  H   H29       1.0  0.08475  0.33718  0.81368  1.0000
  H   H30       1.0  0.37175  0.40927  0.77226  1.0000
  H   H31       1.0  0.23569  0.42635  0.87464  1.0000
  H   H32       1.0  0.37672  0.20696  0.96572  1.0000
  H   H33       1.0  0.40422  0.14471  0.97513  1.0000
  H   H34       1.0  0.32212  0.29710  0.71033  1.0000
  C   C41       1.0  0.34247  0.32295  0.68579  1.0000
  C   C42       1.0  0.10597  0.38455  0.92557  1.0000
  C   C43       1.0  0.46927  0.18328  0.93579  1.0000
  C   C44       1.0  0.02014  0.41903  0.92181  1.0000
  C   C45       1.0  0.41036  0.21196  0.95034  1.0000
  C   C46       1.0  0.13881  0.43551  0.91705  1.0000
  H   H35       1.0  0.09293  0.30945  0.91975  1.0000
  C   C47       1.0  0.19916  0.41453  0.88841  1.0000
  C   C48       1.0  0.16553  0.36378  0.89546  1.0000
  C   C49       1.0  0.11901  0.34881  0.91415  1.0000
  C   C50       1.0  0.00439  0.38194  0.80478  1.0000
  H   H36       1.0  0.02997  0.40448  0.89522  1.0000
  C   C51       1.0  0.33459  0.36352  0.67894  1.0000
  H   H37       1.0  0.01472  0.27642  0.85833  1.0000
  C   C52       1.0  0.05803  0.45708  0.94596  1.0000
  H   H38       1.0  0.00072  0.40283  0.71879  1.0000
  H   H39       1.0  0.00152  0.41172  0.79043  1.0000
  C   C53       1.0  0.18577  0.45025  0.89879  1.0000
  H   H40       1.0  0.06504  0.41674  0.66748  1.0000
  P   P2        1.0  0.12358  0.48277  0.93190  1.0000
  H   H41       1.0  0.46193  0.19608  0.75276  1.0000
  C   C54       1.0  0.43809  0.25335  0.92504  1.0000
  H   H42       1.0  0.38193  0.28416  0.66743  1.0000
  H   H43       1.0  0.07036  0.37199  0.94101  1.0000
  H   H44       1.0  0.42593  0.28042  0.92076  1.0000
  H   H45       1.0  0.42281  0.46339  0.71508  1.0000
  C   C55       1.0  0.48146  0.25983  0.90514  1.0000
  H   H46       1.0  0.47390  0.17907  0.82457  1.0000
  C   C56       1.0  0.99297  0.45764  0.98858  1.0000
  C   C57       1.0  0.04402  0.47726  0.97879  1.0000
  C   C58       1.0  0.98997  0.39653  0.68684  1.0000
  H   H47       1.0  0.48019  0.15540  0.94010  1.0000
  C   C59       1.0  0.42354  0.48009  0.74461  1.0000
  H   H48       1.0  0.21232  0.48939  0.89263  1.0000
  C   C60       1.0  0.08430  0.60726  0.22146  1.0000
  H   H49       1.0  0.29025  0.69208  0.20858  1.0000
  H   H50       1.0  0.26622  0.58694  0.05893  1.0000
  S   S9        1.0  0.44203  0.79377  0.17594  1.0000
  H   H51       1.0  0.25853  0.87041  0.28558  1.0000
  C   C61       1.0  0.02072  0.62341  0.19379  1.0000
  C   C62       1.0  0.35478  0.73493  0.29823  1.0000
  C   C63       1.0  0.37448  0.70808  0.27788  1.0000
  C   C64       1.0  0.40066  0.72492  0.24025  1.0000
  C   C65       1.0  0.40799  0.76928  0.22266  1.0000
  C   C66       1.0  0.38772  0.79572  0.24277  1.0000
  C   C67       1.0  0.36114  0.77864  0.28016  1.0000
  H   H52       1.0  0.36962  0.67409  0.29139  1.0000
  H   H53       1.0  0.41539  0.70378  0.22499  1.0000
  H   H54       1.0  0.39297  0.82998  0.22945  1.0000
  C   C68       1.0  0.48698  0.59164  0.22291  1.0000
  H   H55       1.0  0.00386  0.55780  0.22816  1.0000
  H   H56       1.0  0.13840  0.71982  0.17260  1.0000
  C   C69       1.0  0.42476  0.59437  0.30030  1.0000
  C   C70       1.0  0.21072  0.61272  0.31960  1.0000
  C   C71       1.0  0.20299  0.56699  0.30451  1.0000
  C   C72       1.0  0.19372  0.63364  0.25225  1.0000
  C   C73       1.0  0.21225  0.73725  0.24050  1.0000
  C   C74       1.0  0.18103  0.74601  0.26679  1.0000
  C   C75       1.0  0.19747  0.79405  0.28237  1.0000
  C   C76       1.0  0.24555  0.83349  0.27268  1.0000
  C   C77       1.0  0.27716  0.82500  0.24710  1.0000
  C   C78       1.0  0.26054  0.77720  0.23083  1.0000
  C   C79       1.0  0.20597  0.67400  0.13303  1.0000
  C   C80       1.0  0.27445  0.68778  0.17810  1.0000
  C   C81       1.0  0.30423  0.69203  0.14407  1.0000
  H   H57       1.0  0.17676  0.57750  0.20528  1.0000
  C   C82       1.0  0.05864  0.66888  0.17795  1.0000
  H   H58       1.0  0.09298  0.58349  0.23962  1.0000
  C   C83       1.0  0.22537  0.67959  0.17286  1.0000
  H   H59       1.0  0.43505  0.87885  0.02997  1.0000
  H   H60       1.0  0.14379  0.71587  0.27525  1.0000
  H   H61       1.0  0.30844  0.69096  0.07821  1.0000
  H   H62       1.0  0.22088  0.67383  0.06829  1.0000
  C   C84       1.0  0.18604  0.58758  0.23724  1.0000
  H   H63       1.0  0.18493  0.51906  0.25151  1.0000
  H   H64       1.0  0.21338  0.68178  0.30593  1.0000
  H   H65       1.0  0.17313  0.80048  0.30263  1.0000
  H   H66       1.0  0.34266  0.69999  0.14843  1.0000
  H   H67       1.0  0.16813  0.66695  0.12805  1.0000
  S   S10       1.0  0.45683  0.69548  0.10077  1.0000
  P   P3        1.0  0.18848  0.67597  0.21753  1.0000
  H   H68       1.0  0.34629  0.79974  0.29534  1.0000
  C   C85       1.0  0.28496  0.68710  0.10453  1.0000
  C   C86       1.0  0.12275  0.65308  0.20579  1.0000
  C   C87       1.0  0.19054  0.55434  0.26333  1.0000
  H   H69       1.0  0.04854  0.69316  0.16194  1.0000
  C   C88       1.0  0.20613  0.64608  0.29366  1.0000
  C   C89       1.0  0.23574  0.67771  0.09901  1.0000
  H   H70       1.0  0.28572  0.77202  0.21084  1.0000
  C   C90       1.0  0.10944  0.68371  0.18391  1.0000
  C   C91       1.0  0.15668  0.50035  0.01308  1.0000
  C   C92       1.0  0.19192  0.52567  0.04423  1.0000
  C   C93       1.0  0.00157  0.60122  0.31325  1.0000
  H   H71       1.0  0.31473  0.85541  0.23999  1.0000
  H   H72       1.0  0.99671  0.56460  0.30729  1.0000
  C   C94       1.0  0.47297  0.54078  0.22388  1.0000
  C   C95       1.0  0.03356  0.59249  0.21520  1.0000
  H   H73       1.0  0.43975  0.59321  0.12896  1.0000
  Fe  Fe5       1.0  0.48277  0.77195  0.12769  1.0000
  H   H74       1.0  0.48246  0.52560  0.24992  1.0000
  H   H75       1.0  0.48472  0.64913  0.18676  1.0000
  H   H76       1.0  0.41075  0.56593  0.27654  1.0000
  C   C96       1.0  0.23849  0.56782  0.03498  1.0000
  C   C97       1.0  0.47642  0.63002  0.30320  1.0000
  H   H77       1.0  0.35032  0.56930  0.32463  1.0000
  C   C98       1.0  0.43492  0.52796  0.15674  1.0000
  C   C99       1.0  0.44786  0.57821  0.15590  1.0000
  H   H78       1.0  0.20738  0.54177  0.32469  1.0000
  Fe  Fe6       1.0  0.46827  0.73120  0.03859  1.0000
  S   S11       1.0  0.48886  0.80652  0.06563  1.0000
  C   C100      1.0  0.47375  0.61001  0.18884  1.0000
  C   C101      1.0  0.44725  0.50917  0.19082  1.0000
  C   C102      1.0  0.45733  0.88219  0.00301  1.0000
  H   H79       1.0  0.18357  0.51200  0.07542  1.0000
  C   C103      1.0  0.39026  0.59613  0.32752  1.0000
  H   H80       1.0  0.41614  0.50390  0.13064  1.0000
  C   C104      1.0  0.01521  0.69591  0.32855  1.0000
  H   H81       1.0  0.04265  0.58853  0.49186  1.0000
  Fe  Fe7       1.0  0.28139  0.82720  0.43521  1.0000
  S   S12       1.0  0.30664  0.77164  0.44972  1.0000
  S   S13       1.0  0.33398  0.91317  0.44128  1.0000
  Fe  Fe8       1.0  0.18150  0.74404  0.39493  1.0000
  S   S14       1.0  0.20107  0.68437  0.40691  1.0000
  H   H82       1.0  0.42349  0.77068  0.40654  1.0000
  Fe  Fe9       1.0  0.22641  0.71936  0.46953  1.0000
  S   S15       1.0  0.19551  0.66957  0.52661  1.0000
  Fe  Fe10      1.0  0.28016  0.74074  0.38590  1.0000
  S   S16       1.0  0.20243  0.77675  0.45894  1.0000
  S   S17       1.0  0.25921  0.79854  0.37013  1.0000
  C   C105      1.0  0.35378  0.96310  0.47804  1.0000
  C   C106      1.0  0.32944  0.95718  0.51578  1.0000
  C   C107      1.0  0.42857  0.80651  0.41642  1.0000
  H   H83       1.0  0.29770  0.92106  0.52380  1.0000
  C   C108      1.0  0.22377  0.64414  0.55890  1.0000
  C   C109      1.0  0.19596  0.61402  0.59229  1.0000
  C   C110      1.0  0.21729  0.59452  0.61964  1.0000
  C   C111      1.0  0.26707  0.60534  0.61417  1.0000
  C   C112      1.0  0.29475  0.63516  0.58059  1.0000
  C   C113      1.0  0.27318  0.65407  0.55292  1.0000
  H   H84       1.0  0.15771  0.60600  0.59723  1.0000
  C   C114      1.0  0.05050  0.53476  0.38607  1.0000
  H   H85       1.0  0.33324  0.64377  0.57597  1.0000
  H   H86       1.0  0.29509  0.67713  0.52745  1.0000
  H   H87       1.0  0.03125  0.65192  0.44368  1.0000
  C   C115      1.0  0.42659  0.88188  0.40084  1.0000
  C   C116      1.0  0.45842  0.66833  0.36135  1.0000
  S   S18       1.0  0.29750  0.58507  0.64930  1.0000
  H   H88       1.0  0.12184  0.59334  0.47010  1.0000
  H   H89       1.0  0.12780  0.56007  0.40228  1.0000
  H   H90       1.0  0.05335  0.52089  0.35617  1.0000
  C   C117      1.0  0.44266  0.86668  0.47065  1.0000
  C   C118      1.0  0.42310  0.83702  0.38800  1.0000
  C   C119      1.0  0.38910  0.84135  0.54738  1.0000
  C   C120      1.0  0.09244  0.55685  0.41197  1.0000
  C   C121      1.0  0.30022  0.81511  0.55396  1.0000
  C   C122      1.0  0.08906  0.57560  0.45019  1.0000
  H   H91       1.0  0.35295  0.87693  0.51721  1.0000
  S   S19       1.0  0.10842  0.73436  0.36593  1.0000
  H   H92       1.0  0.47126  0.69744  0.38456  1.0000
  C   C123      1.0  0.34806  0.84755  0.53783  1.0000
  H   H93       1.0  0.26848  0.81946  0.54568  1.0000
  H   H94       1.0  0.41446  0.82501  0.35631  1.0000
  C   C124      1.0  0.00517  0.53156  0.39830  1.0000
  H   H95       1.0  0.03703  0.73211  0.42867  1.0000
  H   H96       1.0  0.47880  0.88349  0.60951  1.0000
  C   C125      1.0  0.46815  0.94729  0.53339  1.0000
  H   H97       1.0  0.43973  0.79590  0.47966  1.0000
  H   H98       1.0  0.24610  0.93722  0.43853  1.0000
  S   S20       1.0  0.32430  0.71333  0.34668  1.0000
  C   C126      1.0  0.44562  0.96059  0.56488  1.0000
  H   H99       1.0  0.32752  0.73847  0.60846  1.0000
  H   H100      1.0  0.38001  0.63550  0.37809  1.0000
  H   H101      1.0  0.07473  0.62963  0.34214  1.0000
  H   H102      1.0  0.41545  0.93236  0.58336  1.0000
  C   C127      1.0  0.04391  0.57262  0.46247  1.0000
  C   C128      1.0  0.29303  0.77618  0.57976  1.0000
  C   C129      1.0  0.33363  0.76952  0.58925  1.0000
  P   P4        1.0  0.44982  0.88255  0.52454  1.0000
  H   H103      1.0  0.25563  0.75021  0.59140  1.0000
  C   C130      1.0  0.43610  0.89658  0.44201  1.0000
  C   C131      1.0  0.38140  0.80149  0.57266  1.0000
  C   C132      1.0  0.43781  0.82098  0.45769  1.0000
  H   H104      1.0  0.42006  0.90445  0.37921  1.0000
  H   H105      1.0  0.41165  0.79419  0.57897  1.0000
  H   H106      1.0  0.19551  0.57179  0.64529  1.0000
  C   C133      1.0  0.26018  0.97720  0.44016  1.0000
  C   C134      1.0  0.05324  0.68586  0.34085  1.0000
  C   C135      1.0  0.99667  0.65264  0.43945  1.0000
  H   H107      1.0  0.43630  0.93032  0.45147  1.0000
  C   C136      1.0  0.00151  0.55066  0.43659  1.0000
  H   H108      1.0  0.20880  0.97102  0.48794  1.0000
  C   C137      1.0  0.00019  0.69858  0.43104  1.0000
  C   C138      1.0  0.40700  0.63333  0.35779  1.0000
  H   H109      1.0  0.02019  0.73264  0.33428  1.0000
  H   H110      1.0  0.22186  0.62306  0.35123  1.0000
  C   C139      1.0  0.04600  0.63808  0.33305  1.0000
  H   H111      1.0  0.47462  0.64542  0.70775  1.0000
  S   S21       1.0  0.23088  0.52919  0.76069  1.0000
  C   C140      1.0  0.41155  0.65728  0.70612  1.0000
  Fe  Fe11      1.0  0.28267  0.50753  0.79137  1.0000
  S   S22       1.0  0.32060  0.52804  0.85480  1.0000
  Fe  Fe12      1.0  0.26670  0.52626  0.70077  1.0000
  C   C141      1.0  0.38705  0.65773  0.94933  1.0000
  C   C142      1.0  0.39516  0.61727  0.95280  1.0000
  C   C143      1.0  0.37416  0.57790  0.92375  1.0000
  C   C144      1.0  0.34467  0.57828  0.89097  1.0000
  C   C145      1.0  0.33593  0.61840  0.88782  1.0000
  C   C146      1.0  0.35714  0.65791  0.91676  1.0000
  H   H112      1.0  0.41777  0.61635  0.97775  1.0000
  H   H113      1.0  0.38111  0.54704  0.92658  1.0000
  H   H114      1.0  0.31293  0.61900  0.86307  1.0000
  H   H115      1.0  0.35028  0.68882  0.91394  1.0000
  C   C147      1.0  0.40214  0.63740  0.79002  1.0000
  H   H116      1.0  0.48040  0.70214  0.83978  1.0000
  C   C148      1.0  0.13880  0.57108  0.89661  1.0000
  H   H117      1.0  0.41748  0.76168  0.76925  1.0000
  H   H118      1.0  0.33612  0.64481  0.78725  1.0000
  C   C149      1.0  0.14360  0.60197  0.86368  1.0000
  C   C150      1.0  0.37251  0.65728  0.72839  1.0000
  H   H119      1.0  0.39670  0.62739  0.82201  1.0000
  H   H120      1.0  0.45573  0.87474  0.86171  1.0000
  C   C151      1.0  0.14082  0.58492  0.82343  1.0000
  C   C152      1.0  0.46565  0.85105  0.84410  1.0000
  H   H121      1.0  0.14024  0.58442  0.92765  1.0000
  C   C153      1.0  0.47614  0.84335  0.94616  1.0000
  C   C154      1.0  0.44614  0.64762  0.72585  1.0000
  C   C155      1.0  0.21480  0.55937  0.96337  1.0000
  C   C156      1.0  0.44633  0.83960  0.98002  1.0000
  C   C157      1.0  0.45137  0.53211  0.74992  1.0000
  H   H122      1.0  0.14464  0.60874  0.79784  1.0000
  H   H123      1.0  0.22535  0.57176  0.93202  1.0000
  C   C158      1.0  0.45111  0.55377  0.78789  1.0000
  C   C159      1.0  0.16722  0.51791  0.97260  1.0000
  S   S23       1.0  0.32375  0.51178  0.73255  1.0000
  H   H124      1.0  0.39622  0.81682  0.80976  1.0000
  C   C160      1.0  0.12870  0.50616  0.84895  1.0000
  C   C161      1.0  0.13300  0.53693  0.81613  1.0000
  H   H125      1.0  0.14932  0.63905  0.86938  1.0000
  C   C162      1.0  0.13212  0.52326  0.88941  1.0000
  C   C163      1.0  0.44212  0.63845  0.76821  1.0000
  C   C164      1.0  0.44383  0.78726  0.79186  1.0000
  C   C165      1.0  0.42181  0.52270  0.82008  1.0000
  C   C166      1.0  0.36769  0.64714  0.77032  1.0000
  C   C167      1.0  0.43187  0.81833  0.81468  1.0000
  S   S24       1.0  0.41216  0.70844  0.98505  1.0000
  H   H126      1.0  0.46759  0.80953  0.92944  1.0000
  H   H127      1.0  0.13032  0.52338  0.78495  1.0000
  H   H128      1.0  0.41326  0.66228  0.67316  1.0000
  H   H129      1.0  0.41891  0.53847  0.84900  1.0000
  H   H130      1.0  0.34464  0.66284  0.71270  1.0000
  H   H131      1.0  0.28681  0.61619  0.98722  1.0000
  H   H132      1.0  0.41541  0.80332  0.98912  1.0000
  H   H133      1.0  0.07224  0.50846  0.99653  1.0000
  H   H134      1.0  0.01484  0.53589  0.77085  1.0000
  P   P5        1.0  0.48328  0.62107  0.79333  1.0000
  H   H135      1.0  0.47191  0.55535  0.72407  1.0000
  C   C168      1.0  0.25002  0.58446  0.99455  1.0000
  H   H136      1.0  0.60367  0.03672  0.03128  1.0000
  S   S25       1.0  0.72171  0.40348  0.15018  1.0000
  C   C169      1.0  0.69782  0.12325  0.12031  1.0000
  C   C170      1.0  0.72444  0.28619  0.26065  1.0000
  S   S26       1.0  0.77032  0.46489  0.25882  1.0000
  H   H137      1.0  0.80259  0.21787  0.07220  1.0000
  H   H138      1.0  0.56120  0.18907  0.11120  1.0000
  C   C171      1.0  0.74365  0.08052  0.13594  1.0000
  C   C172      1.0  0.70099  0.07966  0.12016  1.0000
  Fe  Fe13      1.0  0.74673  0.47052  0.19444  1.0000
  C   C173      1.0  0.74673  0.39601  0.10272  1.0000
  C   C174      1.0  0.79230  0.43368  0.08622  1.0000
  C   C175      1.0  0.81104  0.42533  0.04908  1.0000
  C   C176      1.0  0.78491  0.37911  0.02816  1.0000
  C   C177      1.0  0.73912  0.34173  0.04437  1.0000
  C   C178      1.0  0.72016  0.35014  0.08129  1.0000
  H   H139      1.0  0.81309  0.46923  0.10208  1.0000
  H   H140      1.0  0.84621  0.45483  0.03665  1.0000
  H   H141      1.0  0.71802  0.30665  0.02808  1.0000
  H   H142      1.0  0.68453  0.32088  0.09326  1.0000
  H   H143      1.0  0.63417  0.20653  0.15387  1.0000
  C   C179      1.0  0.59580  0.19542  0.09676  1.0000
  C   C180      1.0  0.59851  0.19263  0.05415  1.0000
  C   C181      1.0  0.64295  0.20010  0.03573  1.0000
  C   C182      1.0  0.68504  0.21133  0.05965  1.0000
  C   C183      1.0  0.68306  0.21541  0.10238  1.0000
  C   C184      1.0  0.63762  0.20599  0.12087  1.0000
  P   P6        1.0  0.73628  0.22608  0.13323  1.0000
  H   H144      1.0  0.91700  0.37083  0.05322  1.0000
  H   H145      1.0  0.71261  0.30287  0.15957  1.0000
  H   H146      1.0  0.72179  0.30068  0.29034  1.0000
  C   C185      1.0  0.79377  0.27240  0.10813  1.0000
  H   H147      1.0  0.66473  0.12160  0.10711  1.0000
  H   H148      1.0  0.71887  0.21634  0.04465  1.0000
  H   H149      1.0  0.56608  0.18419  0.03545  1.0000
  C   C186      1.0  0.73760  0.16828  0.13623  1.0000
  C   C187      1.0  0.73568  0.24769  0.25783  1.0000
  C   C188      1.0  0.71635  0.30594  0.22505  1.0000
  C   C189      1.0  0.71954  0.28728  0.18670  1.0000
  C   C190      1.0  0.73164  0.24916  0.18340  1.0000
  H   H150      1.0  0.70768  0.33592  0.22691  1.0000
  C   C191      1.0  0.73925  0.22916  0.21939  1.0000
  C   C192      1.0  0.78042  0.16882  0.15195  1.0000
  H   H151      1.0  0.74760  0.19915  0.21810  1.0000
  C   C193      1.0  0.85888  0.35909  0.09650  1.0000
  H   H152      1.0  0.81193  0.20335  0.16353  1.0000
  H   H153      1.0  0.88177  0.28035  0.03930  1.0000
  H   H154      1.0  0.87371  0.39869  0.10210  1.0000
  C   C194      1.0  0.81828  0.25708  0.07997  1.0000
  C   C195      1.0  0.86311  0.29245  0.06095  1.0000
  H   H155      1.0  0.74158  0.23213  0.28549  1.0000
  H   H156      1.0  0.79638  0.33752  0.13660  1.0000
  C   C196      1.0  0.81448  0.32386  0.11607  1.0000
  C   C197      1.0  0.88316  0.34344  0.06893  1.0000
  C   C198      1.0  0.62877  0.02324  0.02240  1.0000
  H   H157      1.0  0.81658  0.12575  0.16376  1.0000
  H   H158      1.0  0.67068  0.04529  0.10708  1.0000
  C   C199      1.0  0.78329  0.12504  0.15196  1.0000
  C   C200      1.0  0.67300  0.05497  0.00018  1.0000
  S   S27       1.0  0.68904  0.49055  0.21716  1.0000
  H   H159      1.0  0.74610  0.04672  0.13524  1.0000
  H   H160      1.0  0.83805  0.47631  0.32944  1.0000
  H   H161      1.0  0.98215  0.47307  0.01398  1.0000
  H   H162      1.0  0.64501  0.19690  0.00291  1.0000
  C   C201      1.0  0.52372  0.03562  0.51848  1.0000
  S   S28       1.0  0.54839  0.21330  0.56423  1.0000
  S   S29       1.0  0.56027  0.32307  0.57932  1.0000
  Fe  Fe14      1.0  0.54669  0.27269  0.52541  1.0000
  S   S30       1.0  0.59616  0.29322  0.46762  1.0000
  Fe  Fe15      1.0  0.55675  0.26200  0.61881  1.0000
  C   C202      1.0  0.64758  0.42073  0.37326  1.0000
  C   C203      1.0  0.61623  0.41725  0.40631  1.0000
  C   C204      1.0  0.60073  0.37909  0.43588  1.0000
  C   C205      1.0  0.61639  0.34381  0.43266  1.0000
  C   C206      1.0  0.64835  0.34774  0.39996  1.0000
  C   C207      1.0  0.66386  0.38592  0.37042  1.0000
  H   H163      1.0  0.60339  0.44396  0.40877  1.0000
  H   H164      1.0  0.57609  0.37652  0.46078  1.0000
  H   H165      1.0  0.66051  0.32054  0.39708  1.0000
  H   H166      1.0  0.94569  0.46292  0.57896  1.0000
  H   H167      1.0  0.64918  0.44551  0.59156  1.0000
  C   C208      1.0  0.81093  0.42125  0.42331  1.0000
  H   H168      1.0  0.67072  0.32114  0.53037  1.0000
  C   C209      1.0  0.57903  0.43869  0.57299  1.0000
  H   H169      1.0  0.73744  0.45710  0.45018  1.0000
  C   C210      1.0  0.96434  0.37910  0.60391  1.0000
  C   C211      1.0  0.70152  0.35926  0.53469  1.0000
  H   H170      1.0  0.65638  0.39142  0.51858  1.0000
  C   C212      1.0  0.69340  0.39936  0.52845  1.0000
  C   C213      1.0  0.62936  0.48814  0.50140  1.0000
  C   C214      1.0  0.63021  0.45438  0.56798  1.0000
  C   C215      1.0  0.78867  0.41722  0.55189  1.0000
  H   H171      1.0  0.95489  0.47856  0.50435  1.0000
  C   C216      1.0  0.92744  0.37119  0.63312  1.0000
  C   C217      1.0  0.76057  0.32873  0.65214  1.0000
  C   C218      1.0  0.74906  0.36812  0.54634  1.0000
  H   H172      1.0  0.88918  0.35766  0.62299  1.0000
  C   C219      1.0  0.85302  0.45754  0.44494  1.0000
  C   C220      1.0  0.50066  0.04847  0.54951  1.0000
  H   H173      1.0  0.52605  0.26444  0.39397  1.0000
  H   H174      1.0  0.78207  0.38818  0.43887  1.0000
  H   H175      1.0  0.75496  0.33679  0.55118  1.0000
  H   H176      1.0  0.85611  0.45165  0.47712  1.0000
  H   H177      1.0  0.77316  0.39965  0.36481  1.0000
  H   H178      1.0  0.95442  0.37174  0.57176  1.0000
  H   H179      1.0  0.55357  0.06476  0.50028  1.0000
  S   S31       1.0  0.62219  0.29564  0.66498  1.0000
  H   H180      1.0  0.72925  0.29480  0.63937  1.0000
  H   H181      1.0  0.51201  0.08740  0.55509  1.0000
  C   C221      1.0  0.73265  0.44880  0.53486  1.0000
  C   C222      1.0  0.80574  0.42768  0.38161  1.0000
  H   H182      1.0  0.82549  0.42402  0.56098  1.0000
  H   H183      1.0  0.72700  0.37351  0.63830  1.0000
  C   C223      1.0  0.75923  0.37321  0.65161  1.0000
  H   H184      1.0  0.55894  0.41858  0.60034  1.0000
  C   C224      1.0  0.55279  0.44675  0.54199  1.0000
  H   H185      1.0  0.51269  0.43292  0.54555  1.0000
  H   H186      1.0  0.50020  0.18893  0.43595  1.0000
  H   H187      1.0  0.68763  0.38793  0.34506  1.0000
  C   C225      1.0  0.78060  0.45744  0.54601  1.0000
  C   C226      1.0  0.65616  0.48025  0.53251  1.0000
  H   H188      1.0  0.55718  0.47644  0.48170  1.0000
  C   C227      1.0  0.84213  0.47083  0.36169  1.0000
  S   S32       1.0  0.66519  0.46919  0.33657  1.0000
  C   C228      1.0  0.57788  0.47126  0.50614  1.0000
  Fe  Fe16      1.0  0.78701  0.29795  0.94541  1.0000
  S   S33       1.0  0.81859  0.24929  0.96386  1.0000
  Fe  Fe17      1.0  0.73583  0.23309  0.86839  1.0000
  S   S34       1.0  0.76582  0.18153  0.88225  1.0000
  S   S35       1.0  0.67560  0.20275  0.81807  1.0000
  Fe  Fe18      1.0  0.74256  0.18274  0.94759  1.0000
  C   C229      1.0  0.84124  0.22136  0.78202  1.0000
  Fe  Fe19      1.0  0.83952  0.25234  0.89687  1.0000
  S   S36       1.0  0.91721  0.26278  0.87985  1.0000
  S   S37       1.0  0.71003  0.23203  0.93316  1.0000
  S   S38       1.0  0.81096  0.30373  0.87872  1.0000
  H   H189      1.0  0.60294  0.33454  0.75644  1.0000
  C   C230      1.0  0.96746  0.30863  0.84903  1.0000
  P   P7        1.0  0.89252  0.36939  0.71304  1.0000
  C   C231      1.0  0.60329  0.02267  0.82222  1.0000
  H   H190      1.0  0.93101  0.35010  0.83404  1.0000
  C   C232      1.0  0.89659  0.40641  0.79222  1.0000
  C   C233      1.0  0.66154  0.22980  0.77597  1.0000
  C   C234      1.0  0.62011  0.19861  0.75082  1.0000
  C   C235      1.0  0.60751  0.21796  0.71674  1.0000
  C   C236      1.0  0.63634  0.26889  0.70739  1.0000
  C   C237      1.0  0.67765  0.30015  0.73273  1.0000
  C   C238      1.0  0.69022  0.28081  0.76684  1.0000
  H   H191      1.0  0.59762  0.15911  0.75767  1.0000
  H   H192      1.0  0.79717  0.45104  0.66886  1.0000
  H   H193      1.0  0.69980  0.33972  0.72618  1.0000
  H   H194      1.0  0.72193  0.30531  0.78606  1.0000
  H   H195      1.0  0.59276  0.03398  0.79435  1.0000
  H   H196      1.0  0.59220  0.12072  0.96150  1.0000
  H   H197      1.0  0.79597  0.29589  0.75145  1.0000
  C   C239      1.0  0.58233  0.29117  0.81205  1.0000
  S   S39       1.0  0.68602  0.11660  0.98758  1.0000
  P   P8        1.0  0.55360  0.23430  0.88433  1.0000
  C   C240      1.0  0.49753  0.22499  0.91053  1.0000
  H   H198      1.0  0.94024  0.36868  0.91385  1.0000
  C   C241      1.0  0.58024  0.12792  0.93236  1.0000
  C   C242      1.0  0.55763  0.10552  0.86127  1.0000
  C   C243      1.0  0.55263  0.14771  0.85620  1.0000
  C   C244      1.0  0.60900  0.28592  0.90751  1.0000
  C   C245      1.0  0.65704  0.29870  0.89263  1.0000
  C   C246      1.0  0.70039  0.33742  0.91110  1.0000
  C   C247      1.0  0.57127  0.09555  0.89935  1.0000
  C   C248      1.0  0.96444  0.34732  0.82984  1.0000
  H   H199      1.0  0.91610  0.40292  0.97304  1.0000
  H   H200      1.0  0.55220  0.08135  0.83530  1.0000
  H   H201      1.0  0.54387  0.15550  0.82608  1.0000
  H   H202      1.0  0.50258  0.29210  0.88557  1.0000
  H   H203      1.0  0.66095  0.27836  0.86697  1.0000
  H   H204      1.0  0.73746  0.34696  0.89984  1.0000
  C   C249      1.0  0.83904  0.41564  0.68772  1.0000
  C   C250      1.0  0.60508  0.31159  0.94183  1.0000
  H   H205      1.0  0.66558  0.09689  0.83503  1.0000
  C   C251      1.0  0.57512  0.17007  0.92745  1.0000
  C   C252      1.0  0.84013  0.37077  0.68919  1.0000
  H   H206      1.0  0.86387  0.37045  0.79907  1.0000
  C   C253      1.0  0.49538  0.22265  0.76948  1.0000
  C   C254      1.0  0.64858  0.34995  0.96043  1.0000
  C   C255      1.0  0.56077  0.18003  0.88944  1.0000
  C   C256      1.0  0.95564  0.41830  0.96538  1.0000
  C   C257      1.0  0.69614  0.36301  0.94494  1.0000
  H   H207      1.0  0.97697  0.47408  0.71485  1.0000
  H   H208      1.0  0.83021  0.18810  0.80009  1.0000
  H   H209      1.0  0.56881  0.30184  0.95483  1.0000
  H   H210      1.0  0.69004  0.07131  0.89898  1.0000
  C   C258      1.0  0.64465  0.05813  0.84494  1.0000
  C   C259      1.0  0.65846  0.04381  0.88089  1.0000
  C   C260      1.0  0.91803  0.44189  0.82375  1.0000
  C   C261      1.0  0.87139  0.30982  0.73787  1.0000
  C   C262      1.0  0.91821  0.41690  0.75284  1.0000
  C   C263      1.0  0.54639  0.24689  0.83147  1.0000
  H   H211      1.0  0.57547  0.19353  0.69778  1.0000
  H   H212      1.0  0.52653  0.27375  0.71869  1.0000
  C   C264      1.0  0.57473  0.30089  0.77170  1.0000
  H   H213      1.0  0.90188  0.43290  0.85432  1.0000
  S   S40       1.0  0.81019  0.37054  0.98135  1.0000
  C   C265      1.0  0.90497  0.29201  0.74374  1.0000
  C   C266      1.0  0.70521  0.03697  0.98930  1.0000
  C   C267      1.0  0.96012  0.46448  0.74506  1.0000
  H   H214      1.0  0.61621  0.31843  0.82766  1.0000
  C   C268      1.0  0.96923  0.39912  0.93194  1.0000
  C   C269      1.0  0.88994  0.24810  0.76584  1.0000
  C   C270      1.0  0.80736  0.23834  0.77591  1.0000
  H   H215      1.0  0.76970  0.21772  0.78873  1.0000
  H   H216      1.0  0.72983  0.39247  0.95963  1.0000
  H   H217      1.0  0.91673  0.23579  0.77175  1.0000
  C   C271      1.0  0.82238  0.28258  0.75431  1.0000
  C   C272      1.0  0.50252  0.21303  0.81000  1.0000
  C   C273      1.0  0.53153  0.26654  0.75033  1.0000
  H   H218      1.0  0.94344  0.31263  0.73279  1.0000
  H   H219      1.0  0.58274  0.19522  0.95318  1.0000
  C   C274      1.0  0.96078  0.48842  0.81611  1.0000
  H   H220      1.0  0.73950  0.06078  0.97247  1.0000
  H   H221      1.0  0.64564  0.36931  0.98724  1.0000
  H   H222      1.0  0.57594  0.06334  0.90321  1.0000
  H   H223      1.0  0.86891  0.44959  0.70151  1.0000
  C   C275      1.0  0.63116  0.99414  0.89402  1.0000
  C   C276      1.0  0.94005  0.38011  0.67491  1.0000
  H   H224      1.0  0.80143  0.29265  0.67056  1.0000
  C   C277      1.0  0.80111  0.32755  0.67041  1.0000
  C   C278      1.0  0.79863  0.41675  0.66907  1.0000
  S   S41       1.0  0.80848  0.55100  0.18665  1.0000
  S   S42       1.0  0.77847  0.57273  0.27785  1.0000
  Fe  Fe20      1.0  0.75155  0.57064  0.21296  1.0000
  S   S43       1.0  0.74022  0.63625  0.19355  1.0000
  Fe  Fe21      1.0  0.83002  0.54680  0.25244  1.0000
  S   S44       1.0  0.90848  0.56295  0.27547  1.0000
  Fe  Fe22      1.0  0.54035  0.71996  0.09796  1.0000
  S   S45       1.0  0.56133  0.65974  0.11331  1.0000
  Fe  Fe23      1.0  0.56926  0.82459  0.06425  1.0000
  S   S46       1.0  0.63724  0.89567  0.03753  1.0000
  S   S47       1.0  0.56553  0.79493  0.12822  1.0000
  S   S48       1.0  0.54935  0.75081  0.03389  1.0000
  H   H225      1.0  0.50697  0.96167  0.01013  1.0000
  C   C279      1.0  0.96350  0.61127  0.30095  1.0000
  C   C280      1.0  0.62185  0.58285  0.27406  1.0000
  H   H226      1.0  0.62772  0.69750  0.23972  1.0000
  C   C281      1.0  0.64909  0.95636  0.02290  1.0000
  C   C282      1.0  0.97062  0.65894  0.30902  1.0000
  C   C283      1.0  0.68959  0.64157  0.17141  1.0000
  C   C284      1.0  0.69525  0.68952  0.16687  1.0000
  C   C285      1.0  0.65671  0.69592  0.14935  1.0000
  C   C286      1.0  0.61155  0.65435  0.13608  1.0000
  C   C287      1.0  0.60577  0.60637  0.14075  1.0000
  C   C288      1.0  0.64435  0.59995  0.15821  1.0000
  H   H227      1.0  0.72998  0.72209  0.17672  1.0000
  H   H228      1.0  0.66214  0.73307  0.14578  1.0000
  H   H229      1.0  0.57115  0.57382  0.13067  1.0000
  H   H230      1.0  0.63915  0.56282  0.16129  1.0000
  C   C289      1.0  0.56153  0.61084  0.28608  1.0000
  C   C290      1.0  0.56061  0.77512  0.23278  1.0000
  C   C291      1.0  0.60835  0.71851  0.23837  1.0000
  P   P9        1.0  0.52097  0.63221  0.26556  1.0000
  H   H231      1.0  0.49342  0.70886  0.25179  1.0000
  H   H232      1.0  0.54173  0.79666  0.22970  1.0000
  C   C292      1.0  0.61186  0.79688  0.22331  1.0000
  C   C293      1.0  0.53322  0.72512  0.24508  1.0000
  H   H233      1.0  0.64542  0.57608  0.25307  1.0000
  H   H234      1.0  0.63283  0.83534  0.21294  1.0000
  H   H235      1.0  0.94202  0.66757  0.29984  1.0000
  C   C294      1.0  0.55689  0.69639  0.24822  1.0000
  C   C295      1.0  0.59175  0.60135  0.25925  1.0000
  C   C296      1.0  0.63562  0.76852  0.22592  1.0000
  H   H236      1.0  0.67506  0.78498  0.21760  1.0000
  H   H237      1.0  0.58291  0.95065  0.05097  1.0000
  C   C297      1.0  0.61679  0.97430  0.03360  1.0000
  H   H238      1.0  0.59188  0.60812  0.22671  1.0000
  H   H239      1.0  0.64424  0.55766  0.32700  1.0000
  C   C298      1.0  0.56140  0.60086  0.32804  1.0000
  C   C299      1.0  0.62141  0.57281  0.31578  1.0000
  C   C300      1.0  0.69334  0.98812  0.00069  1.0000
  H   H240      1.0  0.98129  0.61247  0.19034  1.0000
  Fe  Fe24      1.0  0.71801  0.49130  0.28073  1.0000
  C   C301      1.0  0.81196  0.58474  0.55203  1.0000
  H   H241      1.0  0.88128  0.65017  0.57087  1.0000
  C   C302      1.0  0.74176  0.55649  0.59930  1.0000
  H   H242      1.0  0.53390  0.87308  0.48996  1.0000
  C   C303      1.0  0.90932  0.65750  0.42581  1.0000
  H   H243      1.0  0.53791  0.60698  0.34935  1.0000
  C   C304      1.0  0.50515  0.87893  0.59028  1.0000
  H   H244      1.0  0.81177  0.49508  0.55020  1.0000
  P   P10       1.0  0.72253  0.50077  0.52622  1.0000
  H   H245      1.0  0.76359  0.49142  0.38055  1.0000
  C   C305      1.0  0.82270  0.62905  0.61610  1.0000
  H   H246      1.0  0.77342  0.62896  0.41864  1.0000
  H   H247      1.0  0.64744  0.50615  0.47296  1.0000
  H   H248      1.0  0.84627  0.65937  0.63695  1.0000
  C   C306      1.0  0.74239  0.52473  0.47512  1.0000
  C   C307      1.0  0.76684  0.59204  0.42613  1.0000
  H   H249      1.0  0.78253  0.57707  0.36496  1.0000
  C   C308      1.0  0.95664  0.70097  0.42382  1.0000
  C   C309      1.0  0.84242  0.62379  0.57894  1.0000
  C   C310      1.0  0.57525  0.86978  0.54139  1.0000
  C   C311      1.0  0.94930  0.60862  0.44097  1.0000
  C   C312      1.0  0.54469  0.87590  0.60851  1.0000
  H   H250      1.0  0.82797  0.58123  0.52338  1.0000
  C   C313      1.0  0.59124  0.58185  0.34276  1.0000
  H   H251      1.0  0.70301  0.53145  0.60792  1.0000
  H   H252      1.0  0.60276  0.86685  0.52241  1.0000
  C   C314      1.0  0.90554  0.61154  0.43477  1.0000
  C   C315      1.0  0.75206  0.57310  0.46569  1.0000
  H   H253      1.0  0.91084  0.54126  0.36751  1.0000
  H   H254      1.0  0.86855  0.57823  0.43604  1.0000
  C   C316      1.0  0.77202  0.56287  0.39581  1.0000
  C   C317      1.0  0.57961  0.87111  0.58408  1.0000
  C   C318      1.0  0.74690  0.49531  0.44431  1.0000
  P   P11       1.0  0.94405  0.54906  0.45250  1.0000
  H   H255      1.0  0.74732  0.59581  0.48873  1.0000
  H   H256      1.0  0.87570  0.65936  0.41960  1.0000
  H   H257      1.0  0.75708  0.59955  0.65507  1.0000
  C   C319      1.0  0.77245  0.59539  0.62628  1.0000
  C   C320      1.0  0.76124  0.55075  0.56187  1.0000
  H   H258      1.0  0.61039  0.86901  0.59819  1.0000
  H   H259      1.0  0.90816  0.57837  0.59523  1.0000
  C   C321      1.0  0.76196  0.51462  0.40485  1.0000
  C   C322      1.0  0.89003  0.50086  0.42498  1.0000
  C   C323      1.0  0.88364  0.50757  0.38337  1.0000
  C   C324      1.0  0.94420  0.50025  0.52388  1.0000
  C   C325      1.0  0.53575  0.87283  0.52307  1.0000
  C   C326      1.0  0.93640  0.53751  0.50703  1.0000
  H   H260      1.0  0.54845  0.87768  0.64158  1.0000
  C   C327      1.0  0.92327  0.56560  0.53300  1.0000
  H   H261      1.0  0.59075  0.57366  0.37503  1.0000
  H   H262      1.0  0.91787  0.59503  0.52086  1.0000
  C   C328      1.0  0.49981  0.87640  0.54746  1.0000
  C   C329      1.0  0.91780  0.55630  0.57521  1.0000
  H   H263      1.0  0.92181  0.51228  0.62446  1.0000
  H   H264      1.0  0.95978  0.73643  0.41595  1.0000
  C   C330      1.0  0.92552  0.51908  0.59173  1.0000
  H   H265      1.0  0.97367  0.51489  0.37738  1.0000
  H   H266      1.0  0.52648  0.97583  0.48684  1.0000
  C   C331      1.0  0.50794  0.98523  0.51072  1.0000
  C   C332      1.0  0.49307  0.66660  0.33429  1.0000
  H   H267      1.0  0.53270  0.69471  0.33678  1.0000
  C   C333      1.0  0.93884  0.49117  0.56608  1.0000
  C   C334      1.0  0.63103  0.83537  0.94728  1.0000
  C   C335      1.0  0.51694  0.89009  0.93462  1.0000
  C   C336      1.0  0.67318  0.85078  0.92209  1.0000
  P   P12       1.0  0.55421  0.89458  0.88995  1.0000
  H   H268      1.0  0.55838  0.82163  0.83282  1.0000
  C   C337      1.0  0.67887  0.87885  0.88704  1.0000
  H   H269      1.0  0.55470  0.58587  0.77837  1.0000
  C   C338      1.0  0.49215  0.68258  0.86014  1.0000
  H   H270      1.0  0.52648  0.68628  0.95971  1.0000
  H   H271      1.0  0.54338  0.94628  0.81770  1.0000
  C   C339      1.0  0.61547  0.72182  0.73766  1.0000
  H   H272      1.0  0.49865  0.76469  0.78069  1.0000
  H   H273      1.0  0.63300  0.76010  0.72696  1.0000
  H   H274      1.0  0.70181  0.84169  0.93028  1.0000
  H   H275      1.0  0.67890  0.71329  0.72126  1.0000
  C   C340      1.0  0.59452  0.84812  0.93776  1.0000
  C   C341      1.0  0.64249  0.89170  0.87735  1.0000
  C   C342      1.0  0.57535  0.97299  0.83565  1.0000
  C   C343      1.0  0.51883  0.67436  0.92795  1.0000
  C   C344      1.0  0.52751  0.93282  0.95778  1.0000
  C   C345      1.0  0.64139  0.69551  0.73454  1.0000
  C   C346      1.0  0.60007  0.87654  0.90270  1.0000
  H   H276      1.0  0.51687  0.58673  0.86327  1.0000
  C   C347      1.0  0.61919  0.64645  0.74909  1.0000
  H   H277      1.0  0.64776  0.91397  0.85032  1.0000
  H   H278      1.0  0.56306  0.83689  0.95859  1.0000
  C   C348      1.0  0.54411  0.64925  0.76864  1.0000
  H   H279      1.0  0.71194  0.89139  0.86783  1.0000
  H   H280      1.0  0.54786  0.72004  0.75795  1.0000
  C   C349      1.0  0.51259  0.61782  0.87347  1.0000
  H   H281      1.0  0.63953  0.62625  0.74727  1.0000
  H   H282      1.0  0.64246  0.98363  0.92193  1.0000
  H   H283      1.0  0.53566  0.61522  0.93537  1.0000
  C   C350      1.0  0.57091  0.62352  0.76645  1.0000
  H   H284      1.0  0.62764  0.81512  0.97519  1.0000
  C   C351      1.0  0.58903  0.95844  0.87182  1.0000
  C   C352      1.0  0.56716  0.69896  0.75501  1.0000
  C   C353      1.0  0.52366  0.63406  0.91422  1.0000
  H   H285      1.0  0.55892  0.96929  0.95029  1.0000
  H   H286      1.0  0.97787  0.51548  0.84079  1.0000
  C   C354      1.0  0.49575  0.64130  0.84629  1.0000
  H   H287      1.0  0.71881  0.97486  0.99238  1.0000
  C   C355      1.0  0.52347  0.82148  0.82794  1.0000
  H   H288      1.0  0.49887  0.72952  0.91194  1.0000
  C   C356      1.0  0.51158  0.85266  0.85118  1.0000
  C   C357      1.0  0.50329  0.69875  0.90090  1.0000
  C   C358      1.0  0.98157  0.49986  0.77671  1.0000
  C   C359      1.0  0.49784  0.92876  0.99185  1.0000
  C   C360      1.0  0.48966  0.78899  0.79836  1.0000
