data_image0
_chemical_formula_structural       FeS2FeS2FeSFeS3FeS2FeSFeSFeSCSFeS2FeS2HFeS3HCSCHC2HCHCPCPC6H4C6H4C2H4C3H2CHC2H4C3H3CH3C4HC2HC8PC10HCH7CHC4PC4H2C8H3C2H2CH2CH6CH2CHCH2CHC2HCH2CHC2HC4HCH2C2HC6FeH2CHCH8C2H3C2HC4HC7HC2HC3HC2HC2HCHCH3C2HCH2C2HCH3CHCHCH2CH2CHCH3CHCFeS2FeS2FeSHS2CHFeSHFeS2FeSFeS3FeHCFeS2CHCHC7H4C3HCH2C3HC2H2C3HCH2CHC2H2CHC4PC12HC2H2C2H2CHCHCH2C2H2C3H2C7H5C3H2CHCHC7H2CH4C3HPC3HC10HC2H3CHC2H7CH2CHCH3CHSHCHCHCH3C2PSH2C3PC4HCHC2H2C2H3C2H2C2HCHC3PCHSH2C2H2CH3CHC2H2C3H3CH2C2H3C2HC3H2C2HC3H3C2HC2HCHCSFeCSFeS2FePFeHS2H2CH2C9H7C3H3C4H2CSHCSHCSCH2C2SHCHC3HCHCH3C2HC9SCSH2SH2C2HC2HCH5C4HCHCHC2PCHCH3CH2CPCSC2HC3H3C4PC5HC8HCHCH2SH3CHC2H3CH2C5HC2H2CH2CFeSCFeSHFeSFeS2CSH2SHFeSCH3C2HC4HCHC2H2C6H4CHCH3CHC2FeCH2C4HC3SC13HSC2SHCH4C6H5SC2HC4H2SCH8CH5CHCHCHCFeCH4CPC4H2C6HCPCH2CHC2H4CH6SCSHCHC5H3CHCH4C2HC2HFeSHCSCFeS3HFeS2FeHSFeSHS3HC2HC2H4C6H6C7H4SHCHC4H5CH2CHC4H2C7H2CHPH4C4H4CH3C3HC6H2C2HCHCPCHC2H2C2SHCHCH4C2HCH2C3HSHCHCHC3H5CHC3HC2HCHC3HCH3FeCFeHC4PC6H3CH2CH2FeHCHC4HC2HCH2C3H4SCFeHC2FeS3FeS2FeS2FeSCFeSHFeSCSC7H4CHC2H2C6H6C7H4C3H3CHFeC2HCHC2HCPCH2CH3C3H2C6SH2CHC2H5CH5C2HCH2SC2HCPHC3HC2HC4HCH2FeHCHC5H2C2H2C3H2C7PC18H19CSHC2SHC2FeHSCH3C2H2C5HCHC2HC2HC2H2CSCHC2H3PH3C2HCH3C4HC2PC3H2C2HC2PH3C4H2SC4H4CHC5FeS2FeS2CFeS3FeS2FeS2FeSFeHS2CHSCFeSCFeSFeSCH3C6HC8H4C6H4C6H4CH2C2H2C3H2CSHC3HC2H3CH3CH3CH2C6PC14H18CHCHSHC3HCHC2SPC5H2C2HC2HCHCH2CH2C2H2C3H2CH2FeCHC2HC3H5CH2C4HC2PCHCHC5HCPHFeCHC2H3C2H2C2H2C9H2PH4CHCPHCSCHC2HC4H6C3HCHC2HCHCHC2HC4H2CH2C3HCHC4PC5H2CHCFeSFeS2FeSFeS4CH2SHS2FeS2FeS2FeSFeS3C6H4C3H5C2SCH2C9H4C4HCH2C5H2C7PHCHC2HC8HC2H5SH2CHCH5C2HPCHCHC2HC6PC18H12CH8C6H2CHCH2PCHCHC4HCH2CHC2HC2HCH2C2HFeH3CH2C4H4C5HCHCHC5H4C3HC3HCHCH4C2H2C3H2FeH2C2H2C5HCH2C4SCHFeSFeS2FeSFeS4FeS2FeS2FeCFeS3FeS2FeS2CH4C6H5PH2C3H3CHCH2C2HC7H4C2H2CH3PCHC2HC4HCH9C3HC4H2C3HC3H2C5HC2HC3H2PHC7HC3H2C3HC2HCHC3H3C3HC2H3C3PHC2HC3H2C3HCSC7HCH3CH2CH3C4H2C2HC4H2C3H2C3HC3HCHCH6PC2HC2H2C2H2C4HC2H3C2H2CHCHCHC2HC2HCHCHCH2CH3C2HC2PCHCH5C2HCH2CSFeS2FeS2FeSFeS3FeS2FeSFeSFeS3FeS2HFeH2S2H3CH4PC6H4C5H2C3HC7H4C6H5C4H2C3H8C8H2CHCH6CHC2HC6HCHC2H2CFeH4C3H4C3HC3HC4FeC3H7C8PC3HCHCH2SC8H6C2H3C2H4CH4C3H3C2SC2PHC4HC5HC6HCH3C2H3CHCH2C2PC4HC8HCHPHCHC2H2CPHCHCH2C2H2C4H3C3H3CHCH5CFeSFeSHFeSFeS2Fe2S2FeHCS2HCSFeS2HC6H4SC7H4CH4FeC2H6CHC4H2CH2PH2C2SC3HC3H2CHCPC5H2CH2CHC3HCHCHCH2C3HC2H3CHCHC4H3C2HC3HSC2SFeC2HC2HC8PC4HC4HC8H22CH2C5HCHC2H2C3PSCHCHC2H4C5H2C2HCH2C6HCH3C5H2CHC4H3FeSH2SFeSFeSCSHSFeS2FeSFeS4C2HCSHCHCH2CHC4HC4HC6H3C3H2CHCHC3HC2PHC7FeC2HCHCHC4HC2H3CPH2CHC2H4C3HCH2CHCHC8PC14H15CH2CH3FeC2HCHCH2CHC4HSHC4H3C2SH2CH2CHCHCHC2H3C3PC9HC8H3C2H2CH6C3H2CH2CHSCH3CSH2C2HCH2C5H5CH2CHSCSFeS2FeSHFeSFeS2H3FeSFeS2HC2PHCH4C3HC2HC3H2C6H7CHC4HC2HCHC7PCHCHC2H7CHC2H2C4HCH7CSC2HCHC2HCHCHC2H2CSH2CH2C3HPC2H3C4HCHC4H2C2H4CHCHC6HC6H5C6SHC2H3C3PC3HSC3H2C2H4C2H4CHC3HC2SFeSHFeSCFeCFeS3CH4C2H3C6H3C6H5C3HC5H2C2H2CH2CFeC2HC2H5CH3C5H5C3H2PC12HC2HCH2CHCH4C2HCHC5HCH3CH3C2HCHC2PHCH5C4PC2HCHC2H4CH2CHC4H2CHCH5C3PC3HC10HC2HC3H2PCHC2HSH2CH2SH5CHSFeSHFeSFeS3HFeS2FeS2FeSFeS3CS2C9H4PC3HPC3H3C5H2CH4C2HC5HC6PHC6HC11H3C2H5C3H2CH3CHC2H3C2HCH4CHCH4CHC6H2SHC3H3C2H2CH2C3SH3C2H2CHCH2CH3CHC2HCH4PH3C4H2C2HSC2HC2H2C2HC4HCHC3H4FeC7HC2H2CHC3HC3HCHC2FeC2H2C3H10CFeHFeS2FeS2FeSHS2FeS2FeS2FeSFeS3FeSC2SFeSFeCSC2HC3HC6H8C8H4CH2PH2C2HCHCHC4HC2H5C7PC3SC13H7C3H10C2H2PC2HC8HC6HC2H3CH3CH2CH3CH5CPC3HCHCHC6H3C3H5C3H2C2H4C3H2CHCHC2HCHFeH3CHCHC2HC3
_chemical_formula_sum              "Fe144 S288 C2160 H1728 P72"
_cell_length_a       59.9345
_cell_length_b       60.0669
_cell_length_c       38.1362
_cell_angle_alpha    90.5514
_cell_angle_beta     92.2389
_cell_angle_gamma    118.418

_space_group_name_H-M_alt    "P 1"
_space_group_IT_number       1

loop_
  _space_group_symop_operation_xyz
  'x, y, z'

loop_
  _atom_site_type_symbol
  _atom_site_label
  _atom_site_symmetry_multiplicity
  _atom_site_fract_x
  _atom_site_fract_y
  _atom_site_fract_z
  _atom_site_occupancy
  Fe  Fe1       1.0  0.14970  0.07081  0.07201  1.0000
  S   S1        1.0  0.17883  0.10655  0.04767  1.0000
  S   S2        1.0  0.12475  0.03248  0.04235  1.0000
  Fe  Fe2       1.0  0.15108  0.10060  0.14009  1.0000
  S   S3        1.0  0.17974  0.13751  0.11925  1.0000
  S   S4        1.0  0.13678  0.09658  0.19589  1.0000
  Fe  Fe3       1.0  0.15626  0.12476  0.06793  1.0000
  S   S5        1.0  0.14650  0.15367  0.04163  1.0000
  Fe  Fe4       1.0  0.20001  0.11622  0.10134  1.0000
  S   S6        1.0  0.24408  0.13479  0.10648  1.0000
  S   S7        1.0  0.12639  0.08898  0.09024  1.0000
  S   S8        1.0  0.17200  0.07932  0.12423  1.0000
  Fe  Fe5       1.0  0.42672  0.17233  0.16312  1.0000
  S   S9        1.0  0.39659  0.13934  0.19072  1.0000
  S   S10       1.0  0.43230  0.16274  0.10641  1.0000
  Fe  Fe6       1.0  0.43590  0.20874  0.22706  1.0000
  S   S11       1.0  0.40642  0.17723  0.25757  1.0000
  Fe  Fe7       1.0  0.42366  0.15355  0.23834  1.0000
  S   S12       1.0  0.42921  0.12376  0.26914  1.0000
  Fe  Fe8       1.0  0.38158  0.16566  0.20713  1.0000
  S   S13       1.0  0.33845  0.15193  0.21241  1.0000
  C   C1        1.0  0.36251  0.20424  0.36832  1.0000
  S   S14       1.0  0.41046  0.19850  0.17733  1.0000
  Fe  Fe9       1.0  0.09520  0.16972  0.34111  1.0000
  S   S15       1.0  0.13090  0.20073  0.36735  1.0000
  S   S16       1.0  0.09775  0.16184  0.28277  1.0000
  Fe  Fe10      1.0  0.06371  0.16610  0.40622  1.0000
  S   S17       1.0  0.09813  0.19752  0.43460  1.0000
  S   S18       1.0  0.02730  0.14105  0.43561  1.0000
  H   H1        1.0  0.41137  0.18761  0.34729  1.0000
  Fe  Fe11      1.0  0.11902  0.17717  0.41583  1.0000
  S   S19       1.0  0.14808  0.17090  0.44978  1.0000
  S   S20       1.0  0.07070  0.18751  0.35560  1.0000
  S   S21       1.0  0.08473  0.14521  0.38852  1.0000
  H   H2        1.0  0.45144  0.98248  0.05012  1.0000
  C   C2        1.0  0.18332  0.05029  0.45978  1.0000
  S   S22       1.0  0.45435  0.18519  0.21003  1.0000
  C   C3        1.0  0.40365  0.17135  0.02663  1.0000
  H   H3        1.0  0.33589  0.17043  0.33891  1.0000
  C   C4        1.0  0.09163  0.20457  0.15154  1.0000
  C   C5        1.0  0.10294  0.03631  0.45087  1.0000
  H   H4        1.0  0.17191  0.11096  0.29617  1.0000
  C   C6        1.0  0.98672  0.10489  0.05558  1.0000
  H   H5        1.0  0.20907  0.16136  0.38019  1.0000
  C   C7        1.0  0.12867  0.00930  0.01724  1.0000
  P   P1        1.0  0.12326  0.02963  0.38897  1.0000
  C   C8        1.0  0.15211  0.00962  0.01537  1.0000
  P   P2        1.0  0.41633  0.15024  0.39138  1.0000
  C   C9        1.0  0.12827  0.11639  0.22088  1.0000
  C   C10       1.0  0.11869  0.10875  0.25430  1.0000
  C   C11       1.0  0.11024  0.12296  0.27430  1.0000
  C   C12       1.0  0.11100  0.14489  0.26087  1.0000
  C   C13       1.0  0.12102  0.15278  0.22775  1.0000
  C   C14       1.0  0.13008  0.13893  0.20813  1.0000
  H   H6        1.0  0.11712  0.09131  0.26435  1.0000
  H   H7        1.0  0.10223  0.11643  0.29947  1.0000
  H   H8        1.0  0.12143  0.16955  0.21711  1.0000
  H   H9        1.0  0.13762  0.14522  0.18264  1.0000
  C   C15       1.0  0.31245  0.14625  0.18175  1.0000
  C   C16       1.0  0.28724  0.13221  0.19226  1.0000
  C   C17       1.0  0.26615  0.12827  0.16976  1.0000
  C   C18       1.0  0.26985  0.13841  0.13618  1.0000
  C   C19       1.0  0.29505  0.15230  0.12565  1.0000
  C   C20       1.0  0.31611  0.15612  0.14806  1.0000
  H   H10       1.0  0.28399  0.12436  0.21809  1.0000
  H   H11       1.0  0.24704  0.11744  0.17840  1.0000
  H   H12       1.0  0.29835  0.16027  0.09986  1.0000
  H   H13       1.0  0.33521  0.16700  0.13935  1.0000
  C   C21       1.0  0.23283  0.18576  0.15482  1.0000
  C   C22       1.0  0.17418  0.16359  0.30927  1.0000
  H   H14       1.0  0.11625  0.07425  0.37242  1.0000
  H   H15       1.0  0.43275  0.06884  0.06925  1.0000
  H   H16       1.0  0.44084  0.19855  0.43278  1.0000
  H   H17       1.0  0.13712  0.10870  0.33155  1.0000
  C   C23       1.0  0.00488  0.14489  0.46137  1.0000
  C   C24       1.0  0.40255  0.19362  0.03381  1.0000
  C   C25       1.0  0.38942  0.21756  0.30699  1.0000
  H   H18       1.0  0.15638  0.16353  0.30272  1.0000
  H   H19       1.0  0.01552  0.18307  0.44705  1.0000
  C   C26       1.0  0.20395  0.16250  0.35294  1.0000
  H   H20       1.0  0.18441  0.20759  0.07930  1.0000
  C   C27       1.0  0.10620  0.00020  0.36363  1.0000
  C   C28       1.0  0.12620  0.15167  0.00475  1.0000
  H   H21       1.0  0.11455  0.99909  0.10690  1.0000
  H   H22       1.0  0.16862  0.02417  0.02978  1.0000
  H   H23       1.0  0.35982  0.18217  0.28468  1.0000
  H   H24       1.0  0.23865  0.15787  0.18219  1.0000
  C   C29       1.0  0.05272  0.17502  0.17776  1.0000
  C   C30       1.0  0.05038  0.20844  0.01659  1.0000
  C   C31       1.0  0.22320  0.21350  0.19012  1.0000
  H   H25       1.0  0.16900  0.16237  0.36501  1.0000
  H   H26       1.0  0.39684  0.19667  0.05928  1.0000
  H   H27       1.0  0.00306  0.09294  0.40000  1.0000
  C   C32       1.0  0.36687  0.19473  0.30783  1.0000
  H   H28       1.0  0.15097  0.17410  0.11271  1.0000
  H   H29       1.0  0.12321  0.01493  0.31407  1.0000
  H   H30       1.0  0.23715  0.16265  0.33347  1.0000
  C   C33       1.0  0.15291  0.22576  0.15389  1.0000
  C   C34       1.0  0.28485  0.18055  0.24953  1.0000
  C   C35       1.0  0.35343  0.18811  0.33846  1.0000
  C   C36       1.0  0.45576  0.12776  0.29642  1.0000
  H   H31       1.0  0.46449  0.01887  0.01022  1.0000
  C   C37       1.0  0.14346  0.09464  0.33450  1.0000
  C   C38       1.0  0.10442  0.21080  0.18474  1.0000
  H   H32       1.0  0.27841  0.16698  0.22766  1.0000
  C   C39       1.0  0.26730  0.18403  0.26905  1.0000
  C   C40       1.0  0.42009  0.08465  0.37211  1.0000
  C   C41       1.0  0.00285  0.16715  0.46204  1.0000
  C   C42       1.0  0.22701  0.20563  0.15732  1.0000
  C   C43       1.0  0.17179  0.07828  0.31911  1.0000
  C   C44       1.0  0.23402  0.17317  0.18488  1.0000
  C   C45       1.0  0.22959  0.18052  0.21784  1.0000
  C   C46       1.0  0.22503  0.20134  0.22038  1.0000
  P   P3        1.0  0.23381  0.16599  0.25695  1.0000
  C   C47       1.0  0.21335  0.16513  0.29113  1.0000
  C   C48       1.0  0.22458  0.13320  0.24740  1.0000
  C   C49       1.0  0.20221  0.11823  0.22703  1.0000
  C   C50       1.0  0.19462  0.09269  0.21980  1.0000
  C   C51       1.0  0.20934  0.08195  0.23269  1.0000
  C   C52       1.0  0.23141  0.09662  0.25355  1.0000
  C   C53       1.0  0.23887  0.12210  0.26126  1.0000
  C   C54       1.0  0.21986  0.16342  0.32642  1.0000
  C   C55       1.0  0.18988  0.16420  0.28263  1.0000
  C   C56       1.0  0.06255  0.03630  0.45233  1.0000
  H   H33       1.0  0.10219  0.12401  0.46610  1.0000
  C   C57       1.0  0.13152  0.07487  0.35757  1.0000
  H   H34       1.0  0.03278  0.16115  0.17516  1.0000
  H   H35       1.0  0.08480  0.97942  0.40744  1.0000
  H   H36       1.0  0.19065  0.12628  0.21655  1.0000
  H   H37       1.0  0.17733  0.08131  0.20393  1.0000
  H   H38       1.0  0.20365  0.06228  0.22636  1.0000
  H   H39       1.0  0.24288  0.08831  0.26340  1.0000
  H   H40       1.0  0.25590  0.13307  0.27770  1.0000
  C   C58       1.0  0.98218  0.07233  0.35293  1.0000
  H   H41       1.0  0.18352  0.16377  0.25551  1.0000
  C   C59       1.0  0.18128  0.16293  0.34440  1.0000
  C   C60       1.0  0.44881  0.21400  0.33337  1.0000
  C   C61       1.0  0.00622  0.12954  0.06384  1.0000
  C   C62       1.0  0.00082  0.14612  0.08358  1.0000
  P   P4        1.0  0.03821  0.13930  0.05099  1.0000
  C   C63       1.0  0.05599  0.13328  0.08561  1.0000
  C   C64       1.0  0.03617  0.12124  0.01167  1.0000
  C   C65       1.0  0.08422  0.03791  0.46980  1.0000
  C   C66       1.0  0.44723  0.14256  0.05234  1.0000
  H   H42       1.0  0.39786  0.10112  0.35188  1.0000
  H   H43       1.0  0.05545  0.17161  0.23391  1.0000
  C   C67       1.0  0.04016  0.10000  0.01350  1.0000
  C   C68       1.0  0.04622  0.12644  0.11903  1.0000
  C   C69       1.0  0.05960  0.12070  0.14511  1.0000
  C   C70       1.0  0.08262  0.12147  0.13791  1.0000
  C   C71       1.0  0.09262  0.12857  0.10493  1.0000
  C   C72       1.0  0.07936  0.13436  0.07885  1.0000
  C   C73       1.0  0.05334  0.17251  0.04058  1.0000
  C   C74       1.0  0.03889  0.18291  0.02501  1.0000
  H   H44       1.0  0.39877  0.15723  0.04656  1.0000
  H   H45       1.0  0.41068  0.06811  0.35464  1.0000
  H   H46       1.0  0.16674  0.04479  0.34529  1.0000
  C   C75       1.0  0.07957  0.18814  0.04725  1.0000
  C   C76       1.0  0.35880  0.22330  0.45227  1.0000
  H   H47       1.0  0.01873  0.17126  0.01879  1.0000
  H   H48       1.0  0.01551  0.16514  0.09050  1.0000
  C   C77       1.0  0.13935  0.05632  0.36106  1.0000
  H   H49       1.0  0.26328  0.20712  0.30976  1.0000
  H   H50       1.0  0.10041  0.20311  0.24030  1.0000
  C   C78       1.0  0.41298  0.10368  0.37051  1.0000
  H   H51       1.0  0.43435  0.11459  0.19419  1.0000
  H   H52       1.0  0.02822  0.12527  0.12505  1.0000
  H   H53       1.0  0.05205  0.11537  0.17087  1.0000
  H   H54       1.0  0.09251  0.11617  0.15771  1.0000
  H   H55       1.0  0.11051  0.12922  0.09932  1.0000
  H   H56       1.0  0.08713  0.13918  0.05315  1.0000
  C   C79       1.0  0.46456  0.13834  0.03288  1.0000
  H   H57       1.0  0.99036  0.09164  0.04067  1.0000
  H   H58       1.0  0.13092  0.18904  0.01533  1.0000
  C   C80       1.0  0.11851  0.12368  0.47873  1.0000
  H   H59       1.0  0.09143  0.18082  0.05866  1.0000
  C   C81       1.0  0.12209  0.17248  0.99790  1.0000
  H   H60       1.0  0.99898  0.07894  0.33775  1.0000
  H   H61       1.0  0.16558  0.06876  0.43116  1.0000
  C   C82       1.0  0.16327  0.09610  0.31484  1.0000
  H   H62       1.0  0.04465  0.09413  0.03832  1.0000
  C   C83       1.0  0.44014  0.08749  0.39492  1.0000
  C   C84       1.0  0.41481  0.15848  0.43664  1.0000
  H   H63       1.0  0.22317  0.20833  0.24573  1.0000
  C   C85       1.0  0.09105  0.21365  0.03848  1.0000
  H   H64       1.0  0.44235  0.22501  0.31790  1.0000
  H   H65       1.0  0.45563  0.14474  0.43259  1.0000
  C   C86       1.0  0.16594  0.21947  0.23532  1.0000
  H   H66       1.0  0.42766  0.13452  0.04271  1.0000
  C   C87       1.0  0.43934  0.17784  0.36969  1.0000
  C   C88       1.0  0.15693  0.19383  0.11907  1.0000
  H   H67       1.0  0.04824  0.03780  0.46711  1.0000
  C   C89       1.0  0.46544  0.18557  0.37343  1.0000
  C   C90       1.0  0.42556  0.12557  0.39236  1.0000
  C   C91       1.0  0.44552  0.12809  0.41551  1.0000
  C   C92       1.0  0.44927  0.09009  0.17770  1.0000
  H   H68       1.0  0.43079  0.07470  0.16941  1.0000
  C   C93       1.0  0.03841  0.08602  0.98304  1.0000
  H   H69       1.0  0.11724  0.11416  0.98708  1.0000
  H   H70       1.0  0.11953  0.03775  0.46526  1.0000
  C   C94       1.0  0.05940  0.03276  0.41585  1.0000
  C   C95       1.0  0.17591  0.21279  0.10034  1.0000
  H   H71       1.0  0.23629  0.17988  0.12949  1.0000
  C   C96       1.0  0.38598  0.13892  0.36743  1.0000
  C   C97       1.0  0.38462  0.13538  0.33076  1.0000
  C   C98       1.0  0.36161  0.12720  0.31149  1.0000
  C   C99       1.0  0.33968  0.12242  0.32863  1.0000
  C   C100      1.0  0.34081  0.12598  0.36509  1.0000
  C   C101      1.0  0.36389  0.13438  0.38444  1.0000
  Fe  Fe12      1.0  0.10646  0.21804  0.38292  1.0000
  H   H72       1.0  0.03906  0.21611  0.00399  1.0000
  H   H73       1.0  0.18741  0.20909  0.27188  1.0000
  C   C102      1.0  0.14542  0.20023  0.14564  1.0000
  H   H74       1.0  0.13053  0.18518  0.15953  1.0000
  C   C103      1.0  0.16550  0.05092  0.43559  1.0000
  H   H75       1.0  0.35179  0.19838  0.39160  1.0000
  H   H76       1.0  0.18727  0.07957  0.30401  1.0000
  H   H77       1.0  0.40146  0.13895  0.31701  1.0000
  H   H78       1.0  0.36082  0.12459  0.28315  1.0000
  H   H79       1.0  0.32188  0.11602  0.31350  1.0000
  H   H80       1.0  0.32377  0.12227  0.37834  1.0000
  H   H81       1.0  0.36431  0.13735  0.41249  1.0000
  H   H82       1.0  0.32424  0.19187  0.24237  1.0000
  C   C104      1.0  0.31091  0.19488  0.25762  1.0000
  C   C105      1.0  0.98448  0.08025  0.38803  1.0000
  H   H83       1.0  0.07535  0.99026  0.07243  1.0000
  H   H84       1.0  0.44472  0.08797  0.29452  1.0000
  H   H85       1.0  0.43718  0.03014  0.05982  1.0000
  C   C106      1.0  0.09109  0.19891  0.21438  1.0000
  C   C107      1.0  0.14713  0.02853  0.41827  1.0000
  H   H86       1.0  0.38995  0.11981  0.45051  1.0000
  C   C108      1.0  0.10746  0.99002  0.99829  1.0000
  C   C109      1.0  0.16006  0.05860  0.34240  1.0000
  C   C110      1.0  0.97612  0.13842  0.09387  1.0000
  C   C111      1.0  0.45128  0.11260  0.19154  1.0000
  H   H87       1.0  0.19701  0.06750  0.47378  1.0000
  C   C112      1.0  0.09993  0.03277  0.41416  1.0000
  C   C113      1.0  0.45077  0.06924  0.07531  1.0000
  C   C114      1.0  0.40043  0.13941  0.45977  1.0000
  C   C115      1.0  0.18297  0.02734  0.46682  1.0000
  C   C116      1.0  0.43125  0.19257  0.35001  1.0000
  C   C117      1.0  0.06539  0.18098  0.21083  1.0000
  C   C118      1.0  0.40899  0.21195  0.00828  1.0000
  H   H88       1.0  0.05619  0.18224  0.12245  1.0000
  C   C119      1.0  0.45883  0.98169  0.02499  1.0000
  C   C120      1.0  0.06586  0.18686  0.14813  1.0000
  H   H89       1.0  0.03337  0.10224  0.47834  1.0000
  C   C121      1.0  0.11448  0.13038  0.98200  1.0000
  C   C122      1.0  0.42886  0.18361  0.44959  1.0000
  C   C123      1.0  0.45302  0.10932  0.41628  1.0000
  H   H90       1.0  0.16455  0.98721  0.45524  1.0000
  C   C124      1.0  0.45820  0.10636  0.30572  1.0000
  C   C125      1.0  0.17636  0.21884  0.26853  1.0000
  H   H91       1.0  0.07515  0.02786  0.36858  1.0000
  C   C126      1.0  0.31972  0.21330  0.28474  1.0000
  C   C127      1.0  0.41146  0.16746  0.99415  1.0000
  H   H92       1.0  0.39994  0.22267  0.28324  1.0000
  C   C128      1.0  0.07646  0.22380  0.02315  1.0000
  H   H93       1.0  0.04261  0.03153  0.40227  1.0000
  C   C129      1.0  0.10173  0.97992  0.09733  1.0000
  H   H94       1.0  0.10158  0.21347  0.12829  1.0000
  H   H95       1.0  0.46275  0.18538  0.98867  1.0000
  H   H96       1.0  0.16905  0.20994  0.21334  1.0000
  C   C130      1.0  0.16503  0.00506  0.44931  1.0000
  C   C131      1.0  0.27630  0.20303  0.29566  1.0000
  H   H97       1.0  0.11136  0.22543  0.04297  1.0000
  C   C132      1.0  0.45487  0.15683  0.08428  1.0000
  H   H98       1.0  0.08921  0.98949  0.99946  1.0000
  H   H99       1.0  0.98212  0.18571  0.48057  1.0000
  C   C133      1.0  0.30243  0.21746  0.30366  1.0000
  C   C134      1.0  0.14282  0.14390  0.47474  1.0000
  H   H100      1.0  0.22577  0.21507  0.13383  1.0000
  C   C135      1.0  0.14715  0.00558  0.42511  1.0000
  H   H101      1.0  0.04224  0.07014  0.98453  1.0000
  H   H102      1.0  0.45821  0.12710  0.00865  1.0000
  H   H103      1.0  0.44637  0.07324  0.39507  1.0000
  C   C136      1.0  0.45329  0.04751  0.07000  1.0000
  H   H104      1.0  0.13327  0.98792  0.41247  1.0000
  C   C137      1.0  0.38517  0.22732  0.36772  1.0000
  H   H105      1.0  0.41258  0.15022  0.98932  1.0000
  C   C138      1.0  0.07792  0.03081  0.39684  1.0000
  H   H106      1.0  0.97186  0.15148  0.10821  1.0000
  H   H107      1.0  0.12355  0.06640  0.98567  1.0000
  C   C139      1.0  0.15421  0.99100  0.99490  1.0000
  H   H108      1.0  0.40807  0.22920  0.01390  1.0000
  H   H109      1.0  0.17240  0.99140  0.99395  1.0000
  C   C140      1.0  0.11019  0.99853  0.32784  1.0000
  H   H110      1.0  0.42944  0.22576  0.40093  1.0000
  C   C141      1.0  0.46629  0.00250  0.00240  1.0000
  H   H111      1.0  0.21923  0.22926  0.19210  1.0000
  H   H112      1.0  0.33996  0.22467  0.29061  1.0000
  H   H113      1.0  0.34589  0.22457  0.43269  1.0000
  C   C142      1.0  0.98798  0.12442  0.48101  1.0000
  H   H114      1.0  0.98954  0.10723  0.48131  1.0000
  C   C143      1.0  0.98382  0.16860  0.48123  1.0000
  Fe  Fe13      1.0  0.02729  0.18542  0.83689  1.0000
  S   S23       1.0  0.02612  0.21548  0.87145  1.0000
  S   S24       1.0  0.00987  0.18234  0.78126  1.0000
  Fe  Fe14      1.0  0.06119  0.17693  0.89238  1.0000
  S   S25       1.0  0.06238  0.20710  0.92887  1.0000
  S   S26       1.0  0.07884  0.15114  0.90533  1.0000
  Fe  Fe15      1.0  0.02001  0.18881  0.91604  1.0000
  S   S27       1.0  0.99092  0.18208  0.95836  1.0000
  H   H115      1.0  0.04549  0.07213  0.50649  1.0000
  S   S28       1.0  0.01858  0.15794  0.88072  1.0000
  S   S29       1.0  0.06983  0.20155  0.84482  1.0000
  C   C144      1.0  0.12357  0.07351  0.79791  1.0000
  H   H116      1.0  0.98006  0.19021  0.57348  1.0000
  Fe  Fe16      1.0  0.16217  0.01447  0.57387  1.0000
  S   S30       1.0  0.13078  0.02116  0.59240  1.0000
  H   H117      1.0  0.02794  0.15716  0.55488  1.0000
  Fe  Fe17      1.0  0.20412  0.06570  0.60770  1.0000
  S   S31       1.0  0.17455  0.07519  0.62802  1.0000
  S   S32       1.0  0.24822  0.08893  0.61213  1.0000
  Fe  Fe18      1.0  0.15344  0.03411  0.64385  1.0000
  S   S33       1.0  0.13431  0.02312  0.69690  1.0000
  Fe  Fe19      1.0  0.15421  0.06132  0.57457  1.0000
  S   S34       1.0  0.13034  0.07539  0.54221  1.0000
  S   S35       1.0  0.18400  0.02547  0.62652  1.0000
  S   S36       1.0  0.18459  0.05372  0.55331  1.0000
  Fe  Fe20      1.0  0.44099  0.21223  0.71284  1.0000
  H   H118      1.0  0.40765  0.09387  0.88591  1.0000
  C   C145      1.0  0.36592  0.22299  0.60317  1.0000
  Fe  Fe21      1.0  0.38875  0.20777  0.69177  1.0000
  S   S37       1.0  0.34466  0.18466  0.68961  1.0000
  S   S38       1.0  0.41645  0.20020  0.66209  1.0000
  C   C146      1.0  0.12471  0.99418  0.71944  1.0000
  H   H119      1.0  0.02878  0.18513  0.66707  1.0000
  C   C147      1.0  0.06225  0.20504  0.58026  1.0000
  H   H120      1.0  0.11305  0.00718  0.76456  1.0000
  C   C148      1.0  0.15220  0.14088  0.90764  1.0000
  C   C149      1.0  0.31820  0.15778  0.66783  1.0000
  C   C150      1.0  0.32119  0.14236  0.64266  1.0000
  C   C151      1.0  0.29965  0.12156  0.62608  1.0000
  C   C152      1.0  0.27468  0.11566  0.63421  1.0000
  C   C153      1.0  0.27170  0.13112  0.65933  1.0000
  C   C154      1.0  0.29324  0.15193  0.67589  1.0000
  H   H121      1.0  0.34009  0.14639  0.63602  1.0000
  H   H122      1.0  0.30236  0.10984  0.60682  1.0000
  H   H123      1.0  0.25280  0.12708  0.66600  1.0000
  H   H124      1.0  0.29053  0.16365  0.69517  1.0000
  C   C155      1.0  0.96668  0.14803  0.50050  1.0000
  C   C156      1.0  0.44066  0.14219  0.81256  1.0000
  C   C157      1.0  0.44126  0.15909  0.78649  1.0000
  H   H125      1.0  0.37342  0.15073  0.92264  1.0000
  C   C158      1.0  0.10868  0.07350  0.63129  1.0000
  H   H126      1.0  0.42263  0.12896  0.82270  1.0000
  H   H127      1.0  0.42382  0.15861  0.77682  1.0000
  C   C159      1.0  0.03208  0.09271  0.95067  1.0000
  C   C160      1.0  0.13609  0.10211  0.51630  1.0000
  C   C161      1.0  0.01369  0.15065  0.57417  1.0000
  H   H128      1.0  0.11721  0.98304  0.50230  1.0000
  C   C162      1.0  0.43305  0.07229  0.74460  1.0000
  C   C163      1.0  0.09394  0.06226  0.65990  1.0000
  H   H129      1.0  0.08908  0.99621  0.87279  1.0000
  H   H130      1.0  0.44161  0.02391  0.89490  1.0000
  C   C164      1.0  0.16372  0.14305  0.49172  1.0000
  C   C165      1.0  0.09599  0.15137  0.94490  1.0000
  C   C166      1.0  0.09972  0.13036  0.95211  1.0000
  H   H131      1.0  0.11902  0.05403  0.74800  1.0000
  C   C167      1.0  0.98298  0.21760  0.53593  1.0000
  H   H132      1.0  0.09123  0.11402  0.93433  1.0000
  H   H133      1.0  0.34403  0.10607  0.90546  1.0000
  C   C168      1.0  0.08125  0.20789  0.60545  1.0000
  H   H134      1.0  0.12056  0.06615  0.62101  1.0000
  C   C169      1.0  0.41333  0.17060  0.50758  1.0000
  C   C170      1.0  0.98436  0.15810  0.75550  1.0000
  H   H135      1.0  0.09468  0.04632  0.67202  1.0000
  H   H136      1.0  0.07069  0.08379  0.56255  1.0000
  C   C171      1.0  0.41681  0.13147  0.90364  1.0000
  H   H137      1.0  0.17449  0.05402  0.92267  1.0000
  C   C172      1.0  0.07828  0.07153  0.67265  1.0000
  C   C173      1.0  0.08013  0.05834  0.86512  1.0000
  C   C174      1.0  0.09619  0.08449  0.86262  1.0000
  C   C175      1.0  0.10771  0.99942  0.86588  1.0000
  P   P5        1.0  0.13024  0.09678  0.86454  1.0000
  C   C176      1.0  0.13782  0.08164  0.90040  1.0000
  C   C177      1.0  0.14090  0.09056  0.82360  1.0000
  C   C178      1.0  0.16700  0.10236  0.81767  1.0000
  C   C179      1.0  0.17566  0.09640  0.78724  1.0000
  C   C180      1.0  0.10691  0.17226  0.96843  1.0000
  C   C181      1.0  0.16964  0.17338  0.61218  1.0000
  C   C182      1.0  0.12590  0.07876  0.93231  1.0000
  C   C183      1.0  0.13229  0.06806  0.96075  1.0000
  C   C184      1.0  0.15014  0.05960  0.95730  1.0000
  C   C185      1.0  0.16125  0.06134  0.92529  1.0000
  C   C186      1.0  0.15533  0.07251  0.89696  1.0000
  C   C187      1.0  0.14546  0.13064  0.87316  1.0000
  H   H138      1.0  0.36099  0.07750  0.88689  1.0000
  C   C188      1.0  0.06482  0.09681  0.55146  1.0000
  C   C189      1.0  0.14142  0.98815  0.87081  1.0000
  H   H139      1.0  0.11972  0.10270  0.59358  1.0000
  H   H140      1.0  0.00042  0.11145  0.55973  1.0000
  C   C190      1.0  0.01057  0.16795  0.59575  1.0000
  C   C191      1.0  0.21553  0.02442  0.94325  1.0000
  H   H141      1.0  0.18067  0.11583  0.83692  1.0000
  H   H142      1.0  0.19583  0.10528  0.78298  1.0000
  C   C192      1.0  0.05076  0.13046  0.52002  1.0000
  H   H143      1.0  0.11206  0.08528  0.93549  1.0000
  C   C193      1.0  0.11524  0.10300  0.49932  1.0000
  H   H144      1.0  0.45449  0.02723  0.55976  1.0000
  C   C194      1.0  0.44747  0.03194  0.86939  1.0000
  H   H145      1.0  0.16446  0.07385  0.87267  1.0000
  H   H146      1.0  0.14970  0.12903  0.92983  1.0000
  C   C195      1.0  0.07197  0.12039  0.56802  1.0000
  C   C196      1.0  0.10805  0.09415  0.61565  1.0000
  H   H147      1.0  0.18262  0.15860  0.48905  1.0000
  H   H148      1.0  0.04062  0.12138  0.62081  1.0000
  C   C197      1.0  0.99040  0.15875  0.61846  1.0000
  C   C198      1.0  0.41947  0.08449  0.73245  1.0000
  C   C199      1.0  0.40010  0.10624  0.89389  1.0000
  H   H149      1.0  0.14111  0.14886  0.64633  1.0000
  H   H150      1.0  0.42277  0.05310  0.75354  1.0000
  C   C200      1.0  0.40741  0.14784  0.91367  1.0000
  C   C201      1.0  0.44018  0.04929  0.85632  1.0000
  C   C202      1.0  0.39955  0.14550  0.49503  1.0000
  C   C203      1.0  0.08544  0.10069  0.85889  1.0000
  C   C204      1.0  0.07740  0.09207  0.65681  1.0000
  C   C205      1.0  0.44572  0.22752  0.89686  1.0000
  C   C206      1.0  0.15834  0.07888  0.76232  1.0000
  H   H151      1.0  0.39891  0.07482  0.73222  1.0000
  H   H152      1.0  0.09950  0.18818  0.70661  1.0000
  H   H153      1.0  0.03800  0.20826  0.72389  1.0000
  H   H154      1.0  0.42872  0.05485  0.87171  1.0000
  H   H155      1.0  0.02272  0.11864  0.92360  1.0000
  C   C207      1.0  0.44960  0.03274  0.58426  1.0000
  C   C208      1.0  0.09653  0.16422  0.66219  1.0000
  C   C209      1.0  0.99301  0.20632  0.55904  1.0000
  H   H156      1.0  0.05107  0.10368  0.85566  1.0000
  H   H157      1.0  0.30429  0.20948  0.59022  1.0000
  C   C210      1.0  0.97515  0.16480  0.72508  1.0000
  H   H158      1.0  0.04146  0.02839  0.86585  1.0000
  C   C211      1.0  0.05907  0.09087  0.85773  1.0000
  H   H159      1.0  0.05183  0.20086  0.52448  1.0000
  C   C212      1.0  0.06647  0.20387  0.54447  1.0000
  C   C213      1.0  0.06455  0.13702  0.55226  1.0000
  C   C214      1.0  0.08677  0.17377  0.68754  1.0000
  C   C215      1.0  0.15464  0.17879  0.55475  1.0000
  C   C216      1.0  0.13233  0.06758  0.76754  1.0000
  C   C217      1.0  0.04008  0.21823  0.69970  1.0000
  C   C218      1.0  0.16168  0.16683  0.91415  1.0000
  H   H160      1.0  0.06511  0.09888  0.66707  1.0000
  H   H161      1.0  0.08802  0.04555  0.86845  1.0000
  C   C219      1.0  0.05058  0.09013  0.51948  1.0000
  H   H162      1.0  0.97970  0.08755  0.83394  1.0000
  H   H163      1.0  0.07017  0.15540  0.56436  1.0000
  H   H164      1.0  0.43574  0.98423  0.70790  1.0000
  H   H165      1.0  0.46050  0.10103  0.49407  1.0000
  C   C220      1.0  0.12206  0.01875  0.84336  1.0000
  C   C221      1.0  0.14631  0.02312  0.83493  1.0000
  C   C222      1.0  0.15597  0.00752  0.84817  1.0000
  H   H166      1.0  0.16605  0.17441  0.94096  1.0000
  P   P6        1.0  0.18810  0.01415  0.84115  1.0000
  C   C223      1.0  0.20154  0.03340  0.80361  1.0000
  C   C224      1.0  0.20502  0.02863  0.88230  1.0000
  C   C225      1.0  0.20422  0.01338  0.91044  1.0000
  H   H167      1.0  0.23583  0.05918  0.97405  1.0000
  C   C226      1.0  0.22738  0.05070  0.94842  1.0000
  C   C227      1.0  0.22778  0.06599  0.92079  1.0000
  C   C228      1.0  0.21639  0.05500  0.88795  1.0000
  C   C229      1.0  0.22749  0.05114  0.80406  1.0000
  C   C230      1.0  0.23802  0.06507  0.77426  1.0000
  C   C231      1.0  0.22291  0.06088  0.74352  1.0000
  C   C232      1.0  0.19732  0.04263  0.74250  1.0000
  C   C233      1.0  0.18670  0.02882  0.77230  1.0000
  C   C234      1.0  0.45124  0.00340  0.70705  1.0000
  C   C235      1.0  0.43572  0.04671  0.64647  1.0000
  H   H168      1.0  0.17668  0.12208  0.52530  1.0000
  C   C236      1.0  0.37388  0.09708  0.89440  1.0000
  C   C237      1.0  0.16042  0.12234  0.51237  1.0000
  H   H169      1.0  0.38834  0.13072  0.51276  1.0000
  H   H170      1.0  0.11443  0.03042  0.83263  1.0000
  H   H171      1.0  0.15741  0.03869  0.81832  1.0000
  C   C238      1.0  0.17465  0.18406  0.57913  1.0000
  H   H172      1.0  0.11899  0.21250  0.61444  1.0000
  C   C239      1.0  0.99795  0.12461  0.57671  1.0000
  C   C240      1.0  0.46442  0.05420  0.80464  1.0000
  H   H173      1.0  0.17166  0.20288  0.89156  1.0000
  H   H174      1.0  0.21592  0.06705  0.86733  1.0000
  H   H175      1.0  0.23979  0.05392  0.82707  1.0000
  H   H176      1.0  0.25803  0.07880  0.77470  1.0000
  H   H177      1.0  0.23113  0.07138  0.72021  1.0000
  H   H178      1.0  0.18581  0.03887  0.71833  1.0000
  H   H179      1.0  0.16703  0.01425  0.77068  1.0000
  C   C241      1.0  0.04374  0.10703  0.50363  1.0000
  H   H180      1.0  0.11683  0.17141  0.66218  1.0000
  H   H181      1.0  0.19406  0.19605  0.57211  1.0000
  C   C242      1.0  0.01934  0.21545  0.56272  1.0000
  H   H182      1.0  0.06678  0.06274  0.69477  1.0000
  C   C243      1.0  0.97461  0.13267  0.62082  1.0000
  H   H183      1.0  0.11472  0.15844  0.54326  1.0000
  H   H184      1.0  0.40455  0.22118  0.52549  1.0000
  H   H185      1.0  0.03125  0.08226  0.92698  1.0000
  C   C244      1.0  0.05374  0.04856  0.86374  1.0000
  H   H186      1.0  0.43699  0.13795  0.90341  1.0000
  S   S39       1.0  0.41250  0.21803  0.74324  1.0000
  H   H187      1.0  0.02587  0.14356  0.97672  1.0000
  C   C245      1.0  0.41065  0.19252  0.86484  1.0000
  H   H188      1.0  0.35842  0.20169  0.53455  1.0000
  C   C246      1.0  0.97356  0.13255  0.76381  1.0000
  H   H189      1.0  0.10425  0.18856  0.96341  1.0000
  C   C247      1.0  0.33946  0.20882  0.60069  1.0000
  H   H190      1.0  0.10334  0.06443  0.80133  1.0000
  H   H191      1.0  0.04592  0.14375  0.50729  1.0000
  H   H192      1.0  0.37723  0.21397  0.61085  1.0000
  C   C248      1.0  0.32483  0.22051  0.59156  1.0000
  C   C249      1.0  0.36435  0.11318  0.90480  1.0000
  P   P7        1.0  0.03220  0.20154  0.59387  1.0000
  S   S40       1.0  0.46592  0.19534  0.73574  1.0000
  H   H193      1.0  0.22542  0.99630  0.85530  1.0000
  H   H194      1.0  0.98336  0.18452  0.71839  1.0000
  C   C250      1.0  0.12960  0.16276  0.56326  1.0000
  C   C251      1.0  0.12432  0.15201  0.59653  1.0000
  C   C252      1.0  0.14460  0.15742  0.62087  1.0000
  P   P8        1.0  0.09211  0.13049  0.60774  1.0000
  C   C253      1.0  0.09239  0.10359  0.62820  1.0000
  C   C254      1.0  0.08008  0.14523  0.63783  1.0000
  C   C255      1.0  0.05376  0.13626  0.63895  1.0000
  C   C256      1.0  0.04408  0.14584  0.66435  1.0000
  H   H195      1.0  0.39936  0.01357  0.63651  1.0000
  C   C257      1.0  0.08961  0.20627  0.53412  1.0000
  H   H196      1.0  0.44016  0.01623  0.75256  1.0000
  C   C258      1.0  0.04321  0.06482  0.85999  1.0000
  C   C259      1.0  0.14893  0.14694  0.84530  1.0000
  H   H197      1.0  0.02279  0.05730  0.85921  1.0000
  H   H198      1.0  0.18522  0.17713  0.63086  1.0000
  C   C260      1.0  0.20919  0.98151  0.84068  1.0000
  C   C261      1.0  0.06057  0.16439  0.68888  1.0000
  H   H199      1.0  0.44195  0.98648  0.52802  1.0000
  H   H200      1.0  0.16500  0.07402  0.73885  1.0000
  H   H201      1.0  0.09718  0.12100  0.85773  1.0000
  C   C262      1.0  0.42805  0.20159  0.89397  1.0000
  C   C263      1.0  0.03480  0.20515  0.66735  1.0000
  H   H202      1.0  0.97006  0.18018  0.83088  1.0000
  H   H203      1.0  0.15855  0.18655  0.52875  1.0000
  C   C264      1.0  0.46097  0.18573  0.93163  1.0000
  C   C265      1.0  0.39169  0.22130  0.50468  1.0000
  H   H204      1.0  0.14350  0.13948  0.81856  1.0000
  C   C266      1.0  0.15857  0.17294  0.85190  1.0000
  H   H205      1.0  0.98675  0.17164  0.63428  1.0000
  C   C267      1.0  0.46299  0.14196  0.82519  1.0000
  C   C268      1.0  0.11477  0.99161  0.75297  1.0000
  C   C269      1.0  0.97857  0.11561  0.60031  1.0000
  P   P9        1.0  0.42869  0.18039  0.92693  1.0000
  C   C270      1.0  0.03739  0.21794  0.63590  1.0000
  H   H206      1.0  0.23648  0.08634  0.92511  1.0000
  S   S41       1.0  0.46064  0.11898  0.85669  1.0000
  H   H207      1.0  0.12651  0.21145  0.55101  1.0000
  H   H208      1.0  0.42146  0.22252  0.95638  1.0000
  C   C271      1.0  0.45973  0.08513  0.74633  1.0000
  C   C272      1.0  0.36576  0.21064  0.51003  1.0000
  H   H209      1.0  0.39728  0.17261  0.86116  1.0000
  H   H210      1.0  0.07831  0.20834  0.63321  1.0000
  C   C273      1.0  0.45386  0.02161  0.73237  1.0000
  H   H211      1.0  0.16072  0.18537  0.83043  1.0000
  H   H212      1.0  0.43031  0.05220  0.67052  1.0000
  H   H213      1.0  0.09281  0.20558  0.50651  1.0000
  C   C274      1.0  0.45045  0.98097  0.50752  1.0000
  H   H214      1.0  0.44348  0.07444  0.81513  1.0000
  C   C275      1.0  0.44864  0.06040  0.82409  1.0000
  C   C276      1.0  0.41828  0.02498  0.62733  1.0000
  H   H215      1.0  0.33030  0.18886  0.60651  1.0000
  H   H216      1.0  0.46546  0.18572  0.87551  1.0000
  C   C277      1.0  0.16477  0.18285  0.88634  1.0000
  C   C278      1.0  0.02726  0.11324  0.94878  1.0000
  C   C279      1.0  0.18817  0.98483  0.83087  1.0000
  H   H217      1.0  0.21466  0.01249  0.96488  1.0000
  H   H218      1.0  0.42198  0.11923  0.71305  1.0000
  H   H219      1.0  0.05302  0.17140  0.70911  1.0000
  C   C280      1.0  0.38104  0.13846  0.91449  1.0000
  H   H220      1.0  0.02372  0.13857  0.66539  1.0000
  H   H221      1.0  0.41169  0.00125  0.58114  1.0000
  C   C281      1.0  0.42521  0.01805  0.59617  1.0000
  C   C282      1.0  0.43241  0.10944  0.72148  1.0000
  H   H222      1.0  0.45969  0.07161  0.53889  1.0000
  H   H223      1.0  0.39691  0.20214  0.81738  1.0000
  H   H224      1.0  0.98066  0.12714  0.78686  1.0000
  C   C283      1.0  0.11748  0.98424  0.87974  1.0000
  C   C284      1.0  0.41672  0.20809  0.97564  1.0000
  H   H225      1.0  0.97425  0.12718  0.95117  1.0000
  C   C285      1.0  0.10857  0.20951  0.55926  1.0000
  C   C286      1.0  0.46019  0.06137  0.63471  1.0000
  C   C287      1.0  0.46422  0.17576  0.77194  1.0000
  H   H226      1.0  0.15541  0.05174  0.97951  1.0000
  H   H227      1.0  0.43916  0.20900  0.49489  1.0000
  C   C288      1.0  0.41811  0.18581  0.96837  1.0000
  C   C289      1.0  0.46329  0.02575  0.85028  1.0000
  H   H228      1.0  0.09637  0.08753  0.50203  1.0000
  C   C290      1.0  0.45890  0.12201  0.72185  1.0000
  C   C291      1.0  0.41048  0.20923  0.83967  1.0000
  C   C292      1.0  0.10433  0.21015  0.59493  1.0000
  H   H229      1.0  0.19429  0.99289  0.90742  1.0000
  H   H230      1.0  0.41283  0.17530  0.53499  1.0000
  H   H231      1.0  0.08671  0.04062  0.49812  1.0000
  C   C293      1.0  0.02939  0.12755  0.97906  1.0000
  C   C294      1.0  0.96900  0.12590  0.50031  1.0000
  H   H232      1.0  0.19628  0.02668  0.48635  1.0000
  C   C295      1.0  0.34934  0.21175  0.48395  1.0000
  C   C296      1.0  0.42808  0.18962  0.48490  1.0000
  H   H233      1.0  0.32927  0.20381  0.48848  1.0000
  C   C297      1.0  0.12626  0.46353  0.14934  1.0000
  H   H234      1.0  0.37929  0.33356  0.38605  1.0000
  C   C298      1.0  0.39560  0.28786  0.36724  1.0000
  S   S42       1.0  0.11936  0.26120  0.38113  1.0000
  Fe  Fe22      1.0  0.14689  0.43010  0.21557  1.0000
  C   C299      1.0  0.25842  0.43142  0.44057  1.0000
  S   S43       1.0  0.12341  0.43584  0.17060  1.0000
  Fe  Fe23      1.0  0.15288  0.38935  0.25972  1.0000
  S   S44       1.0  0.18733  0.41993  0.28924  1.0000
  S   S45       1.0  0.13947  0.34617  0.26529  1.0000
  Fe  Fe24      1.0  0.16501  0.44138  0.29302  1.0000
  P   P10       1.0  0.13781  0.23348  0.18858  1.0000
  Fe  Fe25      1.0  0.20010  0.43814  0.23709  1.0000
  H   H235      1.0  0.26300  0.39886  0.05132  1.0000
  S   S46       1.0  0.12981  0.41003  0.26567  1.0000
  S   S47       1.0  0.16688  0.40676  0.20690  1.0000
  H   H236      1.0  0.04257  0.42873  0.15441  1.0000
  H   H237      1.0  0.43981  0.30153  0.41430  1.0000
  C   C300      1.0  0.25253  0.43978  0.99319  1.0000
  H   H238      1.0  0.26515  0.37133  0.99816  1.0000
  H   H239      1.0  0.20259  0.36486  0.43479  1.0000
  C   C301      1.0  0.38162  0.31686  0.38932  1.0000
  C   C302      1.0  0.19385  0.33690  0.39386  1.0000
  C   C303      1.0  0.44459  0.41122  0.27574  1.0000
  C   C304      1.0  0.12296  0.28397  0.34830  1.0000
  C   C305      1.0  0.12926  0.30893  0.35894  1.0000
  C   C306      1.0  0.13365  0.32789  0.33416  1.0000
  C   C307      1.0  0.13232  0.32248  0.29806  1.0000
  C   C308      1.0  0.12543  0.29734  0.28739  1.0000
  C   C309      1.0  0.12053  0.27825  0.31220  1.0000
  H   H240      1.0  0.13101  0.31375  0.38667  1.0000
  H   H241      1.0  0.13844  0.34679  0.34308  1.0000
  H   H242      1.0  0.12382  0.29257  0.25967  1.0000
  H   H243      1.0  0.11483  0.25906  0.30349  1.0000
  H   H244      1.0  0.97278  0.42797  0.04645  1.0000
  H   H245      1.0  0.19002  0.32178  0.41186  1.0000
  H   H246      1.0  0.19811  0.43982  0.45041  1.0000
  C   C310      1.0  0.45815  0.31231  0.31522  1.0000
  C   C311      1.0  0.43960  0.27636  0.27234  1.0000
  C   C312      1.0  0.43878  0.29667  0.29035  1.0000
  H   H247      1.0  0.21209  0.45885  0.37864  1.0000
  H   H248      1.0  0.42477  0.26495  0.25286  1.0000
  H   H249      1.0  0.42310  0.30045  0.28461  1.0000
  C   C313      1.0  0.28915  0.45609  0.13151  1.0000
  C   C314      1.0  0.26463  0.43600  0.13615  1.0000
  C   C315      1.0  0.24974  0.43669  0.16358  1.0000
  C   C316      1.0  0.45537  0.39663  0.28873  1.0000
  H   H250      1.0  0.25709  0.41974  0.11835  1.0000
  H   H251      1.0  0.23100  0.42100  0.16672  1.0000
  C   C317      1.0  0.28393  0.47755  0.18277  1.0000
  S   S48       1.0  0.46291  0.37483  0.42670  1.0000
  H   H252      1.0  0.16875  0.35549  0.04148  1.0000
  C   C318      1.0  0.20320  0.37796  0.01489  1.0000
  S   S49       1.0  0.35648  0.46787  0.02477  1.0000
  H   H253      1.0  0.19137  0.34643  0.30636  1.0000
  C   C319      1.0  0.25520  0.47095  0.31676  1.0000
  S   S50       1.0  0.46322  0.24733  0.25475  1.0000
  C   C320      1.0  0.27282  0.45577  0.01633  1.0000
  H   H254      1.0  0.08973  0.46838  0.36026  1.0000
  H   H255      1.0  0.19312  0.37961  0.99173  1.0000
  C   C321      1.0  0.46390  0.46375  0.45091  1.0000
  C   C322      1.0  0.18745  0.45232  0.12378  1.0000
  S   S51       1.0  0.30712  0.45347  0.09679  1.0000
  H   H256      1.0  0.19844  0.25293  0.09396  1.0000
  C   C323      1.0  0.37885  0.28260  0.42509  1.0000
  H   H257      1.0  0.10305  0.25401  0.16771  1.0000
  C   C324      1.0  0.39184  0.30892  0.36273  1.0000
  C   C325      1.0  0.10780  0.46093  0.12318  1.0000
  C   C326      1.0  0.39857  0.23374  0.33674  1.0000
  H   H258      1.0  0.40451  0.28279  0.34682  1.0000
  C   C327      1.0  0.27308  0.43618  0.47195  1.0000
  H   H259      1.0  0.18549  0.41883  0.09972  1.0000
  C   C328      1.0  0.25937  0.45743  0.18731  1.0000
  H   H260      1.0  0.43667  0.32805  0.46282  1.0000
  H   H261      1.0  0.36763  0.31015  0.44137  1.0000
  H   H262      1.0  0.30597  0.37151  0.99051  1.0000
  C   C329      1.0  0.14194  0.26528  0.18556  1.0000
  C   C330      1.0  0.96829  0.44942  0.08844  1.0000
  H   H263      1.0  0.23834  0.37430  0.10049  1.0000
  C   C331      1.0  0.43113  0.26223  0.40751  1.0000
  C   C332      1.0  0.29865  0.47702  0.15493  1.0000
  C   C333      1.0  0.44727  0.28835  0.41250  1.0000
  C   C334      1.0  0.38921  0.27450  0.39849  1.0000
  C   C335      1.0  0.12147  0.26952  0.17561  1.0000
  C   C336      1.0  0.12432  0.29403  0.17720  1.0000
  C   C337      1.0  0.14751  0.31446  0.18877  1.0000
  C   C338      1.0  0.16802  0.31047  0.19839  1.0000
  C   C339      1.0  0.16529  0.28602  0.19680  1.0000
  S   S52       1.0  0.18076  0.46221  0.24340  1.0000
  C   C340      1.0  0.14744  0.24377  0.26035  1.0000
  S   S53       1.0  0.16875  0.46248  0.34563  1.0000
  H   H264      1.0  0.28660  0.45014  0.02593  1.0000
  H   H265      1.0  0.15408  0.25161  0.31618  1.0000
  S   S54       1.0  0.45616  0.33806  0.33645  1.0000
  H   H266      1.0  0.19122  0.35267  0.09595  1.0000
  H   H267      1.0  0.07422  0.42816  0.19770  1.0000
  C   C341      1.0  0.20195  0.36290  0.07389  1.0000
  C   C342      1.0  0.20281  0.47804  0.13227  1.0000
  H   H268      1.0  0.45690  0.45164  0.04543  1.0000
  C   C343      1.0  0.26028  0.45079  0.32207  1.0000
  C   C344      1.0  0.22571  0.45644  0.36345  1.0000
  H   H269      1.0  0.10309  0.46657  0.23226  1.0000
  C   C345      1.0  0.14745  0.47003  0.36820  1.0000
  H   H270      1.0  0.11754  0.45603  0.32774  1.0000
  H   H271      1.0  0.10830  0.29717  0.17058  1.0000
  H   H272      1.0  0.14936  0.33330  0.19128  1.0000
  H   H273      1.0  0.18578  0.32632  0.20814  1.0000
  H   H274      1.0  0.18116  0.28318  0.20546  1.0000
  C   C346      1.0  0.28067  0.38771  0.98733  1.0000
  C   C347      1.0  0.45957  0.46097  0.02071  1.0000
  C   C348      1.0  0.22008  0.41046  0.47279  1.0000
  C   C349      1.0  0.08922  0.46728  0.21395  1.0000
  H   H275      1.0  0.37446  0.27339  0.44996  1.0000
  C   C350      1.0  0.23177  0.41873  0.44075  1.0000
  H   H276      1.0  0.39774  0.31961  0.33899  1.0000
  C   C351      1.0  0.20084  0.36136  0.40672  1.0000
  H   H277      1.0  0.17853  0.26457  0.14119  1.0000
  C   C352      1.0  0.24242  0.38864  0.04827  1.0000
  C   C353      1.0  0.22271  0.45104  0.09679  1.0000
  P   P11       1.0  0.24789  0.40864  0.98164  1.0000
  C   C354      1.0  0.40118  0.23254  0.47286  1.0000
  H   H278      1.0  0.12436  0.39170  0.36713  1.0000
  C   C355      1.0  0.44169  0.24591  0.40487  1.0000
  H   H279      1.0  0.16364  0.38894  0.36066  1.0000
  H   H280      1.0  0.41629  0.25119  0.33553  1.0000
  H   H281      1.0  0.18457  0.31246  0.34782  1.0000
  C   C356      1.0  0.46005  0.27152  0.27855  1.0000
  H   H282      1.0  0.16783  0.44285  0.13117  1.0000
  H   H283      1.0  0.13617  0.25341  0.25755  1.0000
  C   C357      1.0  0.18932  0.36448  0.04319  1.0000
  P   P12       1.0  0.39704  0.24919  0.40544  1.0000
  C   C358      1.0  0.37504  0.30365  0.42044  1.0000
  S   S55       1.0  0.42657  0.47708  0.04574  1.0000
  C   C359      1.0  0.15770  0.24292  0.29353  1.0000
  C   C360      1.0  0.07267  0.44529  0.19451  1.0000
  H   H284      1.0  0.26799  0.43768  0.41631  1.0000
  C   C361      1.0  0.38478  0.23352  0.44617  1.0000
  C   C362      1.0  0.05489  0.44564  0.17004  1.0000
  C   C363      1.0  0.05335  0.46792  0.16538  1.0000
  H   H285      1.0  0.12163  0.41838  0.41499  1.0000
  H   H286      1.0  0.09219  0.44231  0.11662  1.0000
  H   H287      1.0  0.22318  0.47626  0.98484  1.0000
  C   C364      1.0  0.18370  0.23826  0.10857  1.0000
  C   C365      1.0  0.24799  0.43332  0.34795  1.0000
  C   C366      1.0  0.23009  0.43565  0.36826  1.0000
  C   C367      1.0  0.22986  0.38961  0.01692  1.0000
  P   P13       1.0  0.21280  0.41216  0.40007  1.0000
  C   C368      1.0  0.18340  0.41295  0.40637  1.0000
  C   C369      1.0  0.20484  0.38076  0.38343  1.0000
  C   C370      1.0  0.20148  0.37514  0.34713  1.0000
  C   C371      1.0  0.19475  0.35075  0.33437  1.0000
  C   C372      1.0  0.19089  0.33162  0.35771  1.0000
  H   H288      1.0  0.29364  0.44612  0.47169  1.0000
  C   C373      1.0  0.18185  0.42841  0.43304  1.0000
  C   C374      1.0  0.15948  0.42997  0.43655  1.0000
  C   C375      1.0  0.13864  0.41646  0.41310  1.0000
  C   C376      1.0  0.14018  0.40141  0.38612  1.0000
  C   C377      1.0  0.16250  0.39979  0.38263  1.0000
  C   C378      1.0  0.17232  0.24478  0.13537  1.0000
  C   C379      1.0  0.22848  0.37500  0.07641  1.0000
  C   C380      1.0  0.27521  0.47898  0.02794  1.0000
  H   H289      1.0  0.25193  0.41764  0.35139  1.0000
  C   C381      1.0  0.10791  0.47211  0.37214  1.0000
  H   H290      1.0  0.20345  0.38933  0.32853  1.0000
  C   C382      1.0  0.19738  0.43882  0.10599  1.0000
  H   H291      1.0  0.27325  0.44838  0.30537  1.0000
  H   H292      1.0  0.08540  0.24343  0.01570  1.0000
  S   S56       1.0  0.24237  0.45853  0.22425  1.0000
  H   H293      1.0  0.30933  0.23216  0.32411  1.0000
  H   H294      1.0  0.44912  0.44182  0.24325  1.0000
  H   H295      1.0  0.23054  0.44054  0.08334  1.0000
  C   C383      1.0  0.23828  0.47666  0.10591  1.0000
  H   H296      1.0  0.42598  0.40745  0.28370  1.0000
  C   C384      1.0  0.45312  0.46777  0.13786  1.0000
  C   C385      1.0  0.15138  0.23199  0.23104  1.0000
  H   H297      1.0  0.44525  0.38162  0.30679  1.0000
  H   H298      1.0  0.44589  0.46035  0.11135  1.0000
  H   H299      1.0  0.15847  0.44229  0.45665  1.0000
  C   C386      1.0  0.44631  0.47459  0.01314  1.0000
  H   H300      1.0  0.44445  0.47600  0.41340  1.0000
  H   H301      1.0  0.03968  0.46827  0.14625  1.0000
  C   C387      1.0  0.23709  0.47057  0.99351  1.0000
  C   C388      1.0  0.12370  0.46509  0.35353  1.0000
  C   C389      1.0  0.45785  0.43076  0.25281  1.0000
  C   C390      1.0  0.23445  0.44717  0.98224  1.0000
  C   C391      1.0  0.45107  0.47736  0.44051  1.0000
  H   H302      1.0  0.19958  0.39998  0.47352  1.0000
  C   C392      1.0  0.97273  0.46928  0.46584  1.0000
  C   C393      1.0  0.23806  0.47387  0.33762  1.0000
  H   H303      1.0  0.98655  0.46598  0.08511  1.0000
  H   H304      1.0  0.98850  0.46707  0.45691  1.0000
  C   C394      1.0  0.30366  0.38760  0.98263  1.0000
  H   H305      1.0  0.42141  0.24094  0.46984  1.0000
  H   H306      1.0  0.17986  0.22952  0.32343  1.0000
  C   C395      1.0  0.17218  0.23045  0.29761  1.0000
  Fe  Fe26      1.0  0.23091  0.45406  0.80052  1.0000
  S   S57       1.0  0.23579  0.42168  0.77911  1.0000
  C   C396      1.0  0.37777  0.24894  0.59704  1.0000
  Fe  Fe27      1.0  0.19753  0.45258  0.73521  1.0000
  S   S58       1.0  0.20046  0.42002  0.71028  1.0000
  H   H307      1.0  0.10293  0.44044  0.72267  1.0000
  Fe  Fe28      1.0  0.19358  0.40287  0.76456  1.0000
  S   S59       1.0  0.16475  0.36023  0.77140  1.0000
  Fe  Fe29      1.0  0.24216  0.44175  0.72732  1.0000
  S   S60       1.0  0.27535  0.44757  0.69319  1.0000
  S   S61       1.0  0.18859  0.43464  0.78819  1.0000
  C   C397      1.0  0.32335  0.31247  0.55127  1.0000
  S   S62       1.0  0.09681  0.27436  0.88044  1.0000
  H   H308      1.0  0.27272  0.43253  0.52812  1.0000
  H   H309      1.0  0.21097  0.35828  0.95149  1.0000
  S   S63       1.0  0.40671  0.24871  0.67652  1.0000
  H   H310      1.0  0.45882  0.26424  0.87429  1.0000
  Fe  Fe30      1.0  0.43284  0.25821  0.72497  1.0000
  S   S64       1.0  0.44219  0.29568  0.75364  1.0000
  C   C398      1.0  0.12037  0.46711  0.62597  1.0000
  H   H311      1.0  0.32482  0.25521  0.57942  1.0000
  H   H312      1.0  0.13465  0.40901  0.79735  1.0000
  H   H313      1.0  0.45965  0.23486  0.91871  1.0000
  C   C399      1.0  0.35841  0.46659  0.79102  1.0000
  C   C400      1.0  0.06705  0.32316  0.87742  1.0000
  H   H314      1.0  0.14608  0.44954  0.85662  1.0000
  C   C401      1.0  0.05726  0.41839  0.93563  1.0000
  C   C402      1.0  0.39339  0.29838  0.65525  1.0000
  C   C403      1.0  0.07700  0.34945  0.88047  1.0000
  C   C404      1.0  0.43366  0.33008  0.68163  1.0000
  H   H315      1.0  0.97287  0.45213  0.92408  1.0000
  C   C405      1.0  0.96932  0.45884  0.94857  1.0000
  H   H316      1.0  0.31820  0.45387  0.65473  1.0000
  C   C406      1.0  0.11984  0.44596  0.64233  1.0000
  C   C407      1.0  0.13949  0.44861  0.66643  1.0000
  H   H317      1.0  0.10385  0.42738  0.63668  1.0000
  H   H318      1.0  0.13855  0.43210  0.67881  1.0000
  C   C408      1.0  0.14607  0.33675  0.80242  1.0000
  C   C409      1.0  0.13116  0.31124  0.79077  1.0000
  C   C410      1.0  0.11618  0.29201  0.81398  1.0000
  C   C411      1.0  0.11580  0.29782  0.84959  1.0000
  C   C412      1.0  0.13065  0.32336  0.86124  1.0000
  C   C413      1.0  0.14552  0.34260  0.83797  1.0000
  H   H319      1.0  0.13124  0.30626  0.76346  1.0000
  H   H320      1.0  0.10496  0.27265  0.80427  1.0000
  H   H321      1.0  0.13048  0.32833  0.88851  1.0000
  H   H322      1.0  0.15650  0.36198  0.84751  1.0000
  C   C414      1.0  0.16913  0.40545  0.89997  1.0000
  H   H323      1.0  0.99130  0.24663  0.49817  1.0000
  C   C415      1.0  0.21664  0.44960  0.58337  1.0000
  H   H324      1.0  0.06935  0.41739  0.82220  1.0000
  H   H325      1.0  0.11808  0.43677  0.91536  1.0000
  H   H326      1.0  0.13555  0.42774  0.74000  1.0000
  C   C416      1.0  0.23483  0.41550  0.50416  1.0000
  H   H327      1.0  0.06209  0.47089  0.68339  1.0000
  C   C417      1.0  0.15230  0.43705  0.86868  1.0000
  C   C418      1.0  0.36322  0.26096  0.58838  1.0000
  Fe  Fe31      1.0  0.06847  0.23097  0.88044  1.0000
  C   C419      1.0  0.10217  0.41204  0.81433  1.0000
  H   H328      1.0  0.23410  0.41870  0.64399  1.0000
  H   H329      1.0  0.32911  0.42786  0.78270  1.0000
  C   C420      1.0  0.04447  0.39932  0.90981  1.0000
  C   C421      1.0  0.13510  0.41129  0.87239  1.0000
  C   C422      1.0  0.10271  0.43260  0.74826  1.0000
  C   C423      1.0  0.29170  0.47545  0.86318  1.0000
  H   H330      1.0  0.13088  0.37569  0.89186  1.0000
  C   C424      1.0  0.15441  0.47112  0.54882  1.0000
  C   C425      1.0  0.27784  0.40879  0.97782  1.0000
  C   C426      1.0  0.20202  0.40067  0.60703  1.0000
  S   S65       1.0  0.05911  0.47207  0.51431  1.0000
  C   C427      1.0  0.14364  0.39561  0.88856  1.0000
  C   C428      1.0  0.06829  0.31191  0.84587  1.0000
  C   C429      1.0  0.08391  0.41953  0.80462  1.0000
  C   C430      1.0  0.09758  0.42619  0.91328  1.0000
  C   C431      1.0  0.08487  0.40690  0.88741  1.0000
  C   C432      1.0  0.08823  0.36472  0.85182  1.0000
  C   C433      1.0  0.05819  0.39356  0.88579  1.0000
  C   C434      1.0  0.12067  0.41505  0.79065  1.0000
  C   C435      1.0  0.07581  0.47465  0.87910  1.0000
  C   C436      1.0  0.08422  0.42976  0.77166  1.0000
  C   C437      1.0  0.32068  0.42888  0.95711  1.0000
  C   C438      1.0  0.17774  0.44678  0.88021  1.0000
  C   C439      1.0  0.18619  0.43098  0.89557  1.0000
  H   H331      1.0  0.07642  0.35782  0.90546  1.0000
  S   S66       1.0  0.18211  0.47772  0.71074  1.0000
  C   C440      1.0  0.44099  0.34062  0.64883  1.0000
  C   C441      1.0  0.42482  0.32138  0.48509  1.0000
  S   S67       1.0  0.24466  0.47414  0.85453  1.0000
  H   H332      1.0  0.17186  0.38802  0.56692  1.0000
  C   C442      1.0  0.33387  0.44763  0.78126  1.0000
  H   H333      1.0  0.05596  0.24466  0.54709  1.0000
  H   H334      1.0  0.08153  0.31825  0.79343  1.0000
  H   H335      1.0  0.09904  0.36436  0.79815  1.0000
  H   H336      1.0  0.03798  0.26383  0.50559  1.0000
  C   C443      1.0  0.22824  0.40677  0.87753  1.0000
  C   C444      1.0  0.21116  0.38124  0.87035  1.0000
  C   C445      1.0  0.20469  0.36391  0.89727  1.0000
  C   C446      1.0  0.21535  0.37213  0.93135  1.0000
  C   C447      1.0  0.23192  0.39793  0.93892  1.0000
  C   C448      1.0  0.23873  0.41504  0.91155  1.0000
  H   H337      1.0  0.20608  0.43857  0.90358  1.0000
  H   H338      1.0  0.42745  0.24798  0.82364  1.0000
  H   H339      1.0  0.32855  0.47754  0.87056  1.0000
  H   H340      1.0  0.42363  0.35626  0.49329  1.0000
  H   H341      1.0  0.37512  0.28188  0.65831  1.0000
  S   S68       1.0  0.44526  0.25403  0.59125  1.0000
  C   C449      1.0  0.29789  0.42922  0.96227  1.0000
  C   C450      1.0  0.35564  0.30622  0.58355  1.0000
  H   H342      1.0  0.45840  0.34689  0.77681  1.0000
  C   C451      1.0  0.31550  0.45417  0.76926  1.0000
  C   C452      1.0  0.07968  0.32694  0.81740  1.0000
  C   C453      1.0  0.02543  0.24780  0.52059  1.0000
  C   C454      1.0  0.41761  0.29718  0.49725  1.0000
  H   H343      1.0  0.33618  0.44490  0.94541  1.0000
  H   H344      1.0  0.06339  0.45460  0.88191  1.0000
  S   S69       1.0  0.09355  0.46270  0.59889  1.0000
  C   C455      1.0  0.42773  0.23506  0.84315  1.0000
  H   H345      1.0  0.34159  0.40828  0.96420  1.0000
  H   H346      1.0  0.05702  0.27728  0.67093  1.0000
  H   H347      1.0  0.23361  0.42020  0.85668  1.0000
  H   H348      1.0  0.20321  0.37484  0.84381  1.0000
  H   H349      1.0  0.17317  0.45905  0.58714  1.0000
  H   H350      1.0  0.37269  0.46150  0.80011  1.0000
  H   H351      1.0  0.25251  0.43476  0.91637  1.0000
  H   H352      1.0  0.46022  0.30640  0.61566  1.0000
  C   C456      1.0  0.41748  0.33725  0.50236  1.0000
  H   H353      1.0  0.45951  0.35686  0.64633  1.0000
  H   H354      1.0  0.19170  0.34403  0.89148  1.0000
  H   H355      1.0  0.28871  0.46805  0.83644  1.0000
  H   H356      1.0  0.02389  0.38886  0.90859  1.0000
  H   H357      1.0  0.40425  0.30076  0.71024  1.0000
  C   C457      1.0  0.19577  0.42851  0.56699  1.0000
  H   H358      1.0  0.43073  0.33857  0.59410  1.0000
  C   C458      1.0  0.08970  0.35323  0.82032  1.0000
  H   H359      1.0  0.29595  0.44541  0.95400  1.0000
  C   C459      1.0  0.33264  0.32452  0.61299  1.0000
  H   H360      1.0  0.44644  0.33798  0.70466  1.0000
  C   C460      1.0  0.35088  0.31626  0.61404  1.0000
  Fe  Fe32      1.0  0.43531  0.24188  0.64872  1.0000
  C   C461      1.0  0.03553  0.23666  0.54387  1.0000
  H   H361      1.0  0.21817  0.43472  0.96545  1.0000
  H   H362      1.0  0.17114  0.47177  0.78956  1.0000
  H   H363      1.0  0.45999  0.26789  0.52027  1.0000
  H   H364      1.0  0.30487  0.32921  0.58089  1.0000
  C   C462      1.0  0.40983  0.30906  0.68481  1.0000
  P   P14       1.0  0.37876  0.29497  0.58441  1.0000
  C   C463      1.0  0.39611  0.30476  0.54484  1.0000
  C   C464      1.0  0.40056  0.30884  0.62216  1.0000
  C   C465      1.0  0.42450  0.33013  0.61918  1.0000
  C   C466      1.0  0.15958  0.47263  0.67547  1.0000
  H   H365      1.0  0.07002  0.43535  0.76408  1.0000
  H   H366      1.0  0.24728  0.46169  0.62322  1.0000
  C   C467      1.0  0.08378  0.43186  0.93729  1.0000
  C   C468      1.0  0.40343  0.28887  0.52711  1.0000
  C   C469      1.0  0.23066  0.44586  0.61083  1.0000
  C   C470      1.0  0.22332  0.42147  0.62258  1.0000
  C   C471      1.0  0.34157  0.30417  0.55222  1.0000
  C   C472      1.0  0.40308  0.32896  0.53205  1.0000
  H   H367      1.0  0.04799  0.37859  0.86608  1.0000
  C   C473      1.0  0.18829  0.40418  0.57913  1.0000
  P   P15       1.0  0.10237  0.39882  0.85670  1.0000
  C   C474      1.0  0.12103  0.42540  0.75790  1.0000
  H   H368      1.0  0.18521  0.43078  0.54489  1.0000
  H   H369      1.0  0.05891  0.31144  0.89974  1.0000
  C   C475      1.0  0.04799  0.24417  0.70102  1.0000
  H   H370      1.0  0.36121  0.31788  0.63866  1.0000
  C   C476      1.0  0.04555  0.24409  0.63744  1.0000
  C   C477      1.0  0.45868  0.28409  0.57035  1.0000
  H   H371      1.0  0.32918  0.33242  0.63656  1.0000
  H   H372      1.0  0.04811  0.25456  0.61369  1.0000
  H   H373      1.0  0.05201  0.25419  0.72622  1.0000
  H   H374      1.0  0.17575  0.39315  0.91167  1.0000
  C   C478      1.0  0.05074  0.25711  0.66988  1.0000
  H   H375      1.0  0.19622  0.38187  0.61664  1.0000
  H   H376      1.0  0.39889  0.27038  0.53659  1.0000
  H   H377      1.0  0.29659  0.43949  0.76103  1.0000
  H   H378      1.0  0.06124  0.29160  0.84389  1.0000
  H   H379      1.0  0.22580  0.40923  0.52882  1.0000
  H   H380      1.0  0.39806  0.34176  0.54565  1.0000
  S   S70       1.0  0.46229  0.25312  0.69639  1.0000
  C   C479      1.0  0.99915  0.23820  0.51651  1.0000
  S   S71       1.0  0.23941  0.47479  0.74996  1.0000
  H   H381      1.0  0.34471  0.29617  0.52853  1.0000
  C   C480      1.0  0.99009  0.47750  0.96943  1.0000
  H   H382      1.0  0.39831  0.25978  0.59999  1.0000
  C   C481      1.0  0.31607  0.47056  0.65051  1.0000
  C   C482      1.0  0.31892  0.32269  0.58163  1.0000
  C   C483      1.0  0.44537  0.24420  0.87172  1.0000
  C   C484      1.0  0.17557  0.47029  0.56413  1.0000
  C   C485      1.0  0.46236  0.31408  0.79006  1.0000
  H   H383      1.0  0.08922  0.46960  0.82982  1.0000
  H   H384      1.0  0.19117  0.46651  0.87680  1.0000
  H   H385      1.0  0.22342  0.47333  0.49087  1.0000
  C   C486      1.0  0.32370  0.40823  0.96764  1.0000
  H   H386      1.0  0.31267  0.31102  0.52698  1.0000
  C   C487      1.0  0.29657  0.47288  0.66694  1.0000
  H   H387      1.0  0.04245  0.47580  0.73714  1.0000
  H   H388      1.0  0.13588  0.46035  0.55957  1.0000
  H   H389      1.0  0.09368  0.44666  0.95737  1.0000
  H   H390      1.0  0.04662  0.42275  0.95439  1.0000
  C   C488      1.0  0.26130  0.42847  0.50377  1.0000
  C   C489      1.0  0.46410  0.30675  0.58816  1.0000
  H   H391      1.0  0.42391  0.28526  0.48423  1.0000
  C   C490      1.0  0.46388  0.28513  0.53444  1.0000
  C   C491      1.0  0.33661  0.24649  0.58545  1.0000
  H   H392      1.0  0.13470  0.47935  0.78051  1.0000
  Fe  Fe33      1.0  0.39712  0.49186  0.04471  1.0000
  S   S72       1.0  0.40170  0.52656  0.01674  1.0000
  H   H393      1.0  0.26278  0.55157  0.06751  1.0000
  C   C492      1.0  0.42811  0.58516  0.25745  1.0000
  S   S73       1.0  0.34631  0.51535  0.04444  1.0000
  C   C493      1.0  0.09861  0.52291  0.34154  1.0000
  Fe  Fe34      1.0  0.38721  0.53587  0.06573  1.0000
  S   S74       1.0  0.39943  0.57526  0.09070  1.0000
  S   S75       1.0  0.38472  0.50247  0.09519  1.0000
  S   S76       1.0  0.19229  0.70155  0.20300  1.0000
  H   H394      1.0  0.40266  0.55424  0.33185  1.0000
  Fe  Fe35      1.0  0.09639  0.58994  0.06363  1.0000
  S   S77       1.0  0.12802  0.58645  0.03898  1.0000
  S   S78       1.0  0.10290  0.62607  0.09399  1.0000
  Fe  Fe36      1.0  0.05503  0.53735  0.03053  1.0000
  H   H395      1.0  0.05562  0.48771  0.25912  1.0000
  S   S79       1.0  0.01153  0.50967  0.02965  1.0000
  Fe  Fe37      1.0  0.10810  0.54576  0.05680  1.0000
  S   S80       1.0  0.13361  0.53375  0.08977  1.0000
  H   H396      1.0  0.11152  0.60404  0.17076  1.0000
  S   S81       1.0  0.07727  0.55003  0.08306  1.0000
  S   S82       1.0  0.07129  0.57789  0.01380  1.0000
  S   S83       1.0  0.41204  0.58527  0.43937  1.0000
  H   H397      1.0  0.43336  0.48970  0.13913  1.0000
  C   C494      1.0  0.43158  0.61430  0.41853  1.0000
  C   C495      1.0  0.43192  0.61460  0.38159  1.0000
  H   H398      1.0  0.46614  0.59802  0.24276  1.0000
  C   C496      1.0  0.43750  0.71110  0.32582  1.0000
  C   C497      1.0  0.06788  0.49770  0.28183  1.0000
  H   H399      1.0  0.30246  0.56856  0.03578  1.0000
  H   H400      1.0  0.43297  0.69141  0.32797  1.0000
  H   H401      1.0  0.45640  0.72185  0.37704  1.0000
  H   H402      1.0  0.45463  0.52844  0.29854  1.0000
  C   C498      1.0  0.12951  0.50636  0.11313  1.0000
  C   C499      1.0  0.14801  0.50893  0.13922  1.0000
  C   C500      1.0  0.13186  0.69341  0.03650  1.0000
  C   C501      1.0  0.46305  0.57313  0.41802  1.0000
  C   C502      1.0  0.25748  0.48649  0.01634  1.0000
  C   C503      1.0  0.98603  0.48650  0.00133  1.0000
  H   H403      1.0  0.13612  0.70771  0.05691  1.0000
  H   H404      1.0  0.44415  0.64900  0.17240  1.0000
  H   H405      1.0  0.16162  0.70272  0.46828  1.0000
  H   H406      1.0  0.06382  0.65641  0.01323  1.0000
  H   H407      1.0  0.14518  0.49796  0.44608  1.0000
  H   H408      1.0  0.24629  0.72519  0.16277  1.0000
  C   C504      1.0  0.41652  0.56334  0.31216  1.0000
  C   C505      1.0  0.16761  0.68138  0.17177  1.0000
  C   C506      1.0  0.16771  0.65950  0.15829  1.0000
  C   C507      1.0  0.14858  0.64281  0.13378  1.0000
  C   C508      1.0  0.12850  0.64732  0.12318  1.0000
  C   C509      1.0  0.12837  0.66920  0.13663  1.0000
  C   C510      1.0  0.14779  0.68614  0.16066  1.0000
  H   H409      1.0  0.18265  0.65532  0.16705  1.0000
  H   H410      1.0  0.14902  0.62611  0.12380  1.0000
  H   H411      1.0  0.11292  0.67286  0.12877  1.0000
  H   H412      1.0  0.14708  0.70249  0.17136  1.0000
  S   S84       1.0  0.46570  0.68868  0.25622  1.0000
  H   H413      1.0  0.45610  0.66736  0.08908  1.0000
  C   C511      1.0  0.41007  0.57281  0.28235  1.0000
  H   H414      1.0  0.24725  0.56976  0.16130  1.0000
  C   C512      1.0  0.42399  0.59416  0.12281  1.0000
  C   C513      1.0  0.42465  0.61622  0.13704  1.0000
  C   C514      1.0  0.44411  0.63225  0.16169  1.0000
  C   C515      1.0  0.44307  0.58825  0.13383  1.0000
  H   H415      1.0  0.40999  0.62098  0.12888  1.0000
  H   H416      1.0  0.22178  0.59062  0.14453  1.0000
  H   H417      1.0  0.20834  0.51347  0.07798  1.0000
  H   H418      1.0  0.14284  0.64419  0.01712  1.0000
  H   H419      1.0  0.20252  0.66587  0.08612  1.0000
  C   C516      1.0  0.15938  0.53652  0.22221  1.0000
  H   H420      1.0  0.06468  0.50346  0.37024  1.0000
  H   H421      1.0  0.44291  0.57142  0.12318  1.0000
  C   C517      1.0  0.22974  0.53995  0.12099  1.0000
  H   H422      1.0  0.16042  0.49031  0.17783  1.0000
  C   C518      1.0  0.25668  0.52995  0.17997  1.0000
  C   C519      1.0  0.21912  0.57390  0.12995  1.0000
  C   C520      1.0  0.05732  0.49419  0.31472  1.0000
  C   C521      1.0  0.31939  0.54286  0.10404  1.0000
  H   H423      1.0  0.25626  0.48283  0.44792  1.0000
  H   H424      1.0  0.33891  0.56336  0.05927  1.0000
  C   C522      1.0  0.45611  0.70105  0.06955  1.0000
  C   C523      1.0  0.27848  0.55230  0.19157  1.0000
  C   C524      1.0  0.28546  0.55712  0.22739  1.0000
  C   C525      1.0  0.27073  0.53972  0.25193  1.0000
  C   C526      1.0  0.24897  0.51759  0.24064  1.0000
  C   C527      1.0  0.24190  0.51275  0.20485  1.0000
  C   C528      1.0  0.01601  0.66814  0.98534  1.0000
  H   H425      1.0  0.22721  0.68021  0.14311  1.0000
  H   H426      1.0  0.99884  0.66751  0.99453  1.0000
  C   C529      1.0  0.45532  0.49419  0.18758  1.0000
  H   H427      1.0  0.11777  0.53592  0.16475  1.0000
  P   P16       1.0  0.24775  0.52398  0.13360  1.0000
  H   H428      1.0  0.42170  0.70636  0.27285  1.0000
  H   H429      1.0  0.18272  0.53447  0.06231  1.0000
  H   H430      1.0  0.22119  0.69172  0.34226  1.0000
  H   H431      1.0  0.29067  0.49095  0.04635  1.0000
  C   C530      1.0  0.44604  0.48441  0.15355  1.0000
  C   C531      1.0  0.23347  0.56191  0.13944  1.0000
  C   C532      1.0  0.29698  0.53313  0.12212  1.0000
  C   C533      1.0  0.44101  0.56624  0.31713  1.0000
  H   H432      1.0  0.29013  0.56600  0.17293  1.0000
  H   H433      1.0  0.30243  0.57425  0.23610  1.0000
  H   H434      1.0  0.27630  0.54324  0.27964  1.0000
  H   H435      1.0  0.23778  0.50373  0.25946  1.0000
  C   C534      1.0  0.03094  0.66170  0.00770  1.0000
  H   H436      1.0  0.26415  0.48395  0.29591  1.0000
  H   H437      1.0  0.44696  0.63698  0.33556  1.0000
  H   H438      1.0  0.18939  0.57294  0.09513  1.0000
  C   C535      1.0  0.44679  0.63720  0.36392  1.0000
  C   C536      1.0  0.45074  0.72832  0.35355  1.0000
  C   C537      1.0  0.46296  0.72657  0.07677  1.0000
  H   H439      1.0  0.31753  0.49255  0.15206  1.0000
  C   C538      1.0  0.19733  0.54239  0.08333  1.0000
  C   C539      1.0  0.21962  0.70572  0.39388  1.0000
  C   C540      1.0  0.11622  0.69147  0.00715  1.0000
  C   C541      1.0  0.10968  0.67213  0.98150  1.0000
  C   C542      1.0  0.20103  0.56411  0.10197  1.0000
  C   C543      1.0  0.13898  0.48850  0.42066  1.0000
  H   H440      1.0  0.11994  0.57364  0.13673  1.0000
  H   H441      1.0  0.03726  0.48152  0.31723  1.0000
  C   C544      1.0  0.44614  0.63707  0.43759  1.0000
  C   C545      1.0  0.43157  0.71160  0.98794  1.0000
  H   H442      1.0  0.19473  0.48822  0.14584  1.0000
  C   C546      1.0  0.10919  0.48216  0.10555  1.0000
  H   H443      1.0  0.44964  0.50700  0.19970  1.0000
  C   C547      1.0  0.27840  0.54900  0.07802  1.0000
  P   P17       1.0  0.21692  0.72504  0.45940  1.0000
  C   C548      1.0  0.15493  0.48179  0.40191  1.0000
  H   H444      1.0  0.30151  0.50013  0.46830  1.0000
  C   C549      1.0  0.19877  0.67388  0.47221  1.0000
  C   C550      1.0  0.14403  0.50672  0.26906  1.0000
  H   H445      1.0  0.19910  0.69496  0.39371  1.0000
  H   H446      1.0  0.41495  0.70348  0.00354  1.0000
  C   C551      1.0  0.11535  0.48381  0.40590  1.0000
  C   C552      1.0  0.11479  0.54940  0.18032  1.0000
  S   S85       1.0  0.08521  0.53128  0.00500  1.0000
  H   H447      1.0  0.20672  0.52674  0.25831  1.0000
  C   C553      1.0  0.22836  0.49047  0.12337  1.0000
  H   H448      1.0  0.10867  0.70459  0.00490  1.0000
  C   C554      1.0  0.19249  0.69352  0.46868  1.0000
  H   H449      1.0  0.17329  0.48588  0.41351  1.0000
  H   H450      1.0  0.44695  0.57384  0.40526  1.0000
  H   H451      1.0  0.12936  0.53922  0.30691  1.0000
  H   H452      1.0  0.19875  0.55070  0.21119  1.0000
  C   C555      1.0  0.30086  0.55866  0.05991  1.0000
  C   C556      1.0  0.16831  0.50928  0.27484  1.0000
  H   H453      1.0  0.46437  0.53939  0.08599  1.0000
  C   C557      1.0  0.10967  0.54543  0.21603  1.0000
  H   H454      1.0  0.45226  0.53558  0.39772  1.0000
  H   H455      1.0  0.23363  0.48916  0.33308  1.0000
  C   C558      1.0  0.18804  0.52513  0.25405  1.0000
  C   C559      1.0  0.46353  0.62669  0.17204  1.0000
  C   C560      1.0  0.27638  0.53629  0.10943  1.0000
  H   H456      1.0  0.44590  0.63733  0.46594  1.0000
  S   S86       1.0  0.09525  0.49362  0.42737  1.0000
  H   H457      1.0  0.39120  0.57089  0.27874  1.0000
  C   C561      1.0  0.25849  0.71777  0.36403  1.0000
  H   H458      1.0  0.06762  0.50669  0.18163  1.0000
  C   C562      1.0  0.20885  0.70317  0.07278  1.0000
  H   H459      1.0  0.19746  0.69637  0.04850  1.0000
  C   C563      1.0  0.46034  0.65977  0.41990  1.0000
  C   C564      1.0  0.45915  0.57817  0.29189  1.0000
  C   C565      1.0  0.44642  0.49251  0.46490  1.0000
  H   H460      1.0  0.25944  0.50450  0.02540  1.0000
  H   H461      1.0  0.42332  0.59290  0.23451  1.0000
  H   H462      1.0  0.42049  0.59724  0.36653  1.0000
  H   H463      1.0  0.16381  0.52745  0.14549  1.0000
  H   H464      1.0  0.44584  0.55944  0.34088  1.0000
  C   C566      1.0  0.45256  0.58795  0.26224  1.0000
  H   H465      1.0  0.10323  0.59783  0.23395  1.0000
  C   C567      1.0  0.23649  0.71919  0.13716  1.0000
  C   C568      1.0  0.43104  0.71949  0.29493  1.0000
  C   C569      1.0  0.21169  0.68575  0.09404  1.0000
  H   H466      1.0  0.02523  0.65584  0.03412  1.0000
  C   C570      1.0  0.22560  0.69379  0.12614  1.0000
  C   C571      1.0  0.07271  0.50667  0.34457  1.0000
  H   H467      1.0  0.15649  0.54724  0.20166  1.0000
  C   C572      1.0  0.21168  0.53040  0.09263  1.0000
  H   H468      1.0  0.29171  0.49362  0.20110  1.0000
  C   C573      1.0  0.14139  0.67634  0.04009  1.0000
  C   C574      1.0  0.13936  0.52049  0.24286  1.0000
  C   C575      1.0  0.32138  0.55571  0.07303  1.0000
  H   H469      1.0  0.18043  0.72812  0.11472  1.0000
  C   C576      1.0  0.08787  0.48978  0.20940  1.0000
  H   H470      1.0  0.15260  0.67715  0.06352  1.0000
  H   H471      1.0  0.11051  0.53212  0.36495  1.0000
  H   H472      1.0  0.29574  0.52318  0.14609  1.0000
  Fe  Fe38      1.0  0.10229  0.57262  0.98994  1.0000
  C   C577      1.0  0.13574  0.65765  0.01404  1.0000
  Fe  Fe39      1.0  0.36035  0.50279  0.99844  1.0000
  H   H473      1.0  0.22526  0.49522  0.19687  1.0000
  C   C578      1.0  0.10654  0.58430  0.21909  1.0000
  C   C579      1.0  0.11586  0.57067  0.16425  1.0000
  C   C580      1.0  0.23350  0.72201  0.42251  1.0000
  C   C581      1.0  0.06956  0.48983  0.18522  1.0000
  P   P18       1.0  0.10800  0.51765  0.23643  1.0000
  C   C582      1.0  0.10580  0.56321  0.23541  1.0000
  C   C583      1.0  0.18355  0.53865  0.22763  1.0000
  C   C584      1.0  0.09400  0.51372  0.27863  1.0000
  C   C585      1.0  0.11139  0.58793  0.18349  1.0000
  C   C586      1.0  0.10922  0.52662  0.30870  1.0000
  C   C587      1.0  0.23207  0.70377  0.36468  1.0000
  H   H474      1.0  0.10192  0.56079  0.26297  1.0000
  H   H475      1.0  0.33532  0.54049  0.11404  1.0000
  H   H476      1.0  0.26808  0.71659  0.34116  1.0000
  C   C588      1.0  0.14849  0.66359  0.47874  1.0000
  H   H477      1.0  0.21813  0.67752  0.46928  1.0000
  H   H478      1.0  0.17173  0.49872  0.29530  1.0000
  C   C589      1.0  0.05299  0.66228  0.99582  1.0000
  H   H479      1.0  0.25801  0.48539  0.09947  1.0000
  H   H480      1.0  0.44672  0.69184  0.04477  1.0000
  Fe  Fe40      1.0  0.34437  0.48168  0.07215  1.0000
  H   H481      1.0  0.43634  0.50255  0.45638  1.0000
  C   C590      1.0  0.46103  0.66004  0.38306  1.0000
  H   H482      1.0  0.12896  0.49402  0.28521  1.0000
  C   C591      1.0  0.46273  0.60448  0.15813  1.0000
  C   C592      1.0  0.46141  0.68707  0.09457  1.0000
  C   C593      1.0  0.26160  0.48638  0.47571  1.0000
  C   C594      1.0  0.12006  0.65561  0.98471  1.0000
  H   H483      1.0  0.45481  0.49248  0.32931  1.0000
  C   C595      1.0  0.14625  0.48781  0.15752  1.0000
  C   C596      1.0  0.16715  0.68817  0.47181  1.0000
  H   H484      1.0  0.23239  0.72659  0.00605  1.0000
  C   C597      1.0  0.21661  0.72828  0.99400  1.0000
  H   H485      1.0  0.09479  0.47969  0.08562  1.0000
  H   H486      1.0  0.06588  0.72092  0.13076  1.0000
  C   C598      1.0  0.18011  0.64940  0.47949  1.0000
  C   C599      1.0  0.46606  0.55161  0.41368  1.0000
  C   C600      1.0  0.22010  0.72883  0.08345  1.0000
  H   H487      1.0  0.10800  0.72786  0.15377  1.0000
  H   H488      1.0  0.12889  0.65943  0.48068  1.0000
  H   H489      1.0  0.43116  0.56667  0.72343  1.0000
  H   H490      1.0  0.42330  0.60789  0.83707  1.0000
  S   S87       1.0  0.11758  0.51841  0.53085  1.0000
  C   C601      1.0  0.07800  0.49454  0.76763  1.0000
  Fe  Fe41      1.0  0.04484  0.49991  0.52618  1.0000
  H   H491      1.0  0.34721  0.48699  0.61548  1.0000
  C   C602      1.0  0.44714  0.58559  0.72338  1.0000
  C   C603      1.0  0.29154  0.53231  0.81468  1.0000
  Fe  Fe42      1.0  0.09948  0.54294  0.54389  1.0000
  S   S88       1.0  0.12619  0.58431  0.56200  1.0000
  S   S89       1.0  0.06970  0.51396  0.57674  1.0000
  S   S90       1.0  0.11008  0.58413  0.93206  1.0000
  Fe  Fe43      1.0  0.17217  0.70023  0.79413  1.0000
  S   S91       1.0  0.13476  0.69528  0.77184  1.0000
  S   S92       1.0  0.17753  0.68493  0.84749  1.0000
  Fe  Fe44      1.0  0.14693  0.68717  0.71986  1.0000
  S   S93       1.0  0.11820  0.65228  0.68671  1.0000
  S   S94       1.0  0.18328  0.69024  0.74289  1.0000
  Fe  Fe45      1.0  0.43102  0.53971  0.53616  1.0000
  S   S95       1.0  0.39343  0.53306  0.51122  1.0000
  C   C604      1.0  0.09903  0.69258  0.64554  1.0000
  Fe  Fe46      1.0  0.44064  0.59129  0.57030  1.0000
  S   S96       1.0  0.40432  0.58767  0.54599  1.0000
  H   H492      1.0  0.07820  0.65286  0.87008  1.0000
  Fe  Fe47      1.0  0.38650  0.54693  0.56324  1.0000
  S   S97       1.0  0.34897  0.53446  0.59166  1.0000
  C   C605      1.0  0.37269  0.53764  0.84506  1.0000
  S   S98       1.0  0.42292  0.55131  0.58932  1.0000
  C   C606      1.0  0.17089  0.48743  0.80352  1.0000
  C   C607      1.0  0.12813  0.61319  0.91014  1.0000
  C   C608      1.0  0.12066  0.61555  0.87545  1.0000
  C   C609      1.0  0.13501  0.63754  0.85627  1.0000
  C   C610      1.0  0.15768  0.65723  0.87105  1.0000
  C   C611      1.0  0.16519  0.65483  0.90570  1.0000
  C   C612      1.0  0.15047  0.63317  0.92522  1.0000
  H   H493      1.0  0.10359  0.60019  0.86333  1.0000
  H   H494      1.0  0.12877  0.63905  0.82984  1.0000
  H   H495      1.0  0.18273  0.66969  0.91745  1.0000
  H   H496      1.0  0.15679  0.63162  0.95160  1.0000
  C   C613      1.0  0.37378  0.52977  0.71081  1.0000
  H   H497      1.0  0.10849  0.48770  0.68327  1.0000
  C   C614      1.0  0.44203  0.63895  0.64705  1.0000
  C   C615      1.0  0.43952  0.65445  0.67304  1.0000
  H   H498      1.0  0.42589  0.62112  0.63863  1.0000
  H   H499      1.0  0.42130  0.64840  0.68425  1.0000
  C   C616      1.0  0.12410  0.60152  0.59914  1.0000
  C   C617      1.0  0.14594  0.62357  0.61180  1.0000
  C   C618      1.0  0.14476  0.63893  0.63923  1.0000
  C   C619      1.0  0.12147  0.63292  0.65357  1.0000
  C   C620      1.0  0.09966  0.61093  0.64082  1.0000
  C   C621      1.0  0.10099  0.59515  0.61418  1.0000
  H   H500      1.0  0.16386  0.62896  0.60006  1.0000
  H   H501      1.0  0.16177  0.65560  0.64883  1.0000
  H   H502      1.0  0.08153  0.60604  0.65161  1.0000
  H   H503      1.0  0.08396  0.57849  0.60449  1.0000
  H   H504      1.0  0.14230  0.67097  0.56436  1.0000
  H   H505      1.0  0.27784  0.53551  0.72815  1.0000
  C   C622      1.0  0.20215  0.49948  0.52137  1.0000
  C   C623      1.0  0.32995  0.51091  0.62180  1.0000
  C   C624      1.0  0.31073  0.51347  0.63874  1.0000
  C   C625      1.0  0.40932  0.58820  0.83921  1.0000
  C   C626      1.0  0.23944  0.50465  0.60302  1.0000
  C   C627      1.0  0.10003  0.48944  0.70696  1.0000
  C   C628      1.0  0.05452  0.59239  0.92475  1.0000
  H   H506      1.0  0.17642  0.51229  0.66417  1.0000
  H   H507      1.0  0.14244  0.50731  0.62005  1.0000
  H   H508      1.0  0.12567  0.67640  0.89434  1.0000
  H   H509      1.0  0.05936  0.61096  0.84022  1.0000
  C   C629      1.0  0.24996  0.48652  0.53605  1.0000
  C   C630      1.0  0.36769  0.54423  0.73392  1.0000
  C   C631      1.0  0.06054  0.66982  0.96159  1.0000
  H   H510      1.0  0.40367  0.71974  0.67305  1.0000
  H   H511      1.0  0.01107  0.67930  0.93333  1.0000
  H   H512      1.0  0.30842  0.53000  0.63412  1.0000
  C   C632      1.0  0.16067  0.49370  0.65810  1.0000
  H   H513      1.0  0.28387  0.56638  0.61905  1.0000
  Fe  Fe48      1.0  0.08660  0.48892  0.56161  1.0000
  C   C633      1.0  0.07493  0.63830  0.92258  1.0000
  C   C634      1.0  0.15930  0.71847  0.59307  1.0000
  H   H514      1.0  0.41233  0.68607  0.94366  1.0000
  C   C635      1.0  0.10823  0.63738  0.54851  1.0000
  H   H515      1.0  0.11814  0.62688  0.54233  1.0000
  C   C636      1.0  0.40680  0.57635  0.87127  1.0000
  C   C637      1.0  0.12117  0.72627  0.54937  1.0000
  H   H516      1.0  0.39885  0.64555  0.76253  1.0000
  C   C638      1.0  0.10100  0.72082  0.69272  1.0000
  P   P19       1.0  0.12422  0.51988  0.80660  1.0000
  C   C639      1.0  0.10593  0.50927  0.84523  1.0000
  H   H517      1.0  0.38369  0.50655  0.79640  1.0000
  H   H518      1.0  0.11570  0.64080  0.96509  1.0000
  C   C640      1.0  0.19065  0.52315  0.84468  1.0000
  H   H519      1.0  0.06593  0.48542  0.92793  1.0000
  H   H520      1.0  0.27942  0.49691  0.67353  1.0000
  H   H521      1.0  0.31351  0.50678  0.53202  1.0000
  C   C641      1.0  0.10762  0.52654  0.87167  1.0000
  C   C642      1.0  0.09321  0.51784  0.90133  1.0000
  C   C643      1.0  0.15699  0.48577  0.51954  1.0000
  H   H522      1.0  0.26330  0.49279  0.92517  1.0000
  H   H523      1.0  0.26024  0.53335  0.78664  1.0000
  C   C644      1.0  0.13485  0.55313  0.80011  1.0000
  C   C645      1.0  0.11725  0.56231  0.80046  1.0000
  C   C646      1.0  0.12518  0.58802  0.79583  1.0000
  C   C647      1.0  0.15072  0.60478  0.79088  1.0000
  C   C648      1.0  0.16824  0.59569  0.78963  1.0000
  C   C649      1.0  0.16031  0.56991  0.79368  1.0000
  S   S99       1.0  0.00322  0.49321  0.52734  1.0000
  H   H524      1.0  0.04425  0.57206  0.87498  1.0000
  H   H525      1.0  0.04963  0.67980  0.91180  1.0000
  C   C650      1.0  0.28408  0.72825  0.73162  1.0000
  H   H526      1.0  0.13563  0.50897  0.73623  1.0000
  C   C651      1.0  0.27748  0.48937  0.91316  1.0000
  C   C652      1.0  0.22913  0.49929  0.63626  1.0000
  H   H527      1.0  0.04838  0.62992  0.54861  1.0000
  H   H528      1.0  0.39507  0.57036  0.64336  1.0000
  H   H529      1.0  0.11998  0.54672  0.86972  1.0000
  H   H530      1.0  0.09438  0.53124  0.92154  1.0000
  H   H531      1.0  0.41887  0.58673  0.89399  1.0000
  C   C653      1.0  0.09033  0.48323  0.84952  1.0000
  H   H532      1.0  0.09743  0.54966  0.80479  1.0000
  H   H533      1.0  0.11158  0.59507  0.79664  1.0000
  H   H534      1.0  0.15690  0.62483  0.78821  1.0000
  H   H535      1.0  0.18804  0.60869  0.78596  1.0000
  H   H536      1.0  0.17414  0.56331  0.79200  1.0000
  C   C654      1.0  0.06109  0.61242  0.86862  1.0000
  C   C655      1.0  0.18091  0.50016  0.50604  1.0000
  H   H537      1.0  0.15192  0.69151  0.63407  1.0000
  C   C656      1.0  0.09200  0.69632  0.67870  1.0000
  H   H538      1.0  0.26381  0.71752  0.73472  1.0000
  H   H539      1.0  0.97760  0.56578  0.64846  1.0000
  S   S100      1.0  0.45579  0.69634  0.71755  1.0000
  C   C657      1.0  0.46634  0.48442  0.95654  1.0000
  C   C658      1.0  0.25841  0.54211  0.65701  1.0000
  H   H540      1.0  0.42977  0.63002  0.75759  1.0000
  C   C659      1.0  0.15025  0.51301  0.81450  1.0000
  P   P20       1.0  0.35391  0.53175  0.77542  1.0000
  H   H541      1.0  0.38777  0.52783  0.66018  1.0000
  C   C660      1.0  0.10436  0.50339  0.76805  1.0000
  C   C661      1.0  0.07212  0.63623  0.88574  1.0000
  C   C662      1.0  0.36453  0.49210  0.78902  1.0000
  H   H542      1.0  0.31813  0.53460  0.72289  1.0000
  C   C663      1.0  0.43006  0.70156  0.95414  1.0000
  C   C664      1.0  0.33265  0.48939  0.62823  1.0000
  H   H543      1.0  0.19721  0.70534  0.64861  1.0000
  C   C665      1.0  0.06889  0.63907  0.55207  1.0000
  C   C666      1.0  0.08244  0.66426  0.56439  1.0000
  C   C667      1.0  0.10899  0.67601  0.56963  1.0000
  C   C668      1.0  0.12185  0.66245  0.56120  1.0000
  H   H544      1.0  0.28338  0.53026  0.84009  1.0000
  C   C669      1.0  0.25893  0.52913  0.59687  1.0000
  H   H545      1.0  0.45007  0.70439  0.90716  1.0000
  H   H546      1.0  0.14054  0.62517  0.48821  1.0000
  Fe  Fe49      1.0  0.41455  0.57437  0.49661  1.0000
  H   H547      1.0  0.33289  0.72230  0.69860  1.0000
  C   C670      1.0  0.34596  0.49879  0.77788  1.0000
  H   H548      1.0  0.22647  0.70542  0.52657  1.0000
  C   C671      1.0  0.46128  0.59393  0.69350  1.0000
  C   C672      1.0  0.23871  0.51795  0.66316  1.0000
  C   C673      1.0  0.38780  0.56327  0.66882  1.0000
  C   C674      1.0  0.27851  0.53402  0.78455  1.0000
  C   C675      1.0  0.04493  0.67532  0.93888  1.0000
  H   H549      1.0  0.23079  0.51360  0.68882  1.0000
  H   H550      1.0  0.07221  0.67454  0.57016  1.0000
  C   C676      1.0  0.29702  0.71710  0.71544  1.0000
  C   C677      1.0  0.26852  0.54769  0.62388  1.0000
  H   H551      1.0  0.39601  0.58445  0.78567  1.0000
  H   H552      1.0  0.20718  0.49941  0.83068  1.0000
  C   C678      1.0  0.15031  0.49207  0.79795  1.0000
  C   C679      1.0  0.28843  0.53526  0.75163  1.0000
  C   C680      1.0  0.17017  0.52801  0.83886  1.0000
  H   H553      1.0  0.26580  0.55652  0.67787  1.0000
  H   H554      1.0  0.30701  0.48415  0.75742  1.0000
  C   C681      1.0  0.13583  0.71218  0.87118  1.0000
  C   C682      1.0  0.17840  0.56593  0.57170  1.0000
  C   C683      1.0  0.19275  0.55325  0.57035  1.0000
  C   C684      1.0  0.20625  0.55220  0.60045  1.0000
  C   C685      1.0  0.20547  0.56393  0.63193  1.0000
  C   C686      1.0  0.19069  0.57636  0.63358  1.0000
  C   C687      1.0  0.17730  0.57729  0.60321  1.0000
  P   P21       1.0  0.18751  0.58997  0.67438  1.0000
  C   C688      1.0  0.15387  0.57813  0.68001  1.0000
  C   C689      1.0  0.19964  0.57819  0.70959  1.0000
  C   C690      1.0  0.18610  0.55257  0.71790  1.0000
  C   C691      1.0  0.19614  0.54244  0.74281  1.0000
  C   C692      1.0  0.21960  0.55786  0.76013  1.0000
  C   C693      1.0  0.23335  0.58337  0.75190  1.0000
  C   C694      1.0  0.22361  0.59345  0.72634  1.0000
  C   C695      1.0  0.14508  0.59268  0.69816  1.0000
  C   C696      1.0  0.11908  0.58345  0.70201  1.0000
  C   C697      1.0  0.10158  0.55976  0.68749  1.0000
  C   C698      1.0  0.11008  0.54519  0.66929  1.0000
  C   C699      1.0  0.13607  0.55420  0.66578  1.0000
  C   C700      1.0  0.20372  0.62430  0.67413  1.0000
  C   C701      1.0  0.21105  0.63717  0.64255  1.0000
  C   C702      1.0  0.22266  0.66365  0.64257  1.0000
  C   C703      1.0  0.22723  0.67753  0.67407  1.0000
  C   C704      1.0  0.22025  0.66493  0.70560  1.0000
  C   C705      1.0  0.20844  0.63848  0.70565  1.0000
  H   H555      1.0  0.16771  0.56665  0.54851  1.0000
  H   H556      1.0  0.19326  0.54415  0.54601  1.0000
  H   H557      1.0  0.21705  0.54203  0.59944  1.0000
  H   H558      1.0  0.21603  0.56276  0.65485  1.0000
  H   H559      1.0  0.16569  0.58658  0.60415  1.0000
  H   H560      1.0  0.16818  0.54019  0.70419  1.0000
  H   H561      1.0  0.18592  0.52244  0.74810  1.0000
  H   H562      1.0  0.22725  0.54988  0.77948  1.0000
  H   H563      1.0  0.25179  0.59523  0.76486  1.0000
  H   H564      1.0  0.23510  0.61292  0.71923  1.0000
  H   H565      1.0  0.15798  0.61136  0.70882  1.0000
  H   H566      1.0  0.11246  0.59512  0.71522  1.0000
  H   H567      1.0  0.08141  0.55298  0.68960  1.0000
  H   H568      1.0  0.09649  0.52707  0.65727  1.0000
  H   H569      1.0  0.14212  0.54258  0.65138  1.0000
  H   H570      1.0  0.20764  0.62696  0.61775  1.0000
  H   H571      1.0  0.22790  0.67340  0.61806  1.0000
  H   H572      1.0  0.22356  0.67568  0.73001  1.0000
  H   H573      1.0  0.20267  0.62909  0.73027  1.0000
  C   C706      1.0  0.38849  0.55108  0.87416  1.0000
  S   S101      1.0  0.44978  0.51367  0.53262  1.0000
  H   H574      1.0  0.38628  0.54184  0.89911  1.0000
  C   C707      1.0  0.19193  0.71421  0.62759  1.0000
  C   C708      1.0  0.12273  0.69285  0.89437  1.0000
  S   S102      1.0  0.45190  0.58019  0.51983  1.0000
  H   H575      1.0  0.21756  0.71029  0.94522  1.0000
  C   C709      1.0  0.29383  0.49977  0.52302  1.0000
  C   C710      1.0  0.10314  0.71669  0.91761  1.0000
  Fe  Fe50      1.0  0.08962  0.50310  0.48418  1.0000
  H   H576      1.0  0.23596  0.69805  0.67405  1.0000
  S   S103      1.0  0.34863  0.49909  0.93957  1.0000
  C   C711      1.0  0.37512  0.54929  0.81260  1.0000
  H   H577      1.0  0.37036  0.51093  0.71720  1.0000
  H   H578      1.0  0.26678  0.53401  0.57124  1.0000
  H   H579      1.0  0.07138  0.60595  0.53508  1.0000
  C   C712      1.0  0.27533  0.49478  0.54742  1.0000
  C   C713      1.0  0.38377  0.53930  0.67841  1.0000
  H   H580      1.0  0.30311  0.50203  0.95945  1.0000
  H   H581      1.0  0.08037  0.68013  0.69412  1.0000
  C   C714      1.0  0.45477  0.49461  0.50024  1.0000
  C   C715      1.0  0.07721  0.49196  0.90498  1.0000
  C   C716      1.0  0.23963  0.72539  0.52549  1.0000
  C   C717      1.0  0.10563  0.69456  0.91691  1.0000
  C   C718      1.0  0.32492  0.53367  0.77906  1.0000
  H   H582      1.0  0.09277  0.67335  0.63618  1.0000
  C   C719      1.0  0.39362  0.57475  0.80998  1.0000
  H   H583      1.0  0.04785  0.57539  0.93987  1.0000
  C   C720      1.0  0.08179  0.62559  0.54427  1.0000
  C   C721      1.0  0.41648  0.65448  0.77831  1.0000
  H   H584      1.0  0.28676  0.69752  0.70616  1.0000
  C   C722      1.0  0.31140  0.53482  0.74879  1.0000
  C   C723      1.0  0.31464  0.53212  0.81200  1.0000
  H   H585      1.0  0.16991  0.54353  0.85327  1.0000
  C   C724      1.0  0.37135  0.56813  0.72371  1.0000
  C   C725      1.0  0.38165  0.57770  0.69148  1.0000
  H   H586      1.0  0.14854  0.71053  0.85320  1.0000
  H   H587      1.0  0.06914  0.49696  0.79053  1.0000
  C   C726      1.0  0.12845  0.72398  0.51554  1.0000
  S   S104      1.0  0.07425  0.53049  0.49416  1.0000
  C   C727      1.0  0.42215  0.67572  0.79970  1.0000
  H   H588      1.0  0.35842  0.51818  0.84819  1.0000
  C   C728      1.0  0.05247  0.59052  0.88813  1.0000
  C   C729      1.0  0.30002  0.49456  0.93275  1.0000
  H   H589      1.0  0.22058  0.51120  0.51100  1.0000
  H   H590      1.0  0.13744  0.71235  0.51085  1.0000
  H   H591      1.0  0.40884  0.68311  0.80072  1.0000
  P   P22       1.0  0.08787  0.66874  0.94528  1.0000
  H   H592      1.0  0.32395  0.53002  0.83565  1.0000
  H   H593      1.0  0.36589  0.57921  0.74041  1.0000
  H   H594      1.0  0.38445  0.59611  0.68359  1.0000
  C   C730      1.0  0.28705  0.49598  0.48714  1.0000
  C   C731      1.0  0.43420  0.64569  0.77562  1.0000
  H   H595      1.0  0.97663  0.54426  0.59203  1.0000
  C   C732      1.0  0.31882  0.49074  0.91739  1.0000
  H   H596      1.0  0.20609  0.53492  0.86326  1.0000
  H   H597      1.0  0.28099  0.49773  0.57511  1.0000
  H   H598      1.0  0.06664  0.61724  0.97037  1.0000
  C   C733      1.0  0.11532  0.50142  0.73711  1.0000
  C   C734      1.0  0.11505  0.71340  0.62597  1.0000
  C   C735      1.0  0.14142  0.49095  0.63307  1.0000
  C   C736      1.0  0.29422  0.49469  0.66119  1.0000
  H   H599      1.0  0.44241  0.59495  0.77601  1.0000
  C   C737      1.0  0.02294  0.67482  0.95089  1.0000
  C   C738      1.0  0.06547  0.61616  0.94194  1.0000
  P   P23       1.0  0.12604  0.70879  0.58444  1.0000
  C   C739      1.0  0.97506  0.48131  0.49850  1.0000
  C   C740      1.0  0.19119  0.50307  0.82659  1.0000
  C   C741      1.0  0.16632  0.70651  0.61939  1.0000
  H   H600      1.0  0.00924  0.48484  0.96087  1.0000
  H   H601      1.0  0.18298  0.51194  0.48375  1.0000
  C   C742      1.0  0.45134  0.71167  0.93370  1.0000
  C   C743      1.0  0.19943  0.48363  0.54955  1.0000
  H   H602      1.0  0.14042  0.48608  0.50760  1.0000
  C   C744      1.0  0.46029  0.67776  0.68448  1.0000
  C   C745      1.0  0.31437  0.48097  0.88259  1.0000
  P   P24       1.0  0.22636  0.48101  0.56779  1.0000
  H   H603      1.0  0.43988  0.49682  0.97418  1.0000
  H   H604      1.0  0.09099  0.71906  0.93584  1.0000
  H   H605      1.0  0.18093  0.71279  0.91709  1.0000
  C   C746      1.0  0.20816  0.71882  0.95962  1.0000
  C   C747      1.0  0.46550  0.64644  0.63234  1.0000
  C   C748      1.0  0.45350  0.60172  0.75303  1.0000
  C   C749      1.0  0.18748  0.72019  0.94374  1.0000
  H   H606      1.0  0.45615  0.58170  0.67016  1.0000
  H   H607      1.0  0.09612  0.72366  0.71888  1.0000
  S   S105      1.0  0.16470  0.72818  0.70499  1.0000
  C   C750      1.0  0.44547  0.68810  0.81862  1.0000
  C   C751      1.0  0.06277  0.48268  0.73732  1.0000
  C   C752      1.0  0.27322  0.47990  0.87824  1.0000
  C   C753      1.0  0.24305  0.48120  0.50012  1.0000
  H   H608      1.0  0.39936  0.72902  0.61066  1.0000
  H   H609      1.0  0.21361  0.48076  0.64147  1.0000
  H   H610      1.0  0.18503  0.63429  0.48231  1.0000
  H   H611      1.0  0.25898  0.72580  0.57463  1.0000
  C   C754      1.0  0.15499  0.64425  0.48280  1.0000
  H   H612      1.0  0.45016  0.70506  0.83434  1.0000
  C   C755      1.0  0.45769  0.65798  0.79466  1.0000
  C   C756      1.0  0.32152  0.47963  0.76733  1.0000
  C   C757      1.0  0.07378  0.47998  0.70704  1.0000
  C   C758      1.0  0.46319  0.67932  0.81608  1.0000
  C   C759      1.0  0.44981  0.48626  0.98067  1.0000
  Fe  Fe51      1.0  0.19616  0.78549  0.25091  1.0000
  S   S106      1.0  0.19212  0.75078  0.27795  1.0000
  S   S107      1.0  0.16711  0.80057  0.25603  1.0000
  Fe  Fe52      1.0  0.24825  0.79520  0.22053  1.0000
  S   S108      1.0  0.24675  0.76154  0.24769  1.0000
  S   S109      1.0  0.28417  0.82287  0.19242  1.0000
  C   C760      1.0  0.26010  0.73579  0.42179  1.0000
  Fe  Fe53      1.0  0.23367  0.77464  0.29436  1.0000
  S   S110      1.0  0.24413  0.77867  0.35312  1.0000
  S   S111      1.0  0.20731  0.77468  0.19936  1.0000
  S   S112      1.0  0.23733  0.80954  0.26870  1.0000
  Fe  Fe54      1.0  0.03043  0.83154  0.33895  1.0000
  S   S113      1.0  0.02661  0.79763  0.36788  1.0000
  S   S114      1.0  0.01833  0.82500  0.28055  1.0000
  Fe  Fe55      1.0  0.06198  0.86746  0.40141  1.0000
  S   S115      1.0  0.06031  0.83518  0.43279  1.0000
  S   S116      1.0  0.07875  0.90904  0.42056  1.0000
  Fe  Fe56      1.0  0.06850  0.82085  0.38180  1.0000
  S   S117      1.0  0.09509  0.80276  0.37695  1.0000
  Fe  Fe57      1.0  0.01854  0.81507  0.41528  1.0000
  H   H613      1.0  0.09950  0.92287  0.02080  1.0000
  S   S118      1.0  0.07260  0.85451  0.35182  1.0000
  S   S119      1.0  0.01994  0.84770  0.38526  1.0000
  C   C761      1.0  0.45918  0.84814  0.38096  1.0000
  H   H614      1.0  0.30750  0.91349  0.37604  1.0000
  S   S120      1.0  0.42244  0.81904  0.05270  1.0000
  C   C762      1.0  0.03573  0.75609  0.31197  1.0000
  Fe  Fe58      1.0  0.44247  0.89191  0.04918  1.0000
  S   S121      1.0  0.41020  0.86133  0.01606  1.0000
  C   C763      1.0  0.20457  0.73946  0.01278  1.0000
  Fe  Fe59      1.0  0.39886  0.83831  0.06522  1.0000
  S   S122      1.0  0.35804  0.81246  0.08260  1.0000
  Fe  Fe60      1.0  0.43703  0.84529  0.00744  1.0000
  S   S123      1.0  0.42964  0.86942  0.09919  1.0000
  C   C764      1.0  0.10771  0.96045  0.10354  1.0000
  H   H615      1.0  0.43586  0.89577  0.16660  1.0000
  H   H616      1.0  0.43467  0.79398  0.13624  1.0000
  H   H617      1.0  0.42957  0.75757  0.17210  1.0000
  C   C765      1.0  0.40844  0.79544  0.24503  1.0000
  C   C766      1.0  0.08842  0.97850  0.38003  1.0000
  C   C767      1.0  0.06705  0.75180  0.16150  1.0000
  C   C768      1.0  0.44718  0.80171  0.27655  1.0000
  C   C769      1.0  0.45557  0.88728  0.20835  1.0000
  C   C770      1.0  0.09806  0.92619  0.45835  1.0000
  H   H618      1.0  0.19807  0.80850  0.34449  1.0000
  C   C771      1.0  0.41279  0.74943  0.02765  1.0000
  C   C772      1.0  0.02300  0.76556  0.29048  1.0000
  C   C773      1.0  0.30554  0.81901  0.16431  1.0000
  C   C774      1.0  0.29975  0.79571  0.14821  1.0000
  C   C775      1.0  0.31605  0.79409  0.12358  1.0000
  C   C776      1.0  0.33885  0.81555  0.11534  1.0000
  C   C777      1.0  0.34509  0.83870  0.13236  1.0000
  C   C778      1.0  0.32843  0.84043  0.15628  1.0000
  H   H619      1.0  0.28243  0.77904  0.15415  1.0000
  H   H620      1.0  0.31085  0.77607  0.11064  1.0000
  H   H621      1.0  0.36239  0.85544  0.12632  1.0000
  H   H622      1.0  0.33317  0.85864  0.16823  1.0000
  C   C779      1.0  0.27434  0.79155  0.37569  1.0000
  C   C780      1.0  0.29567  0.79285  0.36021  1.0000
  C   C781      1.0  0.31867  0.80121  0.38036  1.0000
  C   C782      1.0  0.32072  0.80882  0.41594  1.0000
  C   C783      1.0  0.29948  0.80795  0.43118  1.0000
  C   C784      1.0  0.27642  0.79923  0.41113  1.0000
  H   H623      1.0  0.29425  0.78681  0.33305  1.0000
  H   H624      1.0  0.33498  0.80187  0.36829  1.0000
  H   H625      1.0  0.30085  0.81403  0.45833  1.0000
  H   H626      1.0  0.25999  0.79838  0.42301  1.0000
  C   C785      1.0  0.14690  0.80050  0.28993  1.0000
  C   C786      1.0  0.13501  0.81585  0.28665  1.0000
  C   C787      1.0  0.11902  0.81660  0.31258  1.0000
  C   C788      1.0  0.11460  0.80205  0.34256  1.0000
  C   C789      1.0  0.12638  0.78658  0.34578  1.0000
  C   C790      1.0  0.14225  0.78569  0.31973  1.0000
  H   H627      1.0  0.13836  0.82749  0.26397  1.0000
  H   H628      1.0  0.11025  0.82862  0.30950  1.0000
  H   H629      1.0  0.12316  0.77513  0.36864  1.0000
  H   H630      1.0  0.15092  0.77359  0.32275  1.0000
  C   C791      1.0  0.31387  0.94654  0.40597  1.0000
  H   H631      1.0  0.10792  0.76030  0.47114  1.0000
  H   H632      1.0  0.41916  0.75242  0.00111  1.0000
  C   C792      1.0  0.98851  0.81653  0.25875  1.0000
  C   C793      1.0  0.18785  0.76479  0.40460  1.0000
  H   H633      1.0  0.34606  0.78448  0.17674  1.0000
  H   H634      1.0  0.99830  0.80352  0.21178  1.0000
  C   C794      1.0  0.12688  0.87231  0.23170  1.0000
  C   C795      1.0  0.22858  0.87159  0.39950  1.0000
  C   C796      1.0  0.05410  0.77527  0.24623  1.0000
  H   H635      1.0  0.98061  0.75193  0.14773  1.0000
  H   H636      1.0  0.43348  0.75124  0.26703  1.0000
  C   C797      1.0  0.41811  0.74119  0.08863  1.0000
  S   S124      1.0  0.46430  0.74614  0.21207  1.0000
  H   H637      1.0  0.06821  0.74995  0.31806  1.0000
  C   C798      1.0  0.99583  0.80521  0.99770  1.0000
  C   C799      1.0  0.31621  0.86486  0.40101  1.0000
  C   C800      1.0  0.25092  0.83202  0.46589  1.0000
  H   H638      1.0  0.23557  0.82201  0.44645  1.0000
  C   C801      1.0  0.30389  0.85663  0.32890  1.0000
  C   C802      1.0  0.42057  0.79082  0.27395  1.0000
  H   H639      1.0  0.99935  0.89743  0.04658  1.0000
  H   H640      1.0  0.42883  0.77492  0.37420  1.0000
  H   H641      1.0  0.27122  0.86057  0.33967  1.0000
  C   C803      1.0  0.24568  0.78039  0.05854  1.0000
  H   H642      1.0  0.26053  0.77006  0.01384  1.0000
  H   H643      1.0  0.40113  0.85616  0.41187  1.0000
  H   H644      1.0  0.17524  0.83365  0.34951  1.0000
  C   C804      1.0  0.16076  0.77261  0.11264  1.0000
  H   H645      1.0  0.02931  0.89506  0.43253  1.0000
  H   H646      1.0  0.38790  0.78662  0.24284  1.0000
  H   H647      1.0  0.97318  0.82831  0.30077  1.0000
  C   C805      1.0  0.99945  0.76817  0.14958  1.0000
  H   H648      1.0  0.45704  0.79434  0.03779  1.0000
  H   H649      1.0  0.32132  0.86772  0.42882  1.0000
  C   C806      1.0  0.34396  0.79084  0.20251  1.0000
  C   C807      1.0  0.32328  0.77524  0.22208  1.0000
  C   C808      1.0  0.32017  0.78376  0.25481  1.0000
  C   C809      1.0  0.33775  0.80789  0.26802  1.0000
  C   C810      1.0  0.35865  0.82370  0.24852  1.0000
  C   C811      1.0  0.36140  0.81510  0.21541  1.0000
  P   P25       1.0  0.38016  0.85558  0.26457  1.0000
  C   C812      1.0  0.36614  0.87586  0.25526  1.0000
  C   C813      1.0  0.38707  0.85588  0.31126  1.0000
  C   C814      1.0  0.39452  0.87793  0.33212  1.0000
  C   C815      1.0  0.39990  0.87811  0.36817  1.0000
  C   C816      1.0  0.39775  0.85627  0.38371  1.0000
  C   C817      1.0  0.39075  0.83438  0.36312  1.0000
  C   C818      1.0  0.38575  0.83424  0.32697  1.0000
  C   C819      1.0  0.38156  0.90227  0.25510  1.0000
  C   C820      1.0  0.37092  0.91803  0.24731  1.0000
  C   C821      1.0  0.34485  0.90757  0.23936  1.0000
  C   C822      1.0  0.32942  0.88134  0.23923  1.0000
  C   C823      1.0  0.33996  0.86554  0.24718  1.0000
  C   C824      1.0  0.40969  0.86773  0.24262  1.0000
  C   C825      1.0  0.41158  0.87793  0.20919  1.0000
  H   H650      1.0  0.12511  0.96448  0.11827  1.0000
  H   H651      1.0  0.27151  0.74858  0.44316  1.0000
  H   H652      1.0  0.39048  0.74126  0.12301  1.0000
  H   H653      1.0  0.41353  0.81464  0.19605  1.0000
  H   H654      1.0  0.98334  0.83557  0.15297  1.0000
  H   H655      1.0  0.30381  0.77187  0.26963  1.0000
  H   H656      1.0  0.33468  0.81438  0.29307  1.0000
  H   H657      1.0  0.37665  0.82710  0.19908  1.0000
  H   H658      1.0  0.39610  0.89502  0.32085  1.0000
  H   H659      1.0  0.40535  0.89506  0.38429  1.0000
  H   H660      1.0  0.97206  0.85734  0.38660  1.0000
  H   H661      1.0  0.38073  0.81717  0.31148  1.0000
  H   H662      1.0  0.30854  0.88486  0.47883  1.0000
  H   H663      1.0  0.17318  0.78861  0.42457  1.0000
  H   H664      1.0  0.33661  0.91972  0.23288  1.0000
  H   H665      1.0  0.30925  0.87309  0.23233  1.0000
  H   H666      1.0  0.32752  0.84529  0.24624  1.0000
  H   H667      1.0  0.39530  0.87814  0.19604  1.0000
  C   C826      1.0  0.23369  0.73663  0.11600  1.0000
  H   H668      1.0  0.43002  0.85924  0.28418  1.0000
  C   C827      1.0  0.45439  0.73199  0.00145  1.0000
  H   H669      1.0  0.08453  0.76669  0.26091  1.0000
  S   S125      1.0  0.35030  0.81958  0.43984  1.0000
  H   H670      1.0  0.11522  0.82406  0.17408  1.0000
  C   C828      1.0  0.28808  0.80548  0.03724  1.0000
  C   C829      1.0  0.13042  0.85906  0.20402  1.0000
  C   C830      1.0  0.05775  0.75635  0.30083  1.0000
  H   H671      1.0  0.03309  0.82640  0.11563  1.0000
  C   C831      1.0  0.11311  0.91812  0.47759  1.0000
  H   H672      1.0  0.44850  0.92867  0.46980  1.0000
  C   C832      1.0  0.00645  0.89993  0.02045  1.0000
  C   C833      1.0  0.03006  0.90121  0.01468  1.0000
  S   S126      1.0  0.98579  0.78944  0.45020  1.0000
  P   P26       1.0  0.04930  0.89945  0.05109  1.0000
  C   C834      1.0  0.02888  0.87890  0.08366  1.0000
  C   C835      1.0  0.06898  0.88654  0.03539  1.0000
  C   C836      1.0  0.06057  0.86035  0.03546  1.0000
  C   C837      1.0  0.07614  0.85062  0.02381  1.0000
  C   C838      1.0  0.99614  0.84750  0.13371  1.0000
  H   H673      1.0  0.97321  0.89996  0.99683  1.0000
  H   H674      1.0  0.38293  0.93837  0.24709  1.0000
  C   C839      1.0  0.00635  0.85700  0.07303  1.0000
  C   C840      1.0  0.99003  0.84147  0.09797  1.0000
  H   H675      1.0  0.36690  0.75096  0.07595  1.0000
  C   C841      1.0  0.01875  0.86892  0.14460  1.0000
  C   C842      1.0  0.03508  0.88463  0.11971  1.0000
  H   H676      1.0  0.06937  0.83037  0.02336  1.0000
  C   C843      1.0  0.09290  0.90271  0.02256  1.0000
  H   H677      1.0  0.24150  0.75603  0.12559  1.0000
  C   C844      1.0  0.98399  0.80660  0.22408  1.0000
  H   H678      1.0  0.06246  0.93850  0.37459  1.0000
  H   H679      1.0  0.99019  0.78898  0.11114  1.0000
  C   C845      1.0  0.46081  0.95991  0.01550  1.0000
  H   H680      1.0  0.20362  0.74072  0.39163  1.0000
  H   H681      1.0  0.00659  0.76642  0.29955  1.0000
  C   C846      1.0  0.39651  0.74325  0.09629  1.0000
  C   C847      1.0  0.25178  0.79869  0.08572  1.0000
  H   H682      1.0  0.04192  0.84729  0.04395  1.0000
  H   H683      1.0  0.29297  0.74470  0.39207  1.0000
  C   C848      1.0  0.27249  0.73358  0.39269  1.0000
  C   C849      1.0  0.00481  0.78910  0.12903  1.0000
  C   C850      1.0  0.07557  0.95533  0.36141  1.0000
  H   H684      1.0  0.00130  0.85198  0.04541  1.0000
  H   H685      1.0  0.23677  0.88943  0.41413  1.0000
  C   C851      1.0  0.44278  0.83325  0.40629  1.0000
  H   H686      1.0  0.02348  0.87338  0.17242  1.0000
  H   H687      1.0  0.05233  0.90125  0.12878  1.0000
  Fe  Fe61      1.0  0.45333  0.85063  0.08561  1.0000
  C   C852      1.0  0.44835  0.77320  0.16898  1.0000
  H   H688      1.0  0.29885  0.85299  0.30105  1.0000
  C   C853      1.0  0.38319  0.74862  0.06977  1.0000
  C   C854      1.0  0.46514  0.83670  0.35333  1.0000
  H   H689      1.0  0.14873  0.77827  0.12648  1.0000
  C   C855      1.0  0.28795  0.86045  0.35115  1.0000
  C   C856      1.0  0.18511  0.77199  0.46639  1.0000
  C   C857      1.0  0.44928  0.82253  0.22156  1.0000
  H   H690      1.0  0.46038  0.83483  0.20117  1.0000
  H   H691      1.0  0.28017  0.83413  0.10943  1.0000
  H   H692      1.0  0.38879  0.81740  0.37545  1.0000
  H   H693      1.0  0.17310  0.80337  0.07697  1.0000
  H   H694      1.0  0.41898  0.79537  0.42312  1.0000
  C   C858      1.0  0.01828  0.76822  0.17255  1.0000
  H   H695      1.0  0.99048  0.89938  0.42968  1.0000
  H   H696      1.0  0.30934  0.75677  0.21150  1.0000
  C   C859      1.0  0.19302  0.75875  0.07802  1.0000
  C   C860      1.0  0.27201  0.85515  0.45833  1.0000
  C   C861      1.0  0.43198  0.80689  0.40367  1.0000
  C   C862      1.0  0.10851  0.89294  0.01131  1.0000
  H   H697      1.0  0.97804  0.74406  0.34968  1.0000
  C   C863      1.0  0.18123  0.77631  0.43126  1.0000
  C   C864      1.0  0.09936  0.94947  0.46809  1.0000
  P   P27       1.0  0.21555  0.75147  0.05748  1.0000
  C   C865      1.0  0.10519  0.77570  0.19853  1.0000
  H   H698      1.0  0.40186  0.91069  0.26070  1.0000
  C   C866      1.0  0.24180  0.85765  0.39666  1.0000
  H   H699      1.0  0.12679  0.90555  0.00101  1.0000
  C   C867      1.0  0.20454  0.86273  0.38286  1.0000
  C   C868      1.0  0.19358  0.84005  0.36307  1.0000
  C   C869      1.0  0.20639  0.82587  0.36046  1.0000
  C   C870      1.0  0.23021  0.83438  0.37769  1.0000
  C   C871      1.0  0.19847  0.74911  0.41292  1.0000
  H   H700      1.0  0.31692  0.97627  0.44113  1.0000
  C   C872      1.0  0.26417  0.78394  0.03445  1.0000
  P   P28       1.0  0.27353  0.86967  0.41647  1.0000
  H   H701      1.0  0.33820  0.85382  0.32552  1.0000
  Fe  Fe62      1.0  0.20539  0.74117  0.22803  1.0000
  C   C873      1.0  0.99630  0.89398  0.45394  1.0000
  H   H702      1.0  0.19447  0.87362  0.38479  1.0000
  C   C874      1.0  0.29372  0.82372  0.06394  1.0000
  C   C875      1.0  0.19071  0.77998  0.06764  1.0000
  H   H703      1.0  0.08756  0.95573  0.45384  1.0000
  H   H704      1.0  0.11242  0.90032  0.47046  1.0000
  H   H705      1.0  0.40924  0.77852  0.29414  1.0000
  C   C876      1.0  0.09070  0.82179  0.21571  1.0000
  C   C877      1.0  0.04264  0.78936  0.17537  1.0000
  H   H706      1.0  0.13334  0.76317  0.19709  1.0000
  H   H707      1.0  0.23984  0.82309  0.37544  1.0000
  C   C878      1.0  0.45118  0.79385  0.14849  1.0000
  C   C879      1.0  0.11227  0.83396  0.19578  1.0000
  H   H708      1.0  0.14732  0.86819  0.18908  1.0000
  H   H709      1.0  0.04663  0.94724  0.04845  1.0000
  C   C880      1.0  0.03220  0.77527  0.25791  1.0000
  C   C881      1.0  0.08001  0.95368  0.32605  1.0000
  C   C882      1.0  0.45073  0.76242  0.31974  1.0000
  C   C883      1.0  0.04785  0.81034  0.15460  1.0000
  C   C884      1.0  0.33237  0.86158  0.37857  1.0000
  C   C885      1.0  0.06696  0.76593  0.26817  1.0000
  C   C886      1.0  0.06940  0.93085  0.06992  1.0000
  C   C887      1.0  0.43783  0.79538  0.37601  1.0000
  C   C888      1.0  0.97273  0.80391  0.00726  1.0000
  H   H710      1.0  0.01378  0.75180  0.18822  1.0000
  H   H711      1.0  0.38113  0.75609  0.01505  1.0000
  P   P29       1.0  0.45612  0.74494  0.04506  1.0000
  H   H712      1.0  0.07008  0.82684  0.25797  1.0000
  H   H713      1.0  0.34930  0.86147  0.38941  1.0000
  H   H714      1.0  0.07020  0.93560  0.31181  1.0000
  H   H715      1.0  0.14102  0.89167  0.23827  1.0000
  C   C889      1.0  0.43448  0.88779  0.19229  1.0000
  H   H716      1.0  0.02266  0.78361  0.24261  1.0000
  C   C890      1.0  0.99168  0.90165  0.99237  1.0000
  P   P30       1.0  0.06701  0.78949  0.20520  1.0000
  H   H717      1.0  0.09656  0.92111  0.09488  1.0000
  C   C891      1.0  0.20275  0.74491  0.44809  1.0000
  S   S127      1.0  0.45135  0.93427  0.04582  1.0000
  C   C892      1.0  0.08100  0.77149  0.18639  1.0000
  H   H718      1.0  0.11627  0.79048  0.21808  1.0000
  C   C893      1.0  0.29250  0.93930  0.46055  1.0000
  C   C894      1.0  0.42656  0.74450  0.05430  1.0000
  H   H719      1.0  0.30254  0.80784  0.01923  1.0000
  C   C895      1.0  0.08692  0.83548  0.24280  1.0000
  C   C896      1.0  0.10504  0.86057  0.25090  1.0000
  C   C897      1.0  0.02901  0.81016  0.13153  1.0000
  C   C898      1.0  0.42280  0.81120  0.21873  1.0000
  H   H720      1.0  0.25556  0.77705  0.47557  1.0000
  H   H721      1.0  0.42844  0.73762  0.10977  1.0000
  H   H722      1.0  0.11207  0.85935  0.00240  1.0000
  H   H723      1.0  0.00256  0.79353  0.01092  1.0000
  H   H724      1.0  0.06641  0.82689  0.15617  1.0000
  H   H725      1.0  0.10212  0.87078  0.27228  1.0000
  C   C899      1.0  0.27552  0.82038  0.08803  1.0000
  C   C900      1.0  0.09155  0.93596  0.09007  1.0000
  C   C901      1.0  0.19574  0.75628  0.47479  1.0000
  H   H726      1.0  0.18507  0.76816  0.37727  1.0000
  C   C902      1.0  0.07693  0.73635  0.14950  1.0000
  H   H727      1.0  0.32632  0.95949  0.38719  1.0000
  C   C903      1.0  0.01839  0.89169  0.45563  1.0000
  C   C904      1.0  0.11494  0.76012  0.18668  1.0000
  H   H728      1.0  0.10042  0.97406  0.28168  1.0000
  C   C905      1.0  0.10019  0.86692  0.01204  1.0000
  H   H729      1.0  0.23855  0.79608  0.10583  1.0000
  C   C906      1.0  0.10074  0.74034  0.16234  1.0000
  H   H730      1.0  0.02907  0.74936  0.33773  1.0000
  C   C907      1.0  0.45387  0.87720  0.24163  1.0000
  C   C908      1.0  0.43099  0.86731  0.25868  1.0000
  H   H731      1.0  0.43823  0.84209  0.42784  1.0000
  C   C909      1.0  0.06341  0.95050  0.06408  1.0000
  C   C910      1.0  0.17455  0.78679  0.08480  1.0000
  C   C911      1.0  0.29366  0.86399  0.38758  1.0000
  C   C912      1.0  0.96990  0.82057  0.27421  1.0000
  H   H732      1.0  0.20176  0.79150  0.04663  1.0000
  H   H733      1.0  0.31247  0.84006  0.06662  1.0000
  C   C913      1.0  0.17886  0.74441  0.10576  1.0000
  H   H734      1.0  0.97257  0.82472  0.08956  1.0000
  H   H735      1.0  0.17350  0.74850  0.01030  1.0000
  C   C914      1.0  0.30319  0.92039  0.39979  1.0000
  C   C915      1.0  0.28722  0.90348  0.42415  1.0000
  C   C916      1.0  0.16292  0.75144  0.12305  1.0000
  H   H736      1.0  0.12921  0.73422  0.46134  1.0000
  C   C917      1.0  0.32609  0.85718  0.34262  1.0000
  H   H737      1.0  0.15277  0.74082  0.14519  1.0000
  C   C918      1.0  0.39123  0.75151  0.03542  1.0000
  C   C919      1.0  0.45492  0.81026  0.35105  1.0000
  C   C920      1.0  0.46148  0.81786  0.25030  1.0000
  C   C921      1.0  0.28181  0.91314  0.45449  1.0000
  P   P31       1.0  0.46235  0.79591  0.31460  1.0000
  C   C922      1.0  0.30857  0.95600  0.43635  1.0000
  C   C923      1.0  0.43769  0.74505  0.29181  1.0000
  C   C924      1.0  0.18363  0.74056  0.99660  1.0000
  C   C925      1.0  0.45401  0.94840  0.47487  1.0000
  C   C926      1.0  0.45762  0.75393  0.35041  1.0000
  H   H738      1.0  0.04833  0.74793  0.15178  1.0000
  H   H739      1.0  0.26930  0.90046  0.47344  1.0000
  C   C927      1.0  0.07953  0.97490  0.07784  1.0000
  H   H740      1.0  0.97252  0.83067  0.46083  1.0000
  C   C928      1.0  0.09715  0.97532  0.30920  1.0000
  Fe  Fe63      1.0  0.15580  0.73689  0.75943  1.0000
  S   S128      1.0  0.35348  0.86642  0.51865  1.0000
  Fe  Fe64      1.0  0.39433  0.83867  0.56192  1.0000
  S   S129      1.0  0.38799  0.86886  0.58837  1.0000
  S   S130      1.0  0.41485  0.81705  0.58267  1.0000
  Fe  Fe65      1.0  0.34683  0.84479  0.56923  1.0000
  S   S131      1.0  0.31100  0.83519  0.60053  1.0000
  Fe  Fe66      1.0  0.39539  0.88789  0.53529  1.0000
  S   S132      1.0  0.41887  0.93182  0.52892  1.0000
  S   S133      1.0  0.35298  0.81408  0.54494  1.0000
  S   S134      1.0  0.40380  0.85871  0.51032  1.0000
  S   S135      1.0  0.44742  0.84074  0.95143  1.0000
  C   C929      1.0  0.45481  0.80037  0.65763  1.0000
  H   H741      1.0  0.02748  0.82132  0.96332  1.0000
  H   H742      1.0  0.29029  0.77140  0.57276  1.0000
  S   S136      1.0  0.23933  0.74682  0.70280  1.0000
  H   H743      1.0  0.14204  0.92756  0.51916  1.0000
  S   S137      1.0  0.13624  0.76220  0.76579  1.0000
  S   S138      1.0  0.19316  0.74243  0.78399  1.0000
  Fe  Fe67      1.0  0.05756  0.87181  0.89436  1.0000
  S   S139      1.0  0.09154  0.87461  0.92548  1.0000
  S   S140      1.0  0.01672  0.85366  0.91469  1.0000
  Fe  Fe68      1.0  0.09165  0.90448  0.83461  1.0000
  S   S141      1.0  0.12678  0.90881  0.86409  1.0000
  S   S142      1.0  0.09716  0.91859  0.77765  1.0000
  Fe  Fe69      1.0  0.10477  0.86695  0.87382  1.0000
  S   S143      1.0  0.12503  0.84220  0.86951  1.0000
  Fe  Fe70      1.0  0.11032  0.91606  0.91243  1.0000
  S   S144      1.0  0.13710  0.94888  0.95048  1.0000
  S   S145      1.0  0.06973  0.86213  0.84311  1.0000
  S   S146      1.0  0.07615  0.91376  0.88256  1.0000
  C   C930      1.0  0.13357  0.78453  0.79512  1.0000
  C   C931      1.0  0.14941  0.79514  0.82543  1.0000
  C   C932      1.0  0.14630  0.81240  0.84774  1.0000
  C   C933      1.0  0.12755  0.81979  0.84017  1.0000
  C   C934      1.0  0.11190  0.80942  0.80963  1.0000
  C   C935      1.0  0.11492  0.79204  0.78741  1.0000
  H   H744      1.0  0.16429  0.79028  0.83156  1.0000
  H   H745      1.0  0.15873  0.82032  0.87098  1.0000
  H   H746      1.0  0.09740  0.81476  0.80314  1.0000
  H   H747      1.0  0.10257  0.78424  0.76409  1.0000
  C   C936      1.0  0.10857  0.94845  0.75681  1.0000
  C   C937      1.0  0.11862  0.95114  0.72337  1.0000
  C   C938      1.0  0.41099  0.77277  0.82236  1.0000
  H   H748      1.0  0.12032  0.93566  0.71161  1.0000
  H   H749      1.0  0.97809  0.87912  0.53723  1.0000
  H   H750      1.0  0.39083  0.73919  0.71974  1.0000
  H   H751      1.0  0.09303  0.95676  0.96358  1.0000
  H   H752      1.0  0.44010  0.79041  0.96973  1.0000
  C   C939      1.0  0.37729  0.80683  0.70648  1.0000
  C   C940      1.0  0.44263  0.95495  0.50171  1.0000
  S   S147      1.0  0.15482  0.97692  0.54738  1.0000
  C   C941      1.0  0.45220  0.84822  0.79992  1.0000
  H   H753      1.0  0.42357  0.86842  0.71578  1.0000
  H   H754      1.0  0.37095  0.77919  0.64132  1.0000
  C   C942      1.0  0.02643  0.88514  0.48693  1.0000
  C   C943      1.0  0.46471  0.82371  0.89698  1.0000
  C   C944      1.0  0.16777  0.96569  0.81092  1.0000
  C   C945      1.0  0.29124  0.81033  0.62880  1.0000
  C   C946      1.0  0.29673  0.79106  0.63895  1.0000
  C   C947      1.0  0.28071  0.77196  0.66142  1.0000
  C   C948      1.0  0.25884  0.77170  0.67438  1.0000
  C   C949      1.0  0.25315  0.79082  0.66393  1.0000
  C   C950      1.0  0.26924  0.80995  0.64145  1.0000
  H   H755      1.0  0.31327  0.79076  0.62917  1.0000
  H   H756      1.0  0.28530  0.75721  0.66866  1.0000
  H   H757      1.0  0.23643  0.79099  0.67332  1.0000
  H   H758      1.0  0.26465  0.82467  0.63395  1.0000
  C   C951      1.0  0.43291  0.81869  0.62195  1.0000
  C   C952      1.0  0.43901  0.83721  0.64848  1.0000
  C   C953      1.0  0.04661  0.90127  0.58020  1.0000
  C   C954      1.0  0.44130  0.80058  0.62657  1.0000
  H   H759      1.0  0.43306  0.85149  0.64512  1.0000
  C   C955      1.0  0.39595  0.73230  0.66628  1.0000
  H   H760      1.0  0.09927  0.96739  0.79728  1.0000
  H   H761      1.0  0.22539  0.95624  0.83975  1.0000
  C   C956      1.0  0.45430  0.81831  0.93023  1.0000
  C   C957      1.0  0.02732  0.83463  0.52132  1.0000
  C   C958      1.0  0.24948  0.82158  0.49892  1.0000
  C   C959      1.0  0.13184  0.95734  0.51412  1.0000
  C   C960      1.0  0.10855  0.74056  0.55455  1.0000
  H   H762      1.0  0.11397  0.75285  0.89421  1.0000
  H   H763      1.0  0.38288  0.75874  0.59524  1.0000
  C   C961      1.0  0.00132  0.83567  0.95216  1.0000
  C   C962      1.0  0.36429  0.85271  0.77174  1.0000
  C   C963      1.0  0.33925  0.83427  0.77620  1.0000
  C   C964      1.0  0.33288  0.82108  0.80738  1.0000
  C   C965      1.0  0.35153  0.82634  0.83413  1.0000
  C   C966      1.0  0.37682  0.84474  0.82974  1.0000
  C   C967      1.0  0.38303  0.85795  0.79834  1.0000
  P   P32       1.0  0.40100  0.85233  0.86451  1.0000
  H   H764      1.0  0.42843  0.90855  0.97066  1.0000
  C   C968      1.0  0.43025  0.85794  0.84509  1.0000
  H   H765      1.0  0.14871  0.97627  0.88217  1.0000
  C   C969      1.0  0.98752  0.86896  0.60707  1.0000
  C   C970      1.0  0.06281  0.92232  0.56107  1.0000
  H   H766      1.0  0.33316  0.78733  0.74813  1.0000
  C   C971      1.0  0.42964  0.84348  0.81550  1.0000
  C   C972      1.0  0.32315  0.73126  0.71104  1.0000
  C   C973      1.0  0.97854  0.83482  0.96234  1.0000
  C   C974      1.0  0.41428  0.92333  0.92930  1.0000
  C   C975      1.0  0.38884  0.85542  0.68410  1.0000
  C   C976      1.0  0.40604  0.88019  0.88961  1.0000
  C   C977      1.0  0.27434  0.77708  0.52452  1.0000
  C   C978      1.0  0.37744  0.76584  0.64884  1.0000
  H   H767      1.0  0.03856  0.88611  0.63214  1.0000
  C   C979      1.0  0.25801  0.73688  0.55296  1.0000
  C   C980      1.0  0.41667  0.88434  0.92409  1.0000
  H   H768      1.0  0.36913  0.86305  0.74767  1.0000
  H   H769      1.0  0.32476  0.83024  0.75550  1.0000
  H   H770      1.0  0.31339  0.80688  0.81090  1.0000
  H   H771      1.0  0.09971  0.96208  0.62846  1.0000
  H   H772      1.0  0.40234  0.87243  0.79450  1.0000
  S   S148      1.0  0.45892  0.75427  0.76438  1.0000
  H   H773      1.0  0.10668  0.96955  0.89779  1.0000
  H   H774      1.0  0.13815  0.75421  0.62701  1.0000
  C   C981      1.0  0.20398  0.74615  0.58359  1.0000
  H   H775      1.0  0.41178  0.82841  0.80464  1.0000
  C   C982      1.0  0.37988  0.76080  0.68425  1.0000
  H   H776      1.0  0.43713  0.78643  0.60602  1.0000
  H   H777      1.0  0.99909  0.88916  0.61180  1.0000
  H   H778      1.0  0.01288  0.83389  0.50265  1.0000
  H   H779      1.0  0.39356  0.87405  0.67471  1.0000
  H   H780      1.0  0.07785  0.83479  0.58810  1.0000
  C   C983      1.0  0.38483  0.76412  0.82095  1.0000
  C   C984      1.0  0.45314  0.83743  0.67920  1.0000
  H   H781      1.0  0.13459  0.97544  0.67941  1.0000
  P   P33       1.0  0.37027  0.77512  0.71833  1.0000
  C   C985      1.0  0.01010  0.82106  0.97064  1.0000
  H   H782      1.0  0.36940  0.77031  0.95774  1.0000
  C   C986      1.0  0.39075  0.82605  0.89369  1.0000
  H   H783      1.0  0.06016  0.86380  0.59765  1.0000
  C   C987      1.0  0.40393  0.91953  0.89489  1.0000
  C   C988      1.0  0.39974  0.89801  0.87509  1.0000
  H   H784      1.0  0.26800  0.82592  0.55014  1.0000
  C   C989      1.0  0.13068  0.83458  0.59604  1.0000
  C   C990      1.0  0.12260  0.81007  0.60781  1.0000
  C   C991      1.0  0.11198  0.80339  0.64054  1.0000
  C   C992      1.0  0.10937  0.82118  0.66147  1.0000
  C   C993      1.0  0.11717  0.84577  0.64969  1.0000
  C   C994      1.0  0.12812  0.85244  0.61692  1.0000
  P   P34       1.0  0.11342  0.86828  0.67737  1.0000
  C   C995      1.0  0.12943  0.89972  0.66012  1.0000
  C   C996      1.0  0.08021  0.85984  0.67963  1.0000
  C   C997      1.0  0.07350  0.87668  0.69596  1.0000
  C   C998      1.0  0.04800  0.87044  0.69847  1.0000
  C   C999      1.0  0.02890  0.84761  0.68360  1.0000
  C   C1000     1.0  0.03536  0.83095  0.66651  1.0000
  C   C1001     1.0  0.06088  0.83690  0.66472  1.0000
  C   C1002     1.0  0.15131  0.91913  0.67745  1.0000
  C   C1003     1.0  0.16345  0.94328  0.66348  1.0000
  C   C1004     1.0  0.15401  0.94817  0.63209  1.0000
  C   C1005     1.0  0.13224  0.92902  0.61484  1.0000
  C   C1006     1.0  0.11982  0.90499  0.62896  1.0000
  C   C1007     1.0  0.12786  0.86838  0.71994  1.0000
  C   C1008     1.0  0.15058  0.86687  0.72194  1.0000
  C   C1009     1.0  0.16217  0.86707  0.75457  1.0000
  C   C1010     1.0  0.15132  0.86901  0.78538  1.0000
  C   C1011     1.0  0.12879  0.87055  0.78360  1.0000
  C   C1012     1.0  0.11703  0.87022  0.75110  1.0000
  H   H785      1.0  0.13914  0.83986  0.57079  1.0000
  H   H786      1.0  0.12481  0.79635  0.59172  1.0000
  H   H787      1.0  0.10591  0.78448  0.64992  1.0000
  H   H788      1.0  0.10133  0.81580  0.68699  1.0000
  H   H789      1.0  0.13488  0.87136  0.60737  1.0000
  H   H790      1.0  0.08799  0.89445  0.70756  1.0000
  H   H791      1.0  0.04316  0.88334  0.71221  1.0000
  H   H792      1.0  0.00911  0.84281  0.68545  1.0000
  H   H793      1.0  0.02053  0.81326  0.65493  1.0000
  H   H794      1.0  0.06526  0.82353  0.65166  1.0000
  H   H795      1.0  0.15894  0.91594  0.70191  1.0000
  H   H796      1.0  0.18016  0.95831  0.67703  1.0000
  C   C1013     1.0  0.36713  0.80387  0.94398  1.0000
  H   H797      1.0  0.12507  0.93289  0.59038  1.0000
  H   H798      1.0  0.10297  0.89045  0.61524  1.0000
  H   H799      1.0  0.15935  0.86549  0.69832  1.0000
  H   H800      1.0  0.17940  0.86540  0.75606  1.0000
  H   H801      1.0  0.16004  0.86882  0.81077  1.0000
  H   H802      1.0  0.12015  0.87150  0.80758  1.0000
  H   H803      1.0  0.09955  0.87130  0.75081  1.0000
  H   H804      1.0  0.45499  0.88802  0.88227  1.0000
  C   C1014     1.0  0.36611  0.83446  0.67239  1.0000
  C   C1015     1.0  0.08176  0.94416  0.57852  1.0000
  C   C1016     1.0  0.18877  0.93982  0.81214  1.0000
  C   C1017     1.0  0.03600  0.85188  0.55012  1.0000
  C   C1018     1.0  0.12458  0.73797  0.64066  1.0000
  C   C1019     1.0  0.38404  0.75406  0.62243  1.0000
  H   H805      1.0  0.39919  0.93333  0.88362  1.0000
  H   H806      1.0  0.41763  0.94002  0.94471  1.0000
  C   C1020     1.0  0.06928  0.92415  0.63429  1.0000
  H   H807      1.0  0.34305  0.79418  0.67345  1.0000
  C   C1021     1.0  0.42491  0.78314  0.79281  1.0000
  H   H808      1.0  0.35548  0.80278  0.96563  1.0000
  H   H809      1.0  0.35314  0.83686  0.65409  1.0000
  P   P35       1.0  0.02246  0.87260  0.55780  1.0000
  C   C1022     1.0  0.10699  0.96905  0.77169  1.0000
  H   H810      1.0  0.06301  0.80512  0.53631  1.0000
  C   C1023     1.0  0.44826  0.79483  0.94434  1.0000
  H   H811      1.0  0.42357  0.79120  0.73831  1.0000
  C   C1024     1.0  0.97826  0.82997  0.57576  1.0000
  C   C1025     1.0  0.37499  0.78558  0.93958  1.0000
  C   C1026     1.0  0.05027  0.90229  0.61694  1.0000
  C   C1027     1.0  0.37251  0.76559  0.78987  1.0000
  H   H812      1.0  0.09416  0.76387  0.53044  1.0000
  C   C1028     1.0  0.11606  0.96494  0.49579  1.0000
  H   H813      1.0  0.03019  0.80448  0.49435  1.0000
  H   H814      1.0  0.44643  0.75846  0.93568  1.0000
  C   C1029     1.0  0.08490  0.94514  0.61508  1.0000
  H   H815      1.0  0.23325  0.80385  0.50477  1.0000
  C   C1030     1.0  0.36042  0.81029  0.68345  1.0000
  C   C1031     1.0  0.46092  0.81888  0.68413  1.0000
  H   H816      1.0  0.12534  0.76049  0.68573  1.0000
  C   C1032     1.0  0.39850  0.80758  0.88947  1.0000
  C   C1033     1.0  0.38627  0.77537  0.75967  1.0000
  H   H817      1.0  0.41374  0.82602  0.73521  1.0000
  C   C1034     1.0  0.39055  0.78736  0.91224  1.0000
  H   H818      1.0  0.44530  0.79026  0.79412  1.0000
  H   H819      1.0  0.10161  0.74171  0.57988  1.0000
  C   C1035     1.0  0.02446  0.90746  0.95279  1.0000
  C   C1036     1.0  0.40000  0.82804  0.71833  1.0000
  H   H820      1.0  0.98252  0.81961  0.55609  1.0000
  Fe  Fe71      1.0  0.36175  0.83666  0.49584  1.0000
  H   H821      1.0  0.04384  0.88377  0.48767  1.0000
  H   H822      1.0  0.15205  0.92850  0.78651  1.0000
  H   H823      1.0  0.14218  0.74820  0.85225  1.0000
  C   C1037     1.0  0.40568  0.85224  0.70729  1.0000
  H   H824      1.0  0.42049  0.77141  0.84633  1.0000
  H   H825      1.0  0.28689  0.76225  0.75503  1.0000
  C   C1038     1.0  0.41258  0.78404  0.76140  1.0000
  C   C1039     1.0  0.06382  0.83482  0.56945  1.0000
  C   C1040     1.0  0.98970  0.88268  0.51480  1.0000
  C   C1041     1.0  0.12997  0.93368  0.50516  1.0000
  H   H826      1.0  0.19873  0.75313  0.50205  1.0000
  H   H827      1.0  0.06114  0.92200  0.53269  1.0000
  H   H828      1.0  0.34606  0.81605  0.85814  1.0000
  H   H829      1.0  0.05731  0.90664  0.97541  1.0000
  C   C1042     1.0  0.11173  0.75092  0.49299  1.0000
  C   C1043     1.0  0.29718  0.75356  0.74328  1.0000
  C   C1044     1.0  0.03702  0.81780  0.51659  1.0000
  C   C1045     1.0  0.29023  0.85673  0.51706  1.0000
  C   C1046     1.0  0.39347  0.73746  0.63113  1.0000
  H   H830      1.0  0.97150  0.84606  0.94863  1.0000
  C   C1047     1.0  0.45379  0.87698  0.85901  1.0000
  H   H831      1.0  0.18877  0.92227  0.80537  1.0000
  C   C1048     1.0  0.17519  0.73099  0.96226  1.0000
  H   H832      1.0  0.07206  0.92489  0.66264  1.0000
  C   C1049     1.0  0.27553  0.76262  0.55220  1.0000
  C   C1050     1.0  0.12378  0.73628  0.48749  1.0000
  C   C1051     1.0  0.26905  0.83398  0.52452  1.0000
  C   C1052     1.0  0.23877  0.73967  0.49698  1.0000
  C   C1053     1.0  0.21074  0.73394  0.60961  1.0000
  H   H833      1.0  0.35222  0.75855  0.78954  1.0000
  H   H834      1.0  0.30543  0.86620  0.53703  1.0000
  H   H835      1.0  0.21875  0.76184  0.57039  1.0000
  H   H836      1.0  0.45182  0.83707  0.77715  1.0000
  C   C1054     1.0  0.99465  0.85584  0.58309  1.0000
  C   C1055     1.0  0.01214  0.88063  0.51688  1.0000
  C   C1056     1.0  0.42050  0.90566  0.94390  1.0000
  H   H837      1.0  0.37406  0.75611  0.84393  1.0000
  C   C1057     1.0  0.00065  0.90531  0.95851  1.0000
  C   C1058     1.0  0.05393  0.85145  0.57455  1.0000
  C   C1059     1.0  0.33641  0.75674  0.72268  1.0000
  H   H838      1.0  0.17353  0.74882  0.55609  1.0000
  C   C1060     1.0  0.32324  0.76776  0.73890  1.0000
  H   H839      1.0  0.03123  0.90983  0.92645  1.0000
  C   C1061     1.0  0.17833  0.73858  0.57545  1.0000
  H   H840      1.0  0.39729  0.77364  0.90945  1.0000
  H   H841      1.0  0.36861  0.83798  0.92491  1.0000
  H   H842      1.0  0.41144  0.80922  0.86951  1.0000
  H   H843      1.0  0.98909  0.90623  0.93661  1.0000
  C   C1062     1.0  0.37480  0.82392  0.92098  1.0000
  C   C1063     1.0  0.16810  0.94330  0.80153  1.0000
  H   H844      1.0  0.42210  0.87112  0.93573  1.0000
  H   H845      1.0  0.39166  0.89544  0.84859  1.0000
  C   C1064     1.0  0.05543  0.81806  0.54038  1.0000
  C   C1065     1.0  0.20934  0.95895  0.83163  1.0000
  C   C1066     1.0  0.12680  0.97381  0.70495  1.0000
  H   H846      1.0  0.46078  0.78608  0.66079  1.0000
  H   H847      1.0  0.16354  0.96682  0.62107  1.0000
  Fe  Fe72      1.0  0.20101  0.73187  0.73018  1.0000
  H   H848      1.0  0.23058  0.74017  0.61649  1.0000
  H   H849      1.0  0.09428  0.96031  0.56366  1.0000
  C   C1067     1.0  0.45197  0.77680  0.92494  1.0000
  C   C1068     1.0  0.98183  0.88929  0.48345  1.0000
  H   H850      1.0  0.28817  0.79701  0.52394  1.0000
  H   H851      1.0  0.45805  0.85205  0.69928  1.0000
  C   C1069     1.0  0.38894  0.74369  0.69274  1.0000
  C   C1070     1.0  0.13239  0.73357  0.87084  1.0000
  C   C1071     1.0  0.13304  0.97182  0.97583  1.0000
  C   C1072     1.0  0.10406  0.75300  0.52647  1.0000
  C   C1073     1.0  0.10957  0.97143  0.97776  1.0000
  H   H852      1.0  0.15154  0.96798  0.80264  1.0000
  C   C1074     1.0  0.11632  0.73602  0.89435  1.0000
  H   H853      1.0  0.17994  0.78092  0.48706  1.0000
  H   H854      1.0  0.15905  0.73190  0.94994  1.0000
  C   C1075     1.0  0.11737  0.74164  0.67379  1.0000
  C   C1076     1.0  0.25591  0.76571  0.49719  1.0000
  C   C1077     1.0  0.46237  0.78223  0.89162  1.0000
  C   C1078     1.0  0.29187  0.86720  0.48405  1.0000
  S   S149      1.0  0.46637  0.75875  0.86781  1.0000
  C   C1079     1.0  0.03913  0.90538  0.98069  1.0000
  H   H855      1.0  0.28835  0.94663  0.48408  1.0000
  Fe  Fe73      1.0  0.56592  0.10988  0.46669  1.0000
  S   S150      1.0  0.57248  0.07992  0.44084  1.0000
  Fe  Fe74      1.0  0.53244  0.11022  0.40272  1.0000
  S   S151      1.0  0.53699  0.07981  0.37369  1.0000
  S   S152      1.0  0.51553  0.13517  0.38244  1.0000
  Fe  Fe75      1.0  0.53013  0.06011  0.42634  1.0000
  S   S153      1.0  0.50480  0.01657  0.43374  1.0000
  Fe  Fe76      1.0  0.57866  0.10248  0.39117  1.0000
  S   S154      1.0  0.61581  0.11600  0.36126  1.0000
  S   S155      1.0  0.52355  0.08968  0.45384  1.0000
  S   S156      1.0  0.57409  0.13320  0.41860  1.0000
  S   S157      1.0  0.51282  0.14365  0.02193  1.0000
  Fe  Fe77      1.0  0.86357  0.07025  0.05517  1.0000
  S   S158      1.0  0.82855  0.06705  0.02636  1.0000
  S   S159      1.0  0.90118  0.08378  0.02654  1.0000
  Fe  Fe78      1.0  0.83173  0.03975  0.11792  1.0000
  S   S160      1.0  0.79540  0.03526  0.09177  1.0000
  S   S161      1.0  0.83331  0.02646  0.17451  1.0000
  Fe  Fe79      1.0  0.80933  0.02630  0.04196  1.0000
  C   C1080     1.0  0.66376  0.19918  0.04810  1.0000
  Fe  Fe80      1.0  0.81774  0.07657  0.07866  1.0000
  S   S162      1.0  0.79913  0.10280  0.07799  1.0000
  S   S163      1.0  0.84439  0.02868  0.06873  1.0000
  S   S164      1.0  0.85392  0.08185  0.10690  1.0000
  Fe  Fe81      1.0  0.71515  0.20222  0.21091  1.0000
  S   S165      1.0  0.75032  0.20818  0.24236  1.0000
  S   S166      1.0  0.67324  0.17893  0.22661  1.0000
  Fe  Fe82      1.0  0.76495  0.20217  0.19082  1.0000
  S   S167      1.0  0.78750  0.17982  0.18624  1.0000
  S   S168      1.0  0.72892  0.19398  0.16019  1.0000
  C   C1081     1.0  0.81648  0.99760  0.19768  1.0000
  H   H856      1.0  0.93337  0.13633  0.43682  1.0000
  H   H857      1.0  0.93746  0.10819  0.09223  1.0000
  H   H858      1.0  0.82859  0.01635  0.24871  1.0000
  H   H859      1.0  0.47590  0.14943  0.21410  1.0000
  C   C1082     1.0  0.79614  0.12424  0.10840  1.0000
  C   C1083     1.0  0.77907  0.13364  0.10003  1.0000
  C   C1084     1.0  0.77622  0.15069  0.12313  1.0000
  C   C1085     1.0  0.79044  0.15869  0.15518  1.0000
  C   C1086     1.0  0.80775  0.14955  0.16322  1.0000
  C   C1087     1.0  0.81062  0.13257  0.14008  1.0000
  H   H860      1.0  0.76782  0.12759  0.07556  1.0000
  H   H861      1.0  0.76292  0.15752  0.11624  1.0000
  H   H862      1.0  0.81912  0.15575  0.18759  1.0000
  H   H863      1.0  0.82424  0.12609  0.14647  1.0000
  H   H864      1.0  0.52395  0.01347  0.00582  1.0000
  P   P36       1.0  0.91107  0.04606  0.41834  1.0000
  H   H865      1.0  0.52700  0.05313  0.02955  1.0000
  H   H866      1.0  0.66148  0.20236  0.34840  1.0000
  C   C1088     1.0  0.54948  0.15907  0.17825  1.0000
  C   C1089     1.0  0.92356  0.09726  0.42702  1.0000
  C   C1090     1.0  0.49778  0.16339  0.07635  1.0000
  H   H867      1.0  0.58211  0.16689  0.21314  1.0000
  H   H868      1.0  0.51753  0.17224  0.08524  1.0000
  H   H869      1.0  0.52025  0.97972  0.04580  1.0000
  C   C1091     1.0  0.49002  0.14871  0.04480  1.0000
  H   H870      1.0  0.70061  0.04197  0.32205  1.0000
  C   C1092     1.0  0.92581  0.11144  0.00754  1.0000
  H   H871      1.0  0.83701  0.08140  0.19916  1.0000
  H   H872      1.0  0.87329  0.99360  0.43351  1.0000
  C   C1093     1.0  0.93655  0.04777  0.35701  1.0000
  C   C1094     1.0  0.80257  0.17509  0.01740  1.0000
  H   H873      1.0  0.57037  0.18714  0.26169  1.0000
  C   C1095     1.0  0.88136  0.06637  0.44285  1.0000
  C   C1096     1.0  0.65803  0.16296  0.26548  1.0000
  C   C1097     1.0  0.63154  0.15326  0.26743  1.0000
  C   C1098     1.0  0.61844  0.13955  0.29672  1.0000
  C   C1099     1.0  0.63154  0.13503  0.32464  1.0000
  C   C1100     1.0  0.65808  0.14508  0.32291  1.0000
  C   C1101     1.0  0.67124  0.15906  0.29383  1.0000
  H   H874      1.0  0.62098  0.15603  0.24585  1.0000
  H   H875      1.0  0.59808  0.13174  0.29711  1.0000
  H   H876      1.0  0.66855  0.14179  0.34414  1.0000
  H   H877      1.0  0.69154  0.16626  0.29301  1.0000
  C   C1102     1.0  0.49393  0.13182  0.34669  1.0000
  C   C1103     1.0  0.49228  0.15336  0.33600  1.0000
  H   H878      1.0  0.66452  0.02257  0.27791  1.0000
  H   H879      1.0  0.50539  0.17163  0.34782  1.0000
  C   C1104     1.0  0.57474  0.16461  0.18631  1.0000
  H   H880      1.0  0.55016  0.15629  0.08886  1.0000
  H   H881      1.0  0.52509  0.10164  0.31086  1.0000
  H   H882      1.0  0.59471  0.16602  0.10357  1.0000
  P   P37       1.0  0.65841  0.21039  0.00627  1.0000
  C   C1105     1.0  0.79995  0.06959  0.43821  1.0000
  H   H883      1.0  0.61039  0.17126  0.16592  1.0000
  C   C1106     1.0  0.66417  0.20080  0.37633  1.0000
  C   C1107     1.0  0.47343  0.15140  0.31088  1.0000
  H   H884      1.0  0.52145  0.15174  0.13615  1.0000
  C   C1108     1.0  0.59095  0.16707  0.15944  1.0000
  C   C1109     1.0  0.93005  0.13598  0.01560  1.0000
  C   C1110     1.0  0.51378  0.05811  0.16897  1.0000
  C   C1111     1.0  0.61168  0.20242  0.03023  1.0000
  H   H885      1.0  0.62078  0.20726  0.05626  1.0000
  C   C1112     1.0  0.83471  0.16388  0.03736  1.0000
  H   H886      1.0  0.80547  0.03988  0.21954  1.0000
  H   H887      1.0  0.53005  0.10849  0.04740  1.0000
  H   H888      1.0  0.47801  0.03100  0.07357  1.0000
  H   H889      1.0  0.72104  0.19289  0.06011  1.0000
  H   H890      1.0  0.57565  0.19653  0.04851  1.0000
  H   H891      1.0  0.84023  0.14945  0.04300  1.0000
  H   H892      1.0  0.89452  0.00719  0.04685  1.0000
  H   H893      1.0  0.75900  0.08435  0.02447  1.0000
  H   H894      1.0  0.70894  0.00276  0.21157  1.0000
  C   C1113     1.0  0.81798  0.99831  0.23477  1.0000
  C   C1114     1.0  0.78872  0.00845  0.35851  1.0000
  C   C1115     1.0  0.80202  0.05591  0.22221  1.0000
  H   H895      1.0  0.50247  0.04707  0.22176  1.0000
  C   C1116     1.0  0.73270  0.19438  0.03830  1.0000
  C   C1117     1.0  0.52347  0.00149  0.09282  1.0000
  C   C1118     1.0  0.52581  0.02422  0.10665  1.0000
  C   C1119     1.0  0.93863  0.05628  0.39208  1.0000
  H   H896      1.0  0.90256  0.03154  0.10301  1.0000
  H   H897      1.0  0.75910  0.02319  0.17603  1.0000
  C   C1120     1.0  0.77982  0.05300  0.23718  1.0000
  C   C1121     1.0  0.84550  0.98104  0.39069  1.0000
  C   C1122     1.0  0.53879  0.08070  0.22149  1.0000
  H   H898      1.0  0.58228  0.08866  0.10191  1.0000
  C   C1123     1.0  0.95003  0.15718  0.00045  1.0000
  C   C1124     1.0  0.59852  0.11931  0.06641  1.0000
  C   C1125     1.0  0.52275  0.99760  0.05653  1.0000
  H   H899      1.0  0.75442  0.03733  0.37396  1.0000
  H   H900      1.0  0.77923  0.20041  0.33616  1.0000
  C   C1126     1.0  0.72529  0.03312  0.29200  1.0000
  C   C1127     1.0  0.87667  0.08592  0.45391  1.0000
  C   C1128     1.0  0.69024  0.21372  0.43053  1.0000
  C   C1129     1.0  0.64776  0.17809  0.42953  1.0000
  C   C1130     1.0  0.53261  0.07544  0.14787  1.0000
  H   H901      1.0  0.52647  0.02674  0.13480  1.0000
  C   C1131     1.0  0.47152  0.09157  0.08847  1.0000
  C   C1132     1.0  0.48032  0.16709  0.09628  1.0000
  H   H902      1.0  0.63267  0.16265  0.44274  1.0000
  C   C1133     1.0  0.52008  0.19105  0.25067  1.0000
  C   C1134     1.0  0.76687  0.20808  0.34336  1.0000
  C   C1135     1.0  0.79808  0.98059  0.45374  1.0000
  H   H903      1.0  0.51168  0.10547  0.18212  1.0000
  H   H904      1.0  0.56535  0.14171  0.01739  1.0000
  P   P38       1.0  0.75755  0.02241  0.25294  1.0000
  H   H905      1.0  0.91842  0.03473  0.34449  1.0000
  C   C1136     1.0  0.49490  0.10754  0.18499  1.0000
  C   C1137     1.0  0.73199  0.20558  0.37623  1.0000
  C   C1138     1.0  0.52629  0.12505  0.26785  1.0000
  C   C1139     1.0  0.52691  0.04303  0.08406  1.0000
  C   C1140     1.0  0.89541  0.11113  0.45171  1.0000
  C   C1141     1.0  0.88761  0.01205  0.10063  1.0000
  C   C1142     1.0  0.96208  0.09723  0.06607  1.0000
  H   H906      1.0  0.88481  0.04767  0.35308  1.0000
  C   C1143     1.0  0.54909  0.11171  0.05393  1.0000
  C   C1144     1.0  0.48063  0.99342  0.46047  1.0000
  C   C1145     1.0  0.72788  0.02204  0.26088  1.0000
  H   H907      1.0  0.93273  0.01226  0.42990  1.0000
  H   H908      1.0  0.94685  0.07850  0.05867  1.0000
  C   C1146     1.0  0.55420  0.09594  0.16409  1.0000
  C   C1147     1.0  0.67154  0.20513  0.11152  1.0000
  C   C1148     1.0  0.74865  0.98541  0.15831  1.0000
  H   H909      1.0  0.82421  0.04048  0.34683  1.0000
  C   C1149     1.0  0.74816  0.19580  0.36746  1.0000
  C   C1150     1.0  0.95824  0.05595  0.33750  1.0000
  H   H910      1.0  0.84590  0.01571  0.32056  1.0000
  C   C1151     1.0  0.56917  0.13053  0.03645  1.0000
  H   H911      1.0  0.78833  0.01076  0.45375  1.0000
  C   C1152     1.0  0.48299  0.20712  0.35673  1.0000
  C   C1153     1.0  0.57849  0.10055  0.08409  1.0000
  C   C1154     1.0  0.52714  0.19956  0.18897  1.0000
  H   H912      1.0  0.50913  0.11015  0.25522  1.0000
  H   H913      1.0  0.56861  0.11020  0.14879  1.0000
  H   H914      1.0  0.57416  0.11406  0.21316  1.0000
  C   C1155     1.0  0.47663  0.04816  0.07755  1.0000
  C   C1156     1.0  0.52330  0.22066  0.19305  1.0000
  C   C1157     1.0  0.83761  0.98717  0.35897  1.0000
  H   H915      1.0  0.49668  0.04253  0.15705  1.0000
  C   C1158     1.0  0.79364  0.09767  0.22865  1.0000
  C   C1159     1.0  0.70249  0.03326  0.29813  1.0000
  H   H916      1.0  0.79725  0.13694  0.01775  1.0000
  H   H917      1.0  0.67329  0.19101  0.47525  1.0000
  H   H918      1.0  0.53063  0.19467  0.16316  1.0000
  C   C1160     1.0  0.78852  0.06212  0.40449  1.0000
  C   C1161     1.0  0.77560  0.07404  0.24002  1.0000
  C   C1162     1.0  0.82001  0.07949  0.21090  1.0000
  P   P39       1.0  0.52801  0.15592  0.21230  1.0000
  H   H919      1.0  0.54136  0.08256  0.24989  1.0000
  C   C1163     1.0  0.58214  0.16411  0.12434  1.0000
  C   C1164     1.0  0.81596  0.10044  0.21451  1.0000
  H   H920      1.0  0.62695  0.16864  0.37955  1.0000
  C   C1165     1.0  0.88259  0.02266  0.39491  1.0000
  C   C1166     1.0  0.47730  0.10837  0.33048  1.0000
  C   C1167     1.0  0.85201  0.01107  0.34528  1.0000
  H   H921      1.0  0.75848  0.07240  0.25077  1.0000
  H   H922      1.0  0.72990  0.01691  0.42538  1.0000
  C   C1168     1.0  0.86789  0.99867  0.40866  1.0000
  C   C1169     1.0  0.85152  0.18935  0.04541  1.0000
  C   C1170     1.0  0.55367  0.09695  0.07854  1.0000
  H   H923      1.0  0.79600  0.00507  0.38321  1.0000
  C   C1171     1.0  0.49779  0.07075  0.08989  1.0000
  S   S169      1.0  0.78165  0.99400  0.00427  1.0000
  C   C1172     1.0  0.80109  0.00437  0.46464  1.0000
  C   C1173     1.0  0.70740  0.01122  0.23593  1.0000
  C   C1174     1.0  0.54086  0.15613  0.14291  1.0000
  C   C1175     1.0  0.64451  0.18151  0.39388  1.0000
  C   C1176     1.0  0.59386  0.13437  0.04266  1.0000
  C   C1177     1.0  0.91871  0.11677  0.43796  1.0000
  C   C1178     1.0  0.76328  0.04313  0.40009  1.0000
  H   H924      1.0  0.66888  0.00301  0.22280  1.0000
  C   C1179     1.0  0.47106  0.08747  0.17470  1.0000
  H   H925      1.0  0.61755  0.12186  0.07077  1.0000
  H   H926      1.0  0.91819  0.13867  0.03398  1.0000
  H   H927      1.0  0.51080  0.10976  0.10585  1.0000
  C   C1180     1.0  0.77459  0.20925  0.01564  1.0000
  H   H928      1.0  0.56371  0.13518  0.34199  1.0000
  H   H929      1.0  0.51800  0.17938  0.27304  1.0000
  C   C1181     1.0  0.52649  0.03907  0.04761  1.0000
  H   H930      1.0  0.78331  0.16892  0.00753  1.0000
  H   H931      1.0  0.67369  0.17495  0.13880  1.0000
  H   H932      1.0  0.60921  0.14870  0.02857  1.0000
  C   C1182     1.0  0.78628  0.05784  0.46755  1.0000
  C   C1183     1.0  0.55731  0.09841  0.20074  1.0000
  C   C1184     1.0  0.53908  0.14912  0.25350  1.0000
  C   C1185     1.0  0.81924  0.20074  0.02585  1.0000
  H   H933      1.0  0.85877  0.08146  0.46516  1.0000
  H   H934      1.0  0.74591  0.17847  0.37893  1.0000
  C   C1186     1.0  0.68462  0.01135  0.24217  1.0000
  C   C1187     1.0  0.67084  0.18162  0.11351  1.0000
  H   H935      1.0  0.73424  0.98512  0.30726  1.0000
  C   C1188     1.0  0.66685  0.16694  0.08294  1.0000
  C   C1189     1.0  0.66318  0.17558  0.05036  1.0000
  C   C1190     1.0  0.51694  0.06066  0.20561  1.0000
  C   C1191     1.0  0.72156  0.18490  0.00487  1.0000
  H   H936      1.0  0.71749  0.19549  0.39460  1.0000
  H   H937      1.0  0.83003  0.11878  0.20607  1.0000
  C   C1192     1.0  0.49706  0.13018  0.19912  1.0000
  C   C1193     1.0  0.77227  0.22516  0.46532  1.0000
  C   C1194     1.0  0.87413  0.02897  0.36355  1.0000
  H   H938      1.0  0.66684  0.14893  0.08458  1.0000
  H   H939      1.0  0.65992  0.16378  0.02715  1.0000
  C   C1195     1.0  0.88303  0.99832  0.06896  1.0000
  C   C1196     1.0  0.67064  0.19414  0.44782  1.0000
  C   C1197     1.0  0.47502  0.13248  0.20263  1.0000
  H   H940      1.0  0.87506  0.01192  0.15290  1.0000
  C   C1198     1.0  0.75223  0.99831  0.21988  1.0000
  C   C1199     1.0  0.55710  0.15865  0.11609  1.0000
  C   C1200     1.0  0.56954  0.16316  0.30351  1.0000
  H   H941      1.0  0.46946  0.07000  0.16392  1.0000
  C   C1201     1.0  0.81038  0.15681  0.02305  1.0000
  H   H942      1.0  0.50641  0.19187  0.99347  1.0000
  C   C1202     1.0  0.52562  0.18462  0.21782  1.0000
  H   H943      1.0  0.94197  0.10231  0.41719  1.0000
  H   H944      1.0  0.75039  0.99019  0.13087  1.0000
  H   H945      1.0  0.48666  0.17848  0.12037  1.0000
  H   H946      1.0  0.76728  0.21345  0.06996  1.0000
  H   H947      1.0  0.67530  0.21675  0.13520  1.0000
  H   H948      1.0  0.74422  0.98397  0.45515  1.0000
  P   P40       1.0  0.52796  0.07185  0.10054  1.0000
  C   C1203     1.0  0.90492  0.07186  0.42956  1.0000
  C   C1204     1.0  0.87218  0.00099  0.12874  1.0000
  H   H949      1.0  0.89220  0.12634  0.46141  1.0000
  C   C1205     1.0  0.52469  0.01656  0.03400  1.0000
  C   C1206     1.0  0.56055  0.16827  0.27188  1.0000
  H   H950      1.0  0.47236  0.17481  0.38853  1.0000
  H   H951      1.0  0.58617  0.17788  0.31758  1.0000
  C   C1207     1.0  0.49491  0.09231  0.09582  1.0000
  C   C1208     1.0  0.74951  0.03143  0.42936  1.0000
  H   H952      1.0  0.46945  0.10832  0.09300  1.0000
  H   H953      1.0  0.74101  0.04194  0.31127  1.0000
  C   C1209     1.0  0.91753  0.03322  0.45775  1.0000
  C   C1210     1.0  0.76341  0.99290  0.34727  1.0000
  C   C1211     1.0  0.95676  0.11401  0.08505  1.0000
  C   C1212     1.0  0.77000  0.01692  0.29412  1.0000
  H   H954      1.0  0.79919  0.07110  0.38176  1.0000
  C   C1213     1.0  0.58613  0.19653  0.02599  1.0000
  C   C1214     1.0  0.84386  0.20774  0.03966  1.0000
  H   H955      1.0  0.81547  0.21281  0.09553  1.0000
  H   H956      1.0  0.72451  0.09268  0.00166  1.0000
  H   H957      1.0  0.96501  0.07851  0.43474  1.0000
  C   C1215     1.0  0.55693  0.13905  0.31727  1.0000
  C   C1216     1.0  0.68216  0.02236  0.27323  1.0000
  H   H958      1.0  0.86686  0.04692  0.44576  1.0000
  H   H959      1.0  0.47198  0.16802  0.30354  1.0000
  C   C1217     1.0  0.79546  0.03243  0.30569  1.0000
  H   H960      1.0  0.78952  0.08281  0.98459  1.0000
  C   C1218     1.0  0.53530  0.12006  0.29953  1.0000
  H   H961      1.0  0.87024  0.19474  0.05709  1.0000
  C   C1219     1.0  0.66795  0.21387  0.07903  1.0000
  H   H962      1.0  0.50304  0.21263  0.35905  1.0000
  C   C1220     1.0  0.80465  0.02833  0.33789  1.0000
  C   C1221     1.0  0.75911  0.20628  0.04379  1.0000
  H   H963      1.0  0.52184  0.98666  0.11017  1.0000
  C   C1222     1.0  0.92829  0.01702  0.45525  1.0000
  C   C1223     1.0  0.62516  0.20210  0.00105  1.0000
  H   H964      1.0  0.80835  0.04781  0.29019  1.0000
  C   C1224     1.0  0.75718  0.08716  0.99666  1.0000
  H   H965      1.0  0.79028  0.11386  0.23048  1.0000
  C   C1225     1.0  0.75383  0.00416  0.18413  1.0000
  H   H966      1.0  0.88997  0.14001  0.98505  1.0000
  C   C1226     1.0  0.68712  0.21727  0.39463  1.0000
  H   H967      1.0  0.68505  0.22828  0.24612  1.0000
  H   H968      1.0  0.95650  0.04962  0.31034  1.0000
  C   C1227     1.0  0.75399  0.99724  0.31539  1.0000
  H   H969      1.0  0.51129  0.21658  0.27980  1.0000
  H   H970      1.0  0.95309  0.17600  0.00716  1.0000
  H   H971      1.0  0.77858  0.21581  0.44672  1.0000
  C   C1228     1.0  0.73435  0.22770  0.36072  1.0000
  C   C1229     1.0  0.57391  0.19042  0.99263  1.0000
  H   H972      1.0  0.70113  0.17567  0.00062  1.0000
  C   C1230     1.0  0.94222  0.10864  0.98444  1.0000
  C   C1231     1.0  0.96286  0.07215  0.40758  1.0000
  P   P41       1.0  0.80869  0.22435  0.02227  1.0000
  C   C1232     1.0  0.73775  0.09185  0.98379  1.0000
  H   H973      1.0  0.81944  0.08449  0.44167  1.0000
  C   C1233     1.0  0.76109  0.03828  0.46332  1.0000
  H   H974      1.0  0.55404  0.18551  0.98944  1.0000
  H   H975      1.0  0.69929  0.21653  0.30100  1.0000
  H   H976      1.0  0.82629  0.98751  0.99038  1.0000
  H   H977      1.0  0.47836  0.09162  0.33824  1.0000
  H   H978      1.0  0.46944  0.11204  0.43242  1.0000
  C   C1234     1.0  0.51784  0.22694  0.22585  1.0000
  C   C1235     1.0  0.51625  0.21214  0.25464  1.0000
  H   H979      1.0  0.70804  0.22560  0.44491  1.0000
  C   C1236     1.0  0.47464  0.22116  0.33634  1.0000
  H   H980      1.0  0.72616  0.05633  0.46711  1.0000
  H   H981      1.0  0.85686  0.22732  0.04703  1.0000
  C   C1237     1.0  0.76326  0.19958  0.98214  1.0000
  S   S170      1.0  0.57944  0.12646  0.52264  1.0000
  Fe  Fe83      1.0  0.86158  0.10989  0.59596  1.0000
  S   S171      1.0  0.86096  0.07528  0.61931  1.0000
  S   S172      1.0  0.82762  0.11817  0.59989  1.0000
  Fe  Fe84      1.0  0.91186  0.12285  0.55875  1.0000
  S   S173      1.0  0.91358  0.08929  0.58094  1.0000
  S   S174      1.0  0.94230  0.15069  0.52306  1.0000
  Fe  Fe85      1.0  0.87168  0.06753  0.56618  1.0000
  S   S175      1.0  0.85860  0.02821  0.54061  1.0000
  Fe  Fe86      1.0  0.90288  0.10037  0.63173  1.0000
  S   S176      1.0  0.91932  0.09645  0.68519  1.0000
  S   S177      1.0  0.87022  0.10071  0.54177  1.0000
  S   S178      1.0  0.90329  0.13544  0.61060  1.0000
  Fe  Fe87      1.0  0.69522  0.16341  0.66920  1.0000
  S   S179      1.0  0.69365  0.13076  0.69966  1.0000
  S   S180      1.0  0.68404  0.15925  0.61020  1.0000
  Fe  Fe88      1.0  0.72513  0.20141  0.73078  1.0000
  S   S181      1.0  0.72544  0.17095  0.76424  1.0000
  Fe  Fe89      1.0  0.73513  0.15650  0.71466  1.0000
  S   S182      1.0  0.76838  0.14671  0.71567  1.0000
  Fe  Fe90      1.0  0.68401  0.14827  0.74606  1.0000
  S   S183      1.0  0.65065  0.12330  0.78056  1.0000
  S   S184      1.0  0.73705  0.18859  0.68272  1.0000
  S   S185      1.0  0.68340  0.17937  0.71421  1.0000
  Fe  Fe91      1.0  0.54241  0.12035  0.91003  1.0000
  S   S186      1.0  0.50844  0.08892  0.88080  1.0000
  S   S187      1.0  0.58343  0.14357  0.89185  1.0000
  H   H982      1.0  0.82747  0.15715  0.82261  1.0000
  Fe  Fe92      1.0  0.49678  0.07067  0.93396  1.0000
  H   H983      1.0  0.93151  0.00480  0.54182  1.0000
  H   H984      1.0  0.54304  0.06930  0.62187  1.0000
  S   S188      1.0  0.53188  0.10153  0.96227  1.0000
  S   S189      1.0  0.52221  0.14327  0.92000  1.0000
  H   H985      1.0  0.84135  0.20026  0.68496  1.0000
  H   H986      1.0  0.53294  0.07895  0.53067  1.0000
  H   H987      1.0  0.57376  0.09402  0.67003  1.0000
  C   C1238     1.0  0.64937  0.17110  0.95828  1.0000
  H   H988      1.0  0.86845  0.18045  0.69521  1.0000
  H   H989      1.0  0.79016  0.98552  0.56582  1.0000
  H   H990      1.0  0.87545  0.09659  0.96121  1.0000
  H   H991      1.0  0.79006  0.21566  0.73532  1.0000
  P   P42       1.0  0.79473  0.08830  0.90856  1.0000
  C   C1239     1.0  0.63213  0.12960  0.81113  1.0000
  C   C1240     1.0  0.63870  0.15408  0.82361  1.0000
  C   C1241     1.0  0.62372  0.15789  0.84838  1.0000
  C   C1242     1.0  0.60168  0.13742  0.86069  1.0000
  C   C1243     1.0  0.59504  0.11297  0.84809  1.0000
  C   C1244     1.0  0.61025  0.10913  0.82378  1.0000
  H   H992      1.0  0.65548  0.17007  0.81444  1.0000
  H   H993      1.0  0.62923  0.17690  0.85794  1.0000
  H   H994      1.0  0.57824  0.09698  0.85721  1.0000
  H   H995      1.0  0.60495  0.09009  0.81457  1.0000
  C   C1245     1.0  0.67664  0.17484  0.91097  1.0000
  C   C1246     1.0  0.80631  0.21719  0.68546  1.0000
  C   C1247     1.0  0.53887  0.12510  0.66757  1.0000
  C   C1248     1.0  0.83657  0.01157  0.50491  1.0000
  C   C1249     1.0  0.54134  0.08457  0.63461  1.0000
  H   H996      1.0  0.76093  0.99782  0.93653  1.0000
  H   H997      1.0  0.79558  0.06395  0.49337  1.0000
  C   C1250     1.0  0.94439  0.12070  0.71171  1.0000
  C   C1251     1.0  0.79238  0.04869  0.86673  1.0000
  C   C1252     1.0  0.82543  0.10477  0.93159  1.0000
  H   H998      1.0  0.80165  0.06266  0.84717  1.0000
  C   C1253     1.0  0.84589  0.20298  0.62863  1.0000
  C   C1254     1.0  0.81106  0.12515  0.63310  1.0000
  C   C1255     1.0  0.81862  0.12845  0.66886  1.0000
  C   C1256     1.0  0.80538  0.13497  0.69354  1.0000
  C   C1257     1.0  0.78424  0.13820  0.68311  1.0000
  C   C1258     1.0  0.77643  0.13443  0.64746  1.0000
  C   C1259     1.0  0.78960  0.12781  0.62287  1.0000
  H   H999      1.0  0.83493  0.12640  0.67743  1.0000
  H   H1000     1.0  0.81173  0.13773  0.72092  1.0000
  H   H1001     1.0  0.76013  0.13653  0.63883  1.0000
  H   H1002     1.0  0.78312  0.12472  0.59556  1.0000
  C   C1260     1.0  0.60799  0.13316  0.54703  1.0000
  C   C1261     1.0  0.60976  0.13853  0.58338  1.0000
  C   C1262     1.0  0.63251  0.14543  0.60351  1.0000
  C   C1263     1.0  0.65390  0.14737  0.58737  1.0000
  C   C1264     1.0  0.65204  0.14175  0.55107  1.0000
  C   C1265     1.0  0.62920  0.13454  0.53103  1.0000
  H   H1003     1.0  0.59348  0.13757  0.59603  1.0000
  H   H1004     1.0  0.63368  0.14988  0.63130  1.0000
  H   H1005     1.0  0.66849  0.14333  0.53824  1.0000
  H   H1006     1.0  0.50947  0.19277  0.88103  1.0000
  H   H1007     1.0  0.49880  0.11768  0.80375  1.0000
  C   C1266     1.0  0.77226  0.10191  0.81173  1.0000
  C   C1267     1.0  0.76779  0.16023  0.56515  1.0000
  C   C1268     1.0  0.74719  0.16407  0.57252  1.0000
  C   C1269     1.0  0.79202  0.17657  0.58001  1.0000
  H   H1008     1.0  0.62278  0.19690  0.94421  1.0000
  H   H1009     1.0  0.95903  0.12560  0.63822  1.0000
  C   C1270     1.0  0.84080  0.09316  0.93675  1.0000
  C   C1271     1.0  0.87651  0.17984  0.64085  1.0000
  C   C1272     1.0  0.86555  0.18549  0.66887  1.0000
  H   H1010     1.0  0.81398  0.02302  0.60576  1.0000
  H   H1011     1.0  0.76489  0.14421  0.54862  1.0000
  H   H1012     1.0  0.72823  0.15110  0.56191  1.0000
  H   H1013     1.0  0.80756  0.17293  0.57446  1.0000
  H   H1014     1.0  0.85026  0.02472  0.95132  1.0000
  H   H1015     1.0  0.82144  0.03745  0.49936  1.0000
  H   H1016     1.0  0.88788  0.17046  0.64552  1.0000
  H   H1017     1.0  0.53815  0.14100  0.68009  1.0000
  C   C1273     1.0  0.53935  0.13354  0.80381  1.0000
  C   C1274     1.0  0.55965  0.13008  0.79370  1.0000
  C   C1275     1.0  0.55505  0.10755  0.77651  1.0000
  C   C1276     1.0  0.53009  0.08879  0.76828  1.0000
  C   C1277     1.0  0.50961  0.09297  0.77596  1.0000
  C   C1278     1.0  0.51441  0.11497  0.79523  1.0000
  C   C1279     1.0  0.71033  0.06894  0.50727  1.0000
  C   C1280     1.0  0.81241  0.13851  0.82840  1.0000
  H   H1018     1.0  0.70559  0.08030  0.48968  1.0000
  H   H1019     1.0  0.68013  0.16695  0.88738  1.0000
  C   C1281     1.0  0.79573  0.19675  0.60265  1.0000
  H   H1020     1.0  0.91213  0.03313  0.54644  1.0000
  C   C1282     1.0  0.70471  0.06792  0.54264  1.0000
  H   H1021     1.0  0.83510  0.99006  0.59593  1.0000
  H   H1022     1.0  0.54297  0.15043  0.81884  1.0000
  H   H1023     1.0  0.57897  0.14453  0.80027  1.0000
  H   H1024     1.0  0.57090  0.10447  0.77031  1.0000
  H   H1025     1.0  0.52702  0.07109  0.75639  1.0000
  H   H1026     1.0  0.94562  0.09428  0.74849  1.0000
  C   C1283     1.0  0.47715  0.08892  0.53568  1.0000
  H   H1027     1.0  0.75617  0.09229  0.79309  1.0000
  C   C1284     1.0  0.47254  0.10984  0.73381  1.0000
  C   C1285     1.0  0.50019  0.02668  0.57900  1.0000
  H   H1028     1.0  0.82156  0.13806  0.94363  1.0000
  C   C1286     1.0  0.77507  0.20093  0.60888  1.0000
  C   C1287     1.0  0.76008  0.22932  0.52384  1.0000
  C   C1288     1.0  0.66958  0.20922  0.54569  1.0000
  C   C1289     1.0  0.46911  0.99996  0.48717  1.0000
  C   C1290     1.0  0.93453  0.15957  0.90273  1.0000
  C   C1291     1.0  0.65446  0.16069  0.92867  1.0000
  H   H1029     1.0  0.95601  0.10984  0.51477  1.0000
  C   C1292     1.0  0.95985  0.07954  0.82543  1.0000
  H   H1030     1.0  0.69574  0.07857  0.55251  1.0000
  C   C1293     1.0  0.71985  0.99070  0.48923  1.0000
  C   C1294     1.0  0.80016  0.02277  0.58635  1.0000
  H   H1031     1.0  0.88027  0.18068  0.58496  1.0000
  H   H1032     1.0  0.91474  0.03243  0.77244  1.0000
  C   C1295     1.0  0.72198  0.05528  0.49457  1.0000
  Fe  Fe93      1.0  0.50873  0.12189  0.96970  1.0000
  H   H1033     1.0  0.83003  0.13729  0.87763  1.0000
  H   H1034     1.0  0.94806  0.15182  0.68051  1.0000
  H   H1035     1.0  0.48757  0.01970  0.60040  1.0000
  H   H1036     1.0  0.75808  0.07190  0.84838  1.0000
  C   C1296     1.0  0.92769  0.01272  0.51837  1.0000
  C   C1297     1.0  0.52209  0.13335  0.52478  1.0000
  C   C1298     1.0  0.82009  0.01973  0.49020  1.0000
  H   H1037     1.0  0.49960  0.99084  0.57023  1.0000
  H   H1038     1.0  0.50350  0.15973  0.82114  1.0000
  H   H1039     1.0  0.50452  0.18854  0.77407  1.0000
  H   H1040     1.0  0.64073  0.14193  0.91863  1.0000
  C   C1299     1.0  0.76517  0.02251  0.53495  1.0000
  C   C1300     1.0  0.69392  0.19935  0.92316  1.0000
  C   C1301     1.0  0.76918  0.00138  0.53837  1.0000
  H   H1041     1.0  0.50749  0.11688  0.63114  1.0000
  C   C1302     1.0  0.79619  0.04379  0.58327  1.0000
  C   C1303     1.0  0.77893  0.04377  0.55758  1.0000
  C   C1304     1.0  0.80418  0.22756  0.71731  1.0000
  H   H1042     1.0  0.72819  0.18002  0.95093  1.0000
  C   C1305     1.0  0.95372  0.11399  0.74199  1.0000
  C   C1306     1.0  0.85713  0.19736  0.60062  1.0000
  C   C1307     1.0  0.71054  0.05308  0.56530  1.0000
  C   C1308     1.0  0.72202  0.03926  0.55266  1.0000
  Fe  Fe94      1.0  0.48787  0.11122  0.89313  1.0000
  C   C1309     1.0  0.48608  0.15932  0.81163  1.0000
  C   C1310     1.0  0.85008  0.19675  0.66282  1.0000
  C   C1311     1.0  0.87207  0.13024  0.97005  1.0000
  H   H1043     1.0  0.79028  0.01813  0.83411  1.0000
  H   H1044     1.0  0.80670  0.06035  0.60052  1.0000
  H   H1045     1.0  0.77665  0.06056  0.55525  1.0000
  H   H1046     1.0  0.79394  0.19720  0.67947  1.0000
  H   H1047     1.0  0.77164  0.04188  0.95004  1.0000
  H   H1048     1.0  0.70618  0.05232  0.59274  1.0000
  H   H1049     1.0  0.72624  0.02772  0.57058  1.0000
  C   C1312     1.0  0.78665  0.00158  0.56393  1.0000
  C   C1313     1.0  0.49939  0.19174  0.90446  1.0000
  C   C1314     1.0  0.84188  0.09877  0.79273  1.0000
  C   C1315     1.0  0.84778  0.09986  0.75746  1.0000
  C   C1316     1.0  0.86967  0.09892  0.74825  1.0000
  C   C1317     1.0  0.88550  0.09659  0.77421  1.0000
  C   C1318     1.0  0.87929  0.09466  0.80960  1.0000
  C   C1319     1.0  0.85774  0.09652  0.81879  1.0000
  P   P43       1.0  0.90055  0.09338  0.84342  1.0000
  C   C1320     1.0  0.91970  0.08033  0.82645  1.0000
  C   C1321     1.0  0.92071  0.12574  0.85841  1.0000
  C   C1322     1.0  0.93902  0.14258  0.83629  1.0000
  H   H1050     1.0  0.54481  0.04979  0.50133  1.0000
  C   C1323     1.0  0.68893  0.20984  0.95283  1.0000
  H   H1051     1.0  0.65876  0.19122  0.55790  1.0000
  C   C1324     1.0  0.91816  0.13457  0.89144  1.0000
  H   H1052     1.0  0.96022  0.05072  0.79175  1.0000
  H   H1053     1.0  0.57779  0.18551  0.93751  1.0000
  S   S190      1.0  0.48633  0.02807  0.93997  1.0000
  C   C1325     1.0  0.92327  0.04852  0.79080  1.0000
  C   C1326     1.0  0.90866  0.05912  0.80331  1.0000
  C   C1327     1.0  0.88397  0.07238  0.87807  1.0000
  C   C1328     1.0  0.85886  0.05289  0.87226  1.0000
  C   C1329     1.0  0.84679  0.03581  0.89868  1.0000
  C   C1330     1.0  0.85970  0.03787  0.93081  1.0000
  C   C1331     1.0  0.88492  0.05660  0.93628  1.0000
  C   C1332     1.0  0.89711  0.07369  0.90999  1.0000
  H   H1054     1.0  0.82514  0.09994  0.79979  1.0000
  H   H1055     1.0  0.83560  0.10176  0.73726  1.0000
  H   H1056     1.0  0.87461  0.10022  0.72097  1.0000
  H   H1057     1.0  0.90269  0.09660  0.76645  1.0000
  H   H1058     1.0  0.85334  0.09642  0.84610  1.0000
  H   H1059     1.0  0.94084  0.13637  0.81032  1.0000
  C   C1333     1.0  0.73683  0.18741  0.97683  1.0000
  C   C1334     1.0  0.77211  0.08952  0.93765  1.0000
  H   H1060     1.0  0.84788  0.98255  0.50263  1.0000
  H   H1061     1.0  0.90382  0.12227  0.90867  1.0000
  H   H1062     1.0  0.77146  0.20176  0.50830  1.0000
  C   C1335     1.0  0.52162  0.11696  0.55086  1.0000
  C   C1336     1.0  0.47446  0.18780  0.90144  1.0000
  H   H1063     1.0  0.69059  0.99046  0.52122  1.0000
  H   H1064     1.0  0.88879  0.05084  0.79478  1.0000
  H   H1065     1.0  0.84874  0.05045  0.84721  1.0000
  H   H1066     1.0  0.82753  0.02065  0.89427  1.0000
  C   C1337     1.0  0.96202  0.12982  0.96895  1.0000
  H   H1067     1.0  0.53905  0.12146  0.56588  1.0000
  H   H1068     1.0  0.91685  0.08780  0.91450  1.0000
  H   H1069     1.0  0.79048  0.13491  0.78037  1.0000
  H   H1070     1.0  0.77488  0.20145  0.96014  1.0000
  C   C1338     1.0  0.87224  0.18568  0.60672  1.0000
  C   C1339     1.0  0.75095  0.18455  0.59415  1.0000
  C   C1340     1.0  0.94529  0.09018  0.83797  1.0000
  H   H1071     1.0  0.49305  0.12005  0.73382  1.0000
  H   H1072     1.0  0.57127  0.12959  0.69972  1.0000
  H   H1073     1.0  0.96256  0.20981  0.53248  1.0000
  C   C1341     1.0  0.81368  0.12716  0.85978  1.0000
  C   C1342     1.0  0.48660  0.17578  0.78495  1.0000
  S   S191      1.0  0.47316  0.09033  0.94364  1.0000
  C   C1343     1.0  0.52222  0.09060  0.62368  1.0000
  C   C1344     1.0  0.77343  0.09048  0.84306  1.0000
  P   P44       1.0  0.47712  0.06981  0.76436  1.0000
  H   H1074     1.0  0.50581  0.07231  0.70207  1.0000
  C   C1345     1.0  0.79166  0.12596  0.80450  1.0000
  C   C1346     1.0  0.78607  0.02346  0.85923  1.0000
  C   C1347     1.0  0.66641  0.19591  0.97039  1.0000
  C   C1348     1.0  0.50891  0.05151  0.56746  1.0000
  H   H1075     1.0  0.93311  0.16618  0.92866  1.0000
  C   C1349     1.0  0.50717  0.01028  0.56223  1.0000
  C   C1350     1.0  0.52327  0.01864  0.53427  1.0000
  C   C1351     1.0  0.53255  0.04345  0.52327  1.0000
  C   C1352     1.0  0.52550  0.05987  0.53981  1.0000
  C   C1353     1.0  0.58726  0.19045  0.96343  1.0000
  H   H1076     1.0  0.89505  0.05776  0.96096  1.0000
  C   C1354     1.0  0.55886  0.09856  0.66200  1.0000
  C   C1355     1.0  0.77457  0.00510  0.88430  1.0000
  C   C1356     1.0  0.85685  0.14186  0.96516  1.0000
  C   C1357     1.0  0.79400  0.10314  0.86762  1.0000
  C   C1358     1.0  0.61284  0.19660  0.96748  1.0000
  C   C1359     1.0  0.72808  0.04047  0.51725  1.0000
  H   H1077     1.0  0.83474  0.07413  0.92673  1.0000
  C   C1360     1.0  0.52145  0.11129  0.63998  1.0000
  H   H1078     1.0  0.73509  0.18766  0.59984  1.0000
  H   H1079     1.0  0.53979  0.15008  0.51984  1.0000
  H   H1080     1.0  0.48483  0.03260  0.80422  1.0000
  C   C1361     1.0  0.55754  0.11870  0.67863  1.0000
  C   C1362     1.0  0.75248  0.09428  0.92495  1.0000
  H   H1081     1.0  0.62816  0.13054  0.50312  1.0000
  H   H1082     1.0  0.50204  0.03954  0.65922  1.0000
  H   H1083     1.0  0.76992  0.98557  0.87881  1.0000
  C   C1363     1.0  0.95516  0.14628  0.70347  1.0000
  H   H1084     1.0  0.72032  0.09909  0.93799  1.0000
  C   C1364     1.0  0.73542  0.09545  0.94797  1.0000
  H   H1085     1.0  0.63669  0.20770  0.51860  1.0000
  H   H1086     1.0  0.63163  0.16007  0.97080  1.0000
  C   C1365     1.0  0.91690  0.02875  0.52103  1.0000
  C   C1366     1.0  0.94888  0.05880  0.80172  1.0000
  P   P45       1.0  0.49929  0.07258  0.58839  1.0000
  C   C1367     1.0  0.49921  0.09450  0.55632  1.0000
  C   C1368     1.0  0.76947  0.01200  0.91687  1.0000
  C   C1369     1.0  0.47398  0.04647  0.73154  1.0000
  C   C1370     1.0  0.49084  0.05303  0.70426  1.0000
  H   H1087     1.0  0.95412  0.10609  0.85660  1.0000
  C   C1371     1.0  0.77442  0.08621  0.97383  1.0000
  C   C1372     1.0  0.95547  0.16750  0.84775  1.0000
  C   C1373     1.0  0.47603  0.00209  0.96970  1.0000
  C   C1374     1.0  0.83346  0.12906  0.94641  1.0000
  C   C1375     1.0  0.51104  0.19360  0.93763  1.0000
  C   C1376     1.0  0.46752  0.05427  0.60377  1.0000
  C   C1377     1.0  0.48853  0.03460  0.67954  1.0000
  C   C1378     1.0  0.77554  0.03714  0.92438  1.0000
  H   H1088     1.0  0.52809  0.00575  0.52049  1.0000
  C   C1379     1.0  0.78658  0.05564  0.89908  1.0000
  H   H1089     1.0  0.46676  0.99566  0.66134  1.0000
  P   P46       1.0  0.82705  0.21881  0.62068  1.0000
  H   H1090     1.0  0.75020  0.09724  0.89745  1.0000
  C   C1380     1.0  0.95337  0.17593  0.88110  1.0000
  H   H1091     1.0  0.53026  0.19637  0.93994  1.0000
  C   C1381     1.0  0.69569  0.97980  0.50317  1.0000
  C   C1382     1.0  0.69594  0.22279  0.55170  1.0000
  H   H1092     1.0  0.75941  0.98493  0.52094  1.0000
  H   H1093     1.0  0.48539  0.97950  0.93506  1.0000
  C   C1383     1.0  0.49764  0.19118  0.96778  1.0000
  P   P47       1.0  0.74336  0.02295  0.50116  1.0000
  H   H1094     1.0  0.77741  0.21668  0.62544  1.0000
  C   C1384     1.0  0.86395  0.10584  0.95618  1.0000
  H   H1095     1.0  0.71101  0.21042  0.90918  1.0000
  C   C1385     1.0  0.47788  0.98027  0.96011  1.0000
  H   H1096     1.0  0.75655  0.22268  0.55032  1.0000
  H   H1097     1.0  0.47475  0.01971  0.49235  1.0000
  C   C1386     1.0  0.47756  0.10556  0.50999  1.0000
  C   C1387     1.0  0.46868  0.00984  0.68079  1.0000
  H   H1098     1.0  0.85407  0.20178  0.57399  1.0000
  H   H1099     1.0  0.70522  0.21456  0.56792  1.0000
  C   C1388     1.0  0.65710  0.21860  0.52360  1.0000
  C   C1389     1.0  0.91194  0.03907  0.49092  1.0000
  C   C1390     1.0  0.76836  0.21732  0.49998  1.0000
  C   C1391     1.0  0.47186  0.03692  0.81810  1.0000
  H   H1100     1.0  0.46968  0.01303  0.86124  1.0000
  H   H1101     1.0  0.90363  0.05146  0.49394  1.0000
  H   H1102     1.0  0.86303  0.16064  0.97638  1.0000
  C   C1392     1.0  0.83468  0.98862  0.49226  1.0000
  C   C1393     1.0  0.50008  0.12768  0.50432  1.0000
  C   C1394     1.0  0.47271  0.18732  0.96488  1.0000
  H   H1103     1.0  0.46886  0.14148  0.71370  1.0000
  H   H1104     1.0  0.70250  0.22897  0.96147  1.0000
  H   H1105     1.0  0.47322  0.07796  0.65018  1.0000
  C   C1395     1.0  0.93345  0.00690  0.48548  1.0000
  H   H1106     1.0  0.93971  0.08993  0.97855  1.0000
  C   C1396     1.0  0.96612  0.15435  0.97684  1.0000
  H   H1107     1.0  0.48323  0.22837  0.84711  1.0000
  H   H1108     1.0  0.94187  0.99451  0.48341  1.0000
  H   H1109     1.0  0.96614  0.09544  0.60211  1.0000
  H   H1110     1.0  0.96653  0.19506  0.89042  1.0000
  H   H1111     1.0  0.50068  0.14021  0.48368  1.0000
  C   C1397     1.0  0.76774  0.24487  0.45449  1.0000
  Fe  Fe95      1.0  0.81753  0.45628  0.39407  1.0000
  S   S192      1.0  0.78531  0.42182  0.41565  1.0000
  Fe  Fe96      1.0  0.85802  0.44130  0.42336  1.0000
  S   S193      1.0  0.82722  0.40555  0.44550  1.0000
  H   H1112     1.0  0.91509  0.43044  0.13432  1.0000
  Fe  Fe97      1.0  0.80482  0.40046  0.39434  1.0000
  S   S194      1.0  0.77797  0.36253  0.36534  1.0000
  Fe  Fe98      1.0  0.81066  0.43016  0.46435  1.0000
  S   S195      1.0  0.83616  0.43489  0.37060  1.0000
  S   S196      1.0  0.80934  0.35189  0.01465  1.0000
  Fe  Fe99      1.0  0.49722  0.37784  0.45760  1.0000
  Fe  Fe100     1.0  0.53350  0.41222  0.40092  1.0000
  S   S197      1.0  0.50068  0.41024  0.36794  1.0000
  S   S198      1.0  0.57440  0.42978  0.38164  1.0000
  Fe  Fe101     1.0  0.48598  0.41695  0.41888  1.0000
  H   H1113     1.0  0.83933  0.34233  0.11589  1.0000
  C   C1398     1.0  0.86586  0.42418  0.03112  1.0000
  S   S199      1.0  0.51984  0.42054  0.45159  1.0000
  S   S200      1.0  0.51417  0.36997  0.41009  1.0000
  H   H1114     1.0  0.69691  0.26487  0.42395  1.0000
  C   C1399     1.0  0.72748  0.44756  0.17839  1.0000
  S   S201      1.0  0.74715  0.24787  0.09389  1.0000
  Fe  Fe102     1.0  0.76619  0.24944  0.22866  1.0000
  S   S202      1.0  0.79201  0.28311  0.26631  1.0000
  S   S203      1.0  0.73060  0.24380  0.19874  1.0000
  H   H1115     1.0  0.73400  0.29314  0.03589  1.0000
  C   C1400     1.0  0.79452  0.32237  0.03634  1.0000
  C   C1401     1.0  0.78380  0.29885  0.01830  1.0000
  C   C1402     1.0  0.77016  0.27619  0.03651  1.0000
  C   C1403     1.0  0.76757  0.27662  0.07309  1.0000
  C   C1404     1.0  0.77922  0.30005  0.09128  1.0000
  C   C1405     1.0  0.79226  0.32270  0.07295  1.0000
  H   H1116     1.0  0.76427  0.45664  0.20045  1.0000
  H   H1117     1.0  0.76096  0.25825  0.02204  1.0000
  H   H1118     1.0  0.77717  0.30083  0.11926  1.0000
  H   H1119     1.0  0.80011  0.34071  0.08716  1.0000
  S   S204      1.0  0.46921  0.44486  0.41860  1.0000
  C   C1406     1.0  0.47357  0.29783  0.41510  1.0000
  C   C1407     1.0  0.78267  0.34161  0.33638  1.0000
  C   C1408     1.0  0.76144  0.32200  0.31796  1.0000
  C   C1409     1.0  0.76388  0.30423  0.29600  1.0000
  C   C1410     1.0  0.78767  0.30561  0.29241  1.0000
  C   C1411     1.0  0.80889  0.32518  0.31092  1.0000
  C   C1412     1.0  0.80648  0.34311  0.33257  1.0000
  H   H1120     1.0  0.74296  0.32064  0.32066  1.0000
  H   H1121     1.0  0.74734  0.28939  0.28203  1.0000
  H   H1122     1.0  0.82740  0.32649  0.30850  1.0000
  H   H1123     1.0  0.82302  0.35792  0.34659  1.0000
  C   C1413     1.0  0.95204  0.45001  0.11329  1.0000
  H   H1124     1.0  0.69252  0.44401  0.15509  1.0000
  H   H1125     1.0  0.70877  0.24668  0.03790  1.0000
  H   H1126     1.0  0.49344  0.31888  0.34091  1.0000
  H   H1127     1.0  0.49547  0.28386  0.30843  1.0000
  Fe  Fe103     1.0  0.48080  0.36847  0.37905  1.0000
  C   C1414     1.0  0.61577  0.45717  0.34143  1.0000
  C   C1415     1.0  0.59288  0.45507  0.35337  1.0000
  H   H1128     1.0  0.70318  0.28264  0.35320  1.0000
  H   H1129     1.0  0.62138  0.44312  0.34875  1.0000
  H   H1130     1.0  0.71859  0.31760  0.00016  1.0000
  H   H1131     1.0  0.74888  0.45056  0.26943  1.0000
  H   H1132     1.0  0.77805  0.44971  0.31693  1.0000
  H   H1133     1.0  0.48806  0.23758  0.32273  1.0000
  C   C1416     1.0  0.69705  0.23341  0.30091  1.0000
  H   H1134     1.0  0.93060  0.39104  0.05144  1.0000
  C   C1417     1.0  0.53061  0.37311  0.29883  1.0000
  C   C1418     1.0  0.86960  0.39706  0.07528  1.0000
  C   C1419     1.0  0.49687  0.44126  0.07524  1.0000
  C   C1420     1.0  0.50307  0.42577  0.17040  1.0000
  H   H1135     1.0  0.47611  0.24282  0.40561  1.0000
  H   H1136     1.0  0.56350  0.38742  0.33454  1.0000
  C   C1421     1.0  0.68347  0.28479  0.98304  1.0000
  H   H1137     1.0  0.63453  0.42036  0.46368  1.0000
  H   H1138     1.0  0.50464  0.39820  0.13534  1.0000
  P   P48       1.0  0.71359  0.24061  0.37162  1.0000
  H   H1139     1.0  0.48572  0.44824  0.00267  1.0000
  H   H1140     1.0  0.83424  0.30259  0.09383  1.0000
  C   C1422     1.0  0.65362  0.43491  0.47140  1.0000
  C   C1423     1.0  0.47941  0.28715  0.30347  1.0000
  S   S205      1.0  0.78393  0.24394  0.18031  1.0000
  C   C1424     1.0  0.58324  0.47909  0.23548  1.0000
  C   C1425     1.0  0.84318  0.33867  0.17141  1.0000
  C   C1426     1.0  0.69110  0.27684  0.29895  1.0000
  H   H1141     1.0  0.94838  0.45036  0.41978  1.0000
  C   C1427     1.0  0.89281  0.37829  0.16724  1.0000
  C   C1428     1.0  0.49281  0.42109  0.25601  1.0000
  C   C1429     1.0  0.55097  0.45926  0.14720  1.0000
  H   H1142     1.0  0.81739  0.40464  0.08642  1.0000
  H   H1143     1.0  0.90673  0.34672  0.10342  1.0000
  C   C1430     1.0  0.88342  0.35577  0.06781  1.0000
  H   H1144     1.0  0.65822  0.39494  0.19861  1.0000
  C   C1431     1.0  0.86456  0.32699  0.01717  1.0000
  P   P49       1.0  0.88745  0.38259  0.09435  1.0000
  C   C1432     1.0  0.47596  0.45899  0.99648  1.0000
  C   C1433     1.0  0.47838  0.30720  0.32190  1.0000
  C   C1434     1.0  0.82470  0.47108  0.24402  1.0000
  C   C1435     1.0  0.70122  0.25705  0.02288  1.0000
  C   C1436     1.0  0.71706  0.27685  0.42109  1.0000
  H   H1145     1.0  0.54122  0.43600  0.02838  1.0000
  H   H1146     1.0  0.51729  0.36388  0.31910  1.0000
  C   C1437     1.0  0.53825  0.43436  0.13392  1.0000
  H   H1147     1.0  0.51403  0.24280  0.22876  1.0000
  H   H1148     1.0  0.64521  0.46619  0.11824  1.0000
  C   C1438     1.0  0.71579  0.45930  0.39193  1.0000
  H   H1149     1.0  0.48777  0.39035  0.28944  1.0000
  C   C1439     1.0  0.81476  0.47838  0.21526  1.0000
  C   C1440     1.0  0.89506  0.34144  0.07923  1.0000
  C   C1441     1.0  0.96077  0.47646  0.01169  1.0000
  H   H1150     1.0  0.48591  0.31792  0.41918  1.0000
  C   C1442     1.0  0.73042  0.26947  0.39829  1.0000
  H   H1151     1.0  0.95783  0.46700  0.12940  1.0000
  C   C1443     1.0  0.72028  0.43996  0.40513  1.0000
  H   H1152     1.0  0.84043  0.38417  0.11353  1.0000
  C   C1444     1.0  0.76849  0.30947  0.41193  1.0000
  H   H1153     1.0  0.85243  0.32124  0.99339  1.0000
  H   H1154     1.0  0.78510  0.29821  0.99013  1.0000
  C   C1445     1.0  0.85192  0.34954  0.13914  1.0000
  C   C1446     1.0  0.81813  0.24327  0.06265  1.0000
  C   C1447     1.0  0.92796  0.42915  0.11625  1.0000
  H   H1155     1.0  0.51165  0.42488  0.24916  1.0000
  C   C1448     1.0  0.83371  0.27274  0.12530  1.0000
  C   C1449     1.0  0.76928  0.23000  0.32781  1.0000
  H   H1156     1.0  0.89526  0.41350  0.03315  1.0000
  H   H1157     1.0  0.68924  0.29390  0.29804  1.0000
  H   H1158     1.0  0.90063  0.30918  0.06850  1.0000
  C   C1450     1.0  0.87664  0.36973  0.13685  1.0000
  H   H1159     1.0  0.47847  0.42961  0.08575  1.0000
  C   C1451     1.0  0.92879  0.46222  0.45556  1.0000
  H   H1160     1.0  0.56967  0.47203  0.13842  1.0000
  C   C1452     1.0  0.82028  0.23262  0.09444  1.0000
  C   C1453     1.0  0.87644  0.31301  0.02844  1.0000
  C   C1454     1.0  0.68609  0.26169  0.26862  1.0000
  C   C1455     1.0  0.55666  0.38631  0.30749  1.0000
  H   H1161     1.0  0.51964  0.46843  0.28835  1.0000
  H   H1162     1.0  0.89642  0.37416  0.22303  1.0000
  H   H1163     1.0  0.49964  0.40945  0.05346  1.0000
  C   C1456     1.0  0.85916  0.34767  0.20166  1.0000
  C   C1457     1.0  0.93658  0.40693  0.06979  1.0000
  H   H1164     1.0  0.83941  0.28402  0.14956  1.0000
  C   C1458     1.0  0.67731  0.24444  0.00492  1.0000
  C   C1459     1.0  0.82302  0.26856  0.06285  1.0000
  C   C1460     1.0  0.69534  0.46725  0.45535  1.0000
  H   H1165     1.0  0.48436  0.41257  0.17875  1.0000
  S   S206      1.0  0.84225  0.46584  0.44433  1.0000
  C   C1461     1.0  0.61938  0.45327  0.07220  1.0000
  C   C1462     1.0  0.87852  0.41172  0.04546  1.0000
  S   S207      1.0  0.58629  0.43594  0.01393  1.0000
  Fe  Fe104     1.0  0.74762  0.23615  0.15117  1.0000
  C   C1463     1.0  0.70853  0.43996  0.33350  1.0000
  C   C1464     1.0  0.82247  0.24496  0.98599  1.0000
  H   H1166     1.0  0.78356  0.23940  0.30872  1.0000
  C   C1465     1.0  0.48398  0.28149  0.41259  1.0000
  C   C1466     1.0  0.63667  0.47167  0.09683  1.0000
  H   H1167     1.0  0.75549  0.27173  0.46938  1.0000
  C   C1467     1.0  0.50828  0.46767  0.07871  1.0000
  C   C1468     1.0  0.86815  0.34841  0.03662  1.0000
  C   C1469     1.0  0.55295  0.35668  0.13852  1.0000
  C   C1470     1.0  0.55606  0.36948  0.10720  1.0000
  C   C1471     1.0  0.56878  0.39591  0.10774  1.0000
  C   C1472     1.0  0.57836  0.40965  0.13960  1.0000
  C   C1473     1.0  0.57473  0.39696  0.17134  1.0000
  C   C1474     1.0  0.56239  0.37032  0.17041  1.0000
  P   P50       1.0  0.58713  0.41414  0.21296  1.0000
  C   C1475     1.0  0.59134  0.44602  0.21178  1.0000
  C   C1476     1.0  0.56517  0.39746  0.24655  1.0000
  C   C1477     1.0  0.57391  0.39848  0.28153  1.0000
  C   C1478     1.0  0.70980  0.45912  0.35590  1.0000
  H   H1168     1.0  0.72389  0.40678  0.39257  1.0000
  C   C1479     1.0  0.52173  0.37204  0.26413  1.0000
  C   C1480     1.0  0.53887  0.38448  0.23815  1.0000
  C   C1481     1.0  0.57743  0.45364  0.23319  1.0000
  C   C1482     1.0  0.48210  0.43585  0.24277  1.0000
  H   H1169     1.0  0.76423  0.33566  0.44620  1.0000
  C   C1483     1.0  0.84772  0.39501  0.09040  1.0000
  C   C1484     1.0  0.61094  0.46431  0.19265  1.0000
  C   C1485     1.0  0.61824  0.41731  0.22346  1.0000
  C   C1486     1.0  0.62676  0.40224  0.20603  1.0000
  C   C1487     1.0  0.65160  0.40632  0.21254  1.0000
  C   C1488     1.0  0.66808  0.42538  0.23649  1.0000
  C   C1489     1.0  0.65963  0.44012  0.25437  1.0000
  C   C1490     1.0  0.63487  0.43618  0.24782  1.0000
  H   H1170     1.0  0.54329  0.33616  0.13805  1.0000
  H   H1171     1.0  0.54881  0.35897  0.08241  1.0000
  H   H1172     1.0  0.57125  0.40575  0.08327  1.0000
  H   H1173     1.0  0.58833  0.43007  0.13909  1.0000
  H   H1174     1.0  0.56008  0.36005  0.19437  1.0000
  H   H1175     1.0  0.59392  0.40893  0.28912  1.0000
  H   H1176     1.0  0.77058  0.25075  0.42750  1.0000
  H   H1177     1.0  0.83349  0.43046  0.03377  1.0000
  H   H1178     1.0  0.50150  0.36161  0.25751  1.0000
  H   H1179     1.0  0.53156  0.38402  0.21158  1.0000
  H   H1180     1.0  0.56286  0.44033  0.24935  1.0000
  H   H1181     1.0  0.70443  0.44026  0.30564  1.0000
  H   H1182     1.0  0.82059  0.27710  0.03921  1.0000
  H   H1183     1.0  0.91224  0.39310  0.16619  1.0000
  H   H1184     1.0  0.62276  0.45925  0.17724  1.0000
  H   H1185     1.0  0.61453  0.38768  0.18693  1.0000
  H   H1186     1.0  0.76692  0.28167  0.37533  1.0000
  H   H1187     1.0  0.68757  0.42910  0.24086  1.0000
  H   H1188     1.0  0.67259  0.45522  0.27247  1.0000
  H   H1189     1.0  0.62892  0.44836  0.26107  1.0000
  H   H1190     1.0  0.54664  0.42831  0.11382  1.0000
  H   H1191     1.0  0.49838  0.47606  0.09200  1.0000
  C   C1491     1.0  0.75625  0.28607  0.39380  1.0000
  H   H1192     1.0  0.87364  0.29650  0.01323  1.0000
  H   H1193     1.0  0.75452  0.25607  0.32268  1.0000
  C   C1492     1.0  0.71371  0.42118  0.34665  1.0000
  C   C1493     1.0  0.83081  0.28321  0.09402  1.0000
  C   C1494     1.0  0.92016  0.40726  0.09491  1.0000
  C   C1495     1.0  0.83471  0.40697  0.07538  1.0000
  C   C1496     1.0  0.69909  0.27032  0.33031  1.0000
  H   H1194     1.0  0.78813  0.32263  0.40716  1.0000
  C   C1497     1.0  0.53212  0.44486  0.04264  1.0000
  H   H1195     1.0  0.82696  0.45426  0.24207  1.0000
  C   C1498     1.0  0.82835  0.24741  0.12550  1.0000
  C   C1499     1.0  0.77457  0.46576  0.31514  1.0000
  H   H1196     1.0  0.68023  0.26689  0.24418  1.0000
  H   H1197     1.0  0.85889  0.35903  0.02724  1.0000
  C   C1500     1.0  0.75498  0.31684  0.43399  1.0000
  C   C1501     1.0  0.70233  0.24863  0.33150  1.0000
  C   C1502     1.0  0.50870  0.42987  0.05694  1.0000
  P   P51       1.0  0.49997  0.46157  0.21414  1.0000
  S   S208      1.0  0.90006  0.44926  0.42769  1.0000
  C   C1503     1.0  0.89164  0.32018  0.05952  1.0000
  H   H1198     1.0  0.50442  0.28903  0.41454  1.0000
  C   C1504     1.0  0.47943  0.40154  0.27881  1.0000
  H   H1199     1.0  0.71360  0.40689  0.32898  1.0000
  C   C1505     1.0  0.71955  0.42116  0.38247  1.0000
  C   C1506     1.0  0.72931  0.30051  0.43872  1.0000
  H   H1200     1.0  0.87299  0.43553  0.00821  1.0000
  H   H1201     1.0  0.66468  0.44323  0.41823  1.0000
  H   H1202     1.0  0.71863  0.42871  0.18870  1.0000
  H   H1203     1.0  0.61497  0.43372  0.07478  1.0000
  C   C1507     1.0  0.68892  0.23995  0.26969  1.0000
  C   C1508     1.0  0.60845  0.46006  0.04367  1.0000
  C   C1509     1.0  0.84377  0.42152  0.04574  1.0000
  C   C1510     1.0  0.63176  0.47751  0.32063  1.0000
  C   C1511     1.0  0.88399  0.36739  0.19956  1.0000
  H   H1204     1.0  0.82396  0.32326  0.17303  1.0000
  H   H1205     1.0  0.71875  0.30667  0.45500  1.0000
  C   C1512     1.0  0.75284  0.23953  0.33596  1.0000
  C   C1513     1.0  0.96054  0.42792  0.06669  1.0000
  H   H1206     1.0  0.52387  0.23178  0.17056  1.0000
  C   C1514     1.0  0.51445  0.41753  0.14578  1.0000
  H   H1207     1.0  0.85228  0.33925  0.22671  1.0000
  H   H1208     1.0  0.47414  0.44746  0.14368  1.0000
  C   C1515     1.0  0.47884  0.47048  0.19034  1.0000
  C   C1516     1.0  0.75939  0.25684  0.47833  1.0000
  C   C1517     1.0  0.51552  0.45097  0.18347  1.0000
  C   C1518     1.0  0.53961  0.46766  0.17163  1.0000
  C   C1519     1.0  0.71577  0.28338  0.02153  1.0000
  C   C1520     1.0  0.46929  0.46067  0.15623  1.0000
  H   H1209     1.0  0.66861  0.23219  0.07814  1.0000
  C   C1521     1.0  0.94001  0.45795  0.99071  1.0000
  H   H1210     1.0  0.70638  0.47378  0.34474  1.0000
  H   H1211     1.0  0.56880  0.47253  0.35298  1.0000
  H   H1212     1.0  0.72491  0.43976  0.43285  1.0000
  C   C1522     1.0  0.75353  0.46353  0.18496  1.0000
  C   C1523     1.0  0.75815  0.46641  0.28800  1.0000
  C   C1524     1.0  0.70700  0.29723  0.00151  1.0000
  C   C1525     1.0  0.71277  0.45617  0.15953  1.0000
  C   C1526     1.0  0.94982  0.45978  0.44474  1.0000
  H   H1213     1.0  0.82974  0.23895  0.14997  1.0000
  H   H1214     1.0  0.80966  0.46720  0.19098  1.0000
  C   C1527     1.0  0.58615  0.47364  0.34383  1.0000
  H   H1215     1.0  0.92088  0.45086  0.99909  1.0000
  C   C1528     1.0  0.67072  0.44801  0.44570  1.0000
  C   C1529     1.0  0.54354  0.47124  0.04583  1.0000
  C   C1530     1.0  0.66864  0.25850  0.98472  1.0000
  C   C1531     1.0  0.46803  0.25549  0.40754  1.0000
  H   H1216     1.0  0.64952  0.47906  0.31247  1.0000
  H   H1217     1.0  0.79364  0.25704  0.98260  1.0000
  H   H1218     1.0  0.85414  0.23727  0.98160  1.0000
  Fe  Fe105     1.0  0.52806  0.45240  0.92697  1.0000
  S   S209      1.0  0.52541  0.41780  0.95320  1.0000
  H   H1219     1.0  0.82157  0.40357  0.57318  1.0000
  H   H1220     1.0  0.64532  0.45321  0.67962  1.0000
  S   S210      1.0  0.57547  0.42588  0.91102  1.0000
  Fe  Fe106     1.0  0.53289  0.40594  0.90039  1.0000
  S   S211      1.0  0.51464  0.36367  0.88354  1.0000
  Fe  Fe107     1.0  0.56809  0.44023  0.96192  1.0000
  S   S212      1.0  0.53321  0.43924  0.87314  1.0000
  C   C1532     1.0  0.85542  0.26398  0.94390  1.0000
  S   S213      1.0  0.80113  0.42916  0.52218  1.0000
  H   H1221     1.0  0.61953  0.27597  0.73364  1.0000
  S   S214      1.0  0.85630  0.35867  0.94066  1.0000
  Fe  Fe108     1.0  0.82350  0.39310  0.89179  1.0000
  S   S215      1.0  0.85567  0.38865  0.86999  1.0000
  S   S216      1.0  0.79961  0.40916  0.86318  1.0000
  Fe  Fe109     1.0  0.83460  0.34845  0.88811  1.0000
  S   S217      1.0  0.82939  0.31257  0.85913  1.0000
  Fe  Fe110     1.0  0.87467  0.39951  0.92483  1.0000
  S   S218      1.0  0.91858  0.42512  0.93109  1.0000
  S   S219      1.0  0.80165  0.35213  0.90760  1.0000
  S   S220      1.0  0.84330  0.40587  0.94575  1.0000
  S   S221      1.0  0.49229  0.36096  0.51326  1.0000
  C   C1533     1.0  0.73830  0.25447  0.61589  1.0000
  C   C1534     1.0  0.85528  0.45918  0.63640  1.0000
  H   H1222     1.0  0.47843  0.34718  0.58451  1.0000
  C   C1535     1.0  0.84232  0.24345  0.58956  1.0000
  S   S222      1.0  0.68928  0.47543  0.76021  1.0000
  H   H1223     1.0  0.83522  0.43521  0.67859  1.0000
  C   C1536     1.0  0.88079  0.27635  0.56570  1.0000
  H   H1224     1.0  0.91579  0.47735  0.49651  1.0000
  C   C1537     1.0  0.78971  0.26934  0.62976  1.0000
  H   H1225     1.0  0.48366  0.32200  0.70596  1.0000
  H   H1226     1.0  0.47152  0.23392  0.78624  1.0000
  C   C1538     1.0  0.82391  0.38788  0.62306  1.0000
  H   H1227     1.0  0.77839  0.23459  0.78737  1.0000
  C   C1539     1.0  0.82375  0.44462  0.81115  1.0000
  C   C1540     1.0  0.80194  0.43118  0.83013  1.0000
  C   C1541     1.0  0.78094  0.43527  0.82275  1.0000
  C   C1542     1.0  0.86618  0.28167  0.54115  1.0000
  H   H1228     1.0  0.84011  0.44185  0.81640  1.0000
  C   C1543     1.0  0.78388  0.44280  0.54222  1.0000
  C   C1544     1.0  0.53127  0.39312  0.62979  1.0000
  C   C1545     1.0  0.84077  0.25799  0.67097  1.0000
  C   C1546     1.0  0.67102  0.24164  0.50738  1.0000
  H   H1229     1.0  0.50409  0.31452  0.75853  1.0000
  C   C1547     1.0  0.76348  0.26064  0.78133  1.0000
  C   C1548     1.0  0.76591  0.28400  0.79304  1.0000
  C   C1549     1.0  0.78520  0.29956  0.81807  1.0000
  C   C1550     1.0  0.80283  0.29225  0.83098  1.0000
  C   C1551     1.0  0.80003  0.26858  0.81995  1.0000
  C   C1552     1.0  0.78024  0.25267  0.79568  1.0000
  H   H1230     1.0  0.75282  0.29017  0.78267  1.0000
  H   H1231     1.0  0.78686  0.31754  0.82661  1.0000
  H   H1232     1.0  0.81340  0.26261  0.83004  1.0000
  C   C1553     1.0  0.81085  0.25871  0.97199  1.0000
  C   C1554     1.0  0.84481  0.24766  0.97160  1.0000
  C   C1555     1.0  0.78707  0.39071  0.60068  1.0000
  H   H1233     1.0  0.62422  0.44963  0.84858  1.0000
  H   H1234     1.0  0.65706  0.44619  0.81447  1.0000
  C   C1556     1.0  0.49428  0.34512  0.84730  1.0000
  H   H1235     1.0  0.77519  0.46046  0.62431  1.0000
  C   C1557     1.0  0.53775  0.32895  0.67053  1.0000
  H   H1236     1.0  0.84314  0.39119  0.61998  1.0000
  C   C1558     1.0  0.77286  0.26076  0.65691  1.0000
  C   C1559     1.0  0.47364  0.30447  0.81402  1.0000
  C   C1560     1.0  0.66113  0.44053  0.50695  1.0000
  H   H1237     1.0  0.54698  0.33297  0.64578  1.0000
  C   C1561     1.0  0.47220  0.46583  0.48625  1.0000
  C   C1562     1.0  0.48930  0.31983  0.84257  1.0000
  P   P52       1.0  0.74411  0.26397  0.54388  1.0000
  H   H1238     1.0  0.53615  0.39434  0.82304  1.0000
  C   C1563     1.0  0.75646  0.29746  0.53670  1.0000
  C   C1564     1.0  0.78007  0.31157  0.52172  1.0000
  C   C1565     1.0  0.78952  0.33748  0.51639  1.0000
  C   C1566     1.0  0.77573  0.34959  0.52646  1.0000
  C   C1567     1.0  0.75267  0.33589  0.54248  1.0000
  C   C1568     1.0  0.74317  0.30998  0.54790  1.0000
  C   C1569     1.0  0.47443  0.32990  0.57033  1.0000
  Fe  Fe111     1.0  0.57561  0.45987  0.88657  1.0000
  C   C1570     1.0  0.75495  0.26233  0.58824  1.0000
  C   C1571     1.0  0.82454  0.46196  0.78564  1.0000
  H   H1239     1.0  0.53920  0.40549  0.68388  1.0000
  C   C1572     1.0  0.65296  0.46164  0.80984  1.0000
  H   H1240     1.0  0.80966  0.27541  0.63528  1.0000
  C   C1573     1.0  0.77278  0.45714  0.59615  1.0000
  H   H1241     1.0  0.61964  0.35345  0.67968  1.0000
  C   C1574     1.0  0.81180  0.39482  0.59668  1.0000
  C   C1575     1.0  0.56873  0.42221  0.79776  1.0000
  C   C1576     1.0  0.82529  0.46490  0.67109  1.0000
  C   C1577     1.0  0.48305  0.35472  0.82328  1.0000
  H   H1242     1.0  0.66845  0.41592  0.74973  1.0000
  C   C1578     1.0  0.83861  0.26829  0.70291  1.0000
  C   C1579     1.0  0.90928  0.44066  0.57059  1.0000
  H   H1243     1.0  0.82121  0.37193  0.67369  1.0000
  H   H1244     1.0  0.76395  0.42509  0.83716  1.0000
  H   H1245     1.0  0.57990  0.45950  0.71056  1.0000
  C   C1580     1.0  0.84380  0.27767  0.93032  1.0000
  P   P53       1.0  0.59286  0.41885  0.69979  1.0000
  H   H1246     1.0  0.65872  0.37551  0.71854  1.0000
  H   H1247     1.0  0.47809  0.30863  0.48918  1.0000
  C   C1581     1.0  0.62398  0.37113  0.69311  1.0000
  H   H1248     1.0  0.51169  0.38933  0.62983  1.0000
  C   C1582     1.0  0.63612  0.46438  0.68593  1.0000
  C   C1583     1.0  0.89520  0.42665  0.54070  1.0000
  H   H1249     1.0  0.85126  0.28802  0.70999  1.0000
  H   H1250     1.0  0.69174  0.46340  0.54441  1.0000
  H   H1251     1.0  0.67681  0.29557  0.96729  1.0000
  H   H1252     1.0  0.87543  0.29633  0.52232  1.0000
  C   C1584     1.0  0.57227  0.40683  0.66055  1.0000
  C   C1585     1.0  0.86894  0.25732  0.58985  1.0000
  C   C1586     1.0  0.68571  0.45932  0.51681  1.0000
  H   H1253     1.0  0.90135  0.28693  0.56594  1.0000
  C   C1587     1.0  0.83821  0.45145  0.66335  1.0000
  H   H1254     1.0  0.85525  0.27005  0.65367  1.0000
  H   H1255     1.0  0.80036  0.44381  0.59392  1.0000
  C   C1588     1.0  0.57492  0.41101  0.73892  1.0000
  H   H1256     1.0  0.80754  0.34824  0.50427  1.0000
  C   C1589     1.0  0.82029  0.25311  0.72601  1.0000
  H   H1257     1.0  0.88055  0.25347  0.60876  1.0000
  C   C1590     1.0  0.59947  0.46802  0.70317  1.0000
  C   C1591     1.0  0.51407  0.32797  0.67249  1.0000
  C   C1592     1.0  0.71472  0.29353  0.64981  1.0000
  C   C1593     1.0  0.70689  0.27698  0.67769  1.0000
  C   C1594     1.0  0.71819  0.28546  0.71125  1.0000
  C   C1595     1.0  0.73722  0.31050  0.71705  1.0000
  C   C1596     1.0  0.74555  0.32720  0.68914  1.0000
  C   C1597     1.0  0.73401  0.31854  0.65544  1.0000
  P   P54       1.0  0.77014  0.35959  0.69743  1.0000
  C   C1598     1.0  0.75619  0.37842  0.71319  1.0000
  C   C1599     1.0  0.79224  0.35948  0.73093  1.0000
  C   C1600     1.0  0.80147  0.37762  0.75874  1.0000
  C   C1601     1.0  0.81770  0.37663  0.78528  1.0000
  C   C1602     1.0  0.82498  0.35773  0.78416  1.0000
  C   C1603     1.0  0.81606  0.33977  0.75646  1.0000
  C   C1604     1.0  0.79973  0.34058  0.72993  1.0000
  C   C1605     1.0  0.76700  0.40422  0.70558  1.0000
  C   C1606     1.0  0.75696  0.41912  0.71897  1.0000
  C   C1607     1.0  0.73629  0.40854  0.74045  1.0000
  C   C1608     1.0  0.72566  0.38299  0.74865  1.0000
  C   C1609     1.0  0.73556  0.36795  0.73510  1.0000
  C   C1610     1.0  0.78650  0.37289  0.65780  1.0000
  C   C1611     1.0  0.77456  0.38005  0.63117  1.0000
  H   H1258     1.0  0.70588  0.28690  0.62383  1.0000
  H   H1259     1.0  0.69222  0.25749  0.67336  1.0000
  H   H1260     1.0  0.71239  0.27253  0.73283  1.0000
  H   H1261     1.0  0.74555  0.31677  0.74338  1.0000
  H   H1262     1.0  0.73982  0.33087  0.63341  1.0000
  H   H1263     1.0  0.79591  0.39230  0.76060  1.0000
  H   H1264     1.0  0.82417  0.39029  0.80715  1.0000
  H   H1265     1.0  0.83705  0.35654  0.80518  1.0000
  H   H1266     1.0  0.79256  0.32617  0.70906  1.0000
  H   H1267     1.0  0.78349  0.41303  0.68993  1.0000
  H   H1268     1.0  0.76567  0.43912  0.71352  1.0000
  H   H1269     1.0  0.72900  0.42036  0.75147  1.0000
  H   H1270     1.0  0.71016  0.37503  0.76622  1.0000
  H   H1271     1.0  0.72745  0.34840  0.74249  1.0000
  H   H1272     1.0  0.75562  0.37761  0.63410  1.0000
  C   C1612     1.0  0.76662  0.44804  0.52309  1.0000
  H   H1273     1.0  0.73423  0.24677  0.67113  1.0000
  H   H1274     1.0  0.72543  0.29974  0.56074  1.0000
  C   C1613     1.0  0.78179  0.45270  0.79742  1.0000
  H   H1275     1.0  0.87266  0.26607  0.93284  1.0000
  H   H1276     1.0  0.86633  0.42124  0.50125  1.0000
  H   H1277     1.0  0.79126  0.30269  0.51413  1.0000
  Fe  Fe112     1.0  0.82416  0.36426  0.95934  1.0000
  C   C1614     1.0  0.82777  0.24907  0.56501  1.0000
  C   C1615     1.0  0.63424  0.46348  0.82926  1.0000
  H   H1278     1.0  0.70780  0.27309  0.50064  1.0000
  C   C1616     1.0  0.75597  0.24944  0.51336  1.0000
  H   H1279     1.0  0.66138  0.24859  0.48956  1.0000
  C   C1617     1.0  0.90514  0.45996  0.58443  1.0000
  H   H1280     1.0  0.63943  0.43396  0.74222  1.0000
  H   H1281     1.0  0.52260  0.36306  0.77347  1.0000
  C   C1618     1.0  0.75492  0.46161  0.57722  1.0000
  H   H1282     1.0  0.71847  0.24926  0.61158  1.0000
  C   C1619     1.0  0.54691  0.39888  0.79959  1.0000
  C   C1620     1.0  0.65143  0.40615  0.73265  1.0000
  C   C1621     1.0  0.58211  0.40407  0.62894  1.0000
  C   C1622     1.0  0.74721  0.25334  0.64992  1.0000
  H   H1283     1.0  0.57397  0.39285  0.57397  1.0000
  S   S223      1.0  0.73747  0.46915  0.70374  1.0000
  H   H1284     1.0  0.52884  0.38271  0.57494  1.0000
  C   C1623     1.0  0.83967  0.26805  0.54082  1.0000
  C   C1624     1.0  0.60773  0.38169  0.68830  1.0000
  C   C1625     1.0  0.49604  0.24477  0.83302  1.0000
  C   C1626     1.0  0.81134  0.37691  0.65352  1.0000
  H   H1285     1.0  0.74222  0.34546  0.55069  1.0000
  H   H1286     1.0  0.57682  0.25862  0.70349  1.0000
  H   H1287     1.0  0.89914  0.41243  0.52905  1.0000
  C   C1627     1.0  0.55345  0.38720  0.74146  1.0000
  C   C1628     1.0  0.69734  0.25554  0.51389  1.0000
  S   S224      1.0  0.74051  0.24313  0.74700  1.0000
  H   H1288     1.0  0.82836  0.27210  0.52165  1.0000
  H   H1289     1.0  0.81256  0.28566  0.93359  1.0000
  C   C1629     1.0  0.87667  0.43163  0.52500  1.0000
  H   H1290     1.0  0.48211  0.45566  0.49493  1.0000
  H   H1291     1.0  0.54754  0.37329  0.72014  1.0000
  C   C1630     1.0  0.70993  0.24663  0.53702  1.0000
  H   H1292     1.0  0.59993  0.44630  0.76720  1.0000
  C   C1631     1.0  0.61348  0.40479  0.70526  1.0000
  H   H1293     1.0  0.82119  0.32473  0.75634  1.0000
  C   C1632     1.0  0.64594  0.38346  0.71509  1.0000
  H   H1294     1.0  0.78301  0.36966  0.52202  1.0000
  C   C1633     1.0  0.70273  0.47271  0.49116  1.0000
  C   C1634     1.0  0.87253  0.45099  0.53862  1.0000
  H   H1295     1.0  0.48642  0.37400  0.82669  1.0000
  H   H1296     1.0  0.77768  0.39609  0.58022  1.0000
  H   H1297     1.0  0.56769  0.32546  0.69835  1.0000
  C   C1635     1.0  0.51359  0.31838  0.73409  1.0000
  C   C1636     1.0  0.53698  0.31855  0.73217  1.0000
  C   C1637     1.0  0.54930  0.32447  0.70032  1.0000
  P   P55       1.0  0.55175  0.31294  0.77094  1.0000
  C   C1638     1.0  0.52924  0.28699  0.79576  1.0000
  C   C1639     1.0  0.57385  0.30221  0.75840  1.0000
  C   C1640     1.0  0.59778  0.31148  0.77599  1.0000
  C   C1641     1.0  0.61428  0.30222  0.76677  1.0000
  C   C1642     1.0  0.60686  0.28337  0.74042  1.0000
  C   C1643     1.0  0.58284  0.27364  0.72338  1.0000
  C   C1644     1.0  0.56632  0.28289  0.73248  1.0000
  C   C1645     1.0  0.53592  0.28350  0.83023  1.0000
  C   C1646     1.0  0.51926  0.26258  0.84887  1.0000
  H   H1298     1.0  0.65058  0.24924  0.96999  1.0000
  C   C1647     1.0  0.48943  0.24789  0.79863  1.0000
  C   C1648     1.0  0.50609  0.26868  0.77988  1.0000
  C   C1649     1.0  0.56768  0.34235  0.79647  1.0000
  C   C1650     1.0  0.55804  0.34547  0.82803  1.0000
  C   C1651     1.0  0.57134  0.36775  0.84852  1.0000
  C   C1652     1.0  0.59394  0.38738  0.83724  1.0000
  C   C1653     1.0  0.60317  0.38488  0.80522  1.0000
  C   C1654     1.0  0.59003  0.36251  0.78475  1.0000
  H   H1299     1.0  0.64795  0.43025  0.52687  1.0000
  H   H1300     1.0  0.60360  0.32545  0.79729  1.0000
  H   H1301     1.0  0.63268  0.30936  0.78053  1.0000
  C   C1655     1.0  0.82151  0.27500  0.94432  1.0000
  C   C1656     1.0  0.75199  0.45703  0.54060  1.0000
  H   H1302     1.0  0.54751  0.27472  0.71965  1.0000
  H   H1303     1.0  0.55411  0.29680  0.84259  1.0000
  C   C1657     1.0  0.47932  0.33092  0.53430  1.0000
  H   H1304     1.0  0.50097  0.27006  0.75285  1.0000
  H   H1305     1.0  0.54026  0.33087  0.83701  1.0000
  H   H1306     1.0  0.56395  0.36997  0.87306  1.0000
  H   H1307     1.0  0.60402  0.40467  0.85317  1.0000
  H   H1308     1.0  0.62051  0.40037  0.79642  1.0000
  H   H1309     1.0  0.59744  0.36082  0.76005  1.0000
  C   C1658     1.0  0.94405  0.44885  0.95889  1.0000
  C   C1659     1.0  0.63510  0.41656  0.72807  1.0000
  C   C1660     1.0  0.56641  0.39513  0.59830  1.0000
  H   H1310     1.0  0.81241  0.45922  0.69236  1.0000
  H   H1311     1.0  0.76397  0.44445  0.49498  1.0000
  C   C1661     1.0  0.53935  0.38129  0.77156  1.0000
  H   H1312     1.0  0.85196  0.29034  0.90884  1.0000
  H   H1313     1.0  0.49763  0.31207  0.86116  1.0000
  C   C1662     1.0  0.54692  0.40209  0.66046  1.0000
  H   H1314     1.0  0.59073  0.37180  0.67148  1.0000
  S   S225      1.0  0.57058  0.47555  0.93836  1.0000
  C   C1663     1.0  0.80364  0.46626  0.77865  1.0000
  H   H1315     1.0  0.79412  0.27682  0.57482  1.0000
  H   H1316     1.0  0.77955  0.25990  0.68348  1.0000
  H   H1317     1.0  0.92400  0.43709  0.58233  1.0000
  C   C1664     1.0  0.50208  0.32285  0.70433  1.0000
  S   S226      1.0  0.50061  0.46946  0.93259  1.0000
  H   H1318     1.0  0.86537  0.44871  0.63124  1.0000
  H   H1319     1.0  0.50496  0.33108  0.64932  1.0000
  C   C1665     1.0  0.61086  0.45283  0.69611  1.0000
  C   C1666     1.0  0.88713  0.46567  0.56804  1.0000
  H   H1320     1.0  0.85844  0.45483  0.52549  1.0000
  C   C1667     1.0  0.78693  0.44755  0.57881  1.0000
  H   H1321     1.0  0.60194  0.40890  0.62793  1.0000
  H   H1322     1.0  0.57474  0.43558  0.81985  1.0000
  C   C1668     1.0  0.58285  0.42823  0.76772  1.0000
  C   C1669     1.0  0.54095  0.38947  0.59879  1.0000
  C   C1670     1.0  0.78081  0.27007  0.59554  1.0000
  C   C1671     1.0  0.47417  0.30829  0.51661  1.0000
  C   C1672     1.0  0.93134  0.47472  0.48791  1.0000
  H   H1323     1.0  0.81875  0.26113  0.75079  1.0000
  H   H1324     1.0  0.91642  0.47071  0.60745  1.0000
  H   H1325     1.0  0.76560  0.45582  0.79275  1.0000
  H   H1326     1.0  0.52446  0.26003  0.87548  1.0000
  H   H1327     1.0  0.47021  0.28520  0.81064  1.0000
  C   C1673     1.0  0.47957  0.47074  0.96412  1.0000
  H   H1328     1.0  0.84162  0.47232  0.77150  1.0000
  H   H1329     1.0  0.73818  0.46024  0.52567  1.0000
  C   C1674     1.0  0.82441  0.23241  0.66181  1.0000
  H   H1330     1.0  0.80727  0.23878  0.56433  1.0000
  S   S227      1.0  0.73551  0.47222  0.59833  1.0000
  C   C1675     1.0  0.46713  0.33926  0.79497  1.0000
  S   S228      1.0  0.83659  0.69111  0.10622  1.0000
  Fe  Fe113     1.0  0.71846  0.51488  0.23316  1.0000
  S   S229      1.0  0.72107  0.54666  0.26767  1.0000
  S   S230      1.0  0.66605  0.52154  0.12194  1.0000
  Fe  Fe114     1.0  0.68662  0.52447  0.17506  1.0000
  S   S231      1.0  0.68749  0.55632  0.20765  1.0000
  H   H1331     1.0  0.53110  0.51478  0.19780  1.0000
  Fe  Fe115     1.0  0.72934  0.56946  0.21780  1.0000
  S   S232      1.0  0.76036  0.61191  0.21620  1.0000
  Fe  Fe116     1.0  0.67905  0.53035  0.25343  1.0000
  S   S233      1.0  0.64598  0.52385  0.28844  1.0000
  S   S234      1.0  0.72872  0.53820  0.18400  1.0000
  H   H1332     1.0  0.76577  0.48206  0.41467  1.0000
  H   H1333     1.0  0.56363  0.56111  0.11539  1.0000
  H   H1334     1.0  0.83892  0.47956  0.29806  1.0000
  Fe  Fe117     1.0  0.49645  0.68312  0.23234  1.0000
  S   S235      1.0  0.48943  0.64698  0.20157  1.0000
  Fe  Fe118     1.0  0.49081  0.70046  0.30582  1.0000
  S   S236      1.0  0.48032  0.68941  0.36287  1.0000
  S   S237      1.0  0.52070  0.69305  0.28288  1.0000
  H   H1335     1.0  0.85182  0.52276  0.17101  1.0000
  C   C1676     1.0  0.75468  0.52435  0.46124  1.0000
  C   C1677     1.0  0.72676  0.52357  0.37795  1.0000
  P   P56       1.0  0.71723  0.48360  0.42162  1.0000
  H   H1336     1.0  0.57385  0.54727  0.29486  1.0000
  C   C1678     1.0  0.59554  0.56051  0.99316  1.0000
  H   H1337     1.0  0.62360  0.70981  0.30044  1.0000
  H   H1338     1.0  0.75863  0.51563  0.14329  1.0000
  H   H1339     1.0  0.47680  0.60938  0.44400  1.0000
  H   H1340     1.0  0.77530  0.53063  0.22581  1.0000
  C   C1679     1.0  0.53804  0.65864  0.36136  1.0000
  C   C1680     1.0  0.78327  0.71559  0.12741  1.0000
  C   C1681     1.0  0.81566  0.49763  0.08064  1.0000
  H   H1341     1.0  0.51366  0.62397  0.24968  1.0000
  C   C1682     1.0  0.64358  0.49721  0.09283  1.0000
  C   C1683     1.0  0.53150  0.48291  0.06347  1.0000
  H   H1342     1.0  0.81798  0.54626  0.47833  1.0000
  C   C1684     1.0  0.79882  0.53420  0.46775  1.0000
  C   C1685     1.0  0.78261  0.50716  0.33577  1.0000
  C   C1686     1.0  0.76577  0.50758  0.30905  1.0000
  H   H1343     1.0  0.79235  0.52324  0.35389  1.0000
  H   H1344     1.0  0.76246  0.52373  0.30702  1.0000
  C   C1687     1.0  0.81537  0.66961  0.13735  1.0000
  C   C1688     1.0  0.81381  0.67711  0.17174  1.0000
  C   C1689     1.0  0.79688  0.65934  0.19512  1.0000
  C   C1690     1.0  0.78098  0.63369  0.18478  1.0000
  C   C1691     1.0  0.78246  0.62623  0.15034  1.0000
  C   C1692     1.0  0.79945  0.64397  0.12702  1.0000
  H   H1345     1.0  0.82575  0.69661  0.18043  1.0000
  H   H1346     1.0  0.79614  0.66554  0.22157  1.0000
  H   H1347     1.0  0.77060  0.60671  0.14167  1.0000
  H   H1348     1.0  0.80028  0.63771  0.10065  1.0000
  H   H1349     1.0  0.59374  0.56170  0.04905  1.0000
  H   H1350     1.0  0.53076  0.58893  0.16394  1.0000
  H   H1351     1.0  0.52203  0.52312  0.12916  1.0000
  C   C1693     1.0  0.68398  0.50174  0.39840  1.0000
  H   H1352     1.0  0.62118  0.65233  0.43580  1.0000
  C   C1694     1.0  0.57480  0.55158  0.12056  1.0000
  C   C1695     1.0  0.52059  0.52529  0.07250  1.0000
  C   C1696     1.0  0.84166  0.50546  0.08432  1.0000
  C   C1697     1.0  0.52881  0.48642  0.27563  1.0000
  H   H1353     1.0  0.52939  0.69748  0.44136  1.0000
  C   C1698     1.0  0.55356  0.53361  0.24467  1.0000
  C   C1699     1.0  0.48009  0.59332  0.44011  1.0000
  H   H1354     1.0  0.54871  0.67702  0.37460  1.0000
  C   C1700     1.0  0.67769  0.51782  0.37906  1.0000
  H   H1355     1.0  0.65856  0.51537  0.37889  1.0000
  C   C1701     1.0  0.62536  0.49641  0.31183  1.0000
  C   C1702     1.0  0.80344  0.54112  0.18655  1.0000
  C   C1703     1.0  0.78901  0.54587  0.21075  1.0000
  C   C1704     1.0  0.79209  0.57029  0.21558  1.0000
  C   C1705     1.0  0.80934  0.59011  0.19601  1.0000
  C   C1706     1.0  0.82365  0.58555  0.17168  1.0000
  C   C1707     1.0  0.82079  0.56117  0.16695  1.0000
  P   P57       1.0  0.54561  0.51707  0.06608  1.0000
  C   C1708     1.0  0.56034  0.52949  0.02520  1.0000
  H   H1356     1.0  0.73457  0.55444  0.34366  1.0000
  C   C1709     1.0  0.52388  0.58783  0.19007  1.0000
  H   H1357     1.0  0.78117  0.69662  0.12805  1.0000
  C   C1710     1.0  0.84136  0.72480  0.44218  1.0000
  C   C1711     1.0  0.77276  0.72399  0.15314  1.0000
  H   H1358     1.0  0.78075  0.57386  0.23404  1.0000
  H   H1359     1.0  0.81139  0.60894  0.19949  1.0000
  H   H1360     1.0  0.83679  0.60096  0.15626  1.0000
  H   H1361     1.0  0.83195  0.55811  0.14778  1.0000
  H   H1362     1.0  0.61954  0.52218  0.13444  1.0000
  H   H1363     1.0  0.47780  0.61024  0.35201  1.0000
  H   H1364     1.0  0.47773  0.68769  0.14627  1.0000
  C   C1712     1.0  0.50731  0.52853  0.04353  1.0000
  H   H1365     1.0  0.62671  0.55962  0.17051  1.0000
  C   C1713     1.0  0.79360  0.51324  0.44608  1.0000
  C   C1714     1.0  0.49324  0.53251  0.11138  1.0000
  H   H1366     1.0  0.85182  0.50465  0.06184  1.0000
  H   H1367     1.0  0.67177  0.68438  0.43435  1.0000
  C   C1715     1.0  0.81529  0.50738  0.14259  1.0000
  C   C1716     1.0  0.61513  0.48559  0.03998  1.0000
  C   C1717     1.0  0.48651  0.55049  0.43078  1.0000
  C   C1718     1.0  0.69692  0.71526  0.46935  1.0000
  H   H1368     1.0  0.54986  0.48712  0.18111  1.0000
  C   C1719     1.0  0.47348  0.69842  0.12689  1.0000
  H   H1369     1.0  0.95718  0.48317  0.03615  1.0000
  H   H1370     1.0  0.53012  0.62634  0.19115  1.0000
  H   H1371     1.0  0.53037  0.49967  0.99289  1.0000
  H   H1372     1.0  0.50275  0.65111  0.38361  1.0000
  H   H1373     1.0  0.87478  0.52068  0.11974  1.0000
  H   H1374     1.0  0.56145  0.48242  0.03375  1.0000
  H   H1375     1.0  0.52768  0.57880  0.34904  1.0000
  C   C1720     1.0  0.58644  0.51923  0.10622  1.0000
  S   S238      1.0  0.67625  0.49811  0.22022  1.0000
  C   C1721     1.0  0.54845  0.51680  0.99330  1.0000
  C   C1722     1.0  0.69587  0.53673  0.35925  1.0000
  H   H1376     1.0  0.85318  0.52895  0.46415  1.0000
  C   C1723     1.0  0.83567  0.71846  0.40639  1.0000
  H   H1377     1.0  0.47070  0.67737  0.43484  1.0000
  C   C1724     1.0  0.51473  0.56527  0.20817  1.0000
  C   C1725     1.0  0.78716  0.48628  0.33905  1.0000
  H   H1378     1.0  0.74574  0.52576  0.37662  1.0000
  C   C1726     1.0  0.75019  0.49665  0.15323  1.0000
  H   H1379     1.0  0.65827  0.71033  0.39885  1.0000
  C   C1727     1.0  0.48031  0.53588  0.08240  1.0000
  H   H1380     1.0  0.56334  0.55188  0.23267  1.0000
  C   C1728     1.0  0.50395  0.57086  0.45213  1.0000
  C   C1729     1.0  0.55003  0.64972  0.33876  1.0000
  H   H1381     1.0  0.49785  0.54598  0.25473  1.0000
  H   H1382     1.0  0.48845  0.53352  0.42828  1.0000
  C   C1730     1.0  0.58115  0.63626  0.42232  1.0000
  S   S239      1.0  0.73176  0.48631  0.25068  1.0000
  H   H1383     1.0  0.76238  0.71137  0.17367  1.0000
  H   H1384     1.0  0.81595  0.53078  0.25281  1.0000
  C   C1731     1.0  0.81835  0.51417  0.24965  1.0000
  H   H1385     1.0  0.73983  0.52910  0.46685  1.0000
  H   H1386     1.0  0.54067  0.62060  0.41653  1.0000
  C   C1732     1.0  0.83162  0.48538  0.27548  1.0000
  C   C1733     1.0  0.55692  0.62753  0.43506  1.0000
  C   C1734     1.0  0.57009  0.52968  0.10099  1.0000
  H   H1387     1.0  0.69075  0.54881  0.34371  1.0000
  P   P58       1.0  0.49116  0.58285  0.29917  1.0000
  C   C1735     1.0  0.77937  0.53981  0.47524  1.0000
  C   C1736     1.0  0.47987  0.72361  0.13440  1.0000
  H   H1388     1.0  0.49128  0.49928  0.36914  1.0000
  H   H1389     1.0  0.58342  0.63582  0.39432  1.0000
  H   H1390     1.0  0.80568  0.49080  0.05527  1.0000
  C   C1737     1.0  0.52620  0.66255  0.46106  1.0000
  C   C1738     1.0  0.50050  0.59215  0.45774  1.0000
  C   C1739     1.0  0.49097  0.55646  0.32196  1.0000
  C   C1740     1.0  0.54698  0.50753  0.29522  1.0000
  H   H1391     1.0  0.80575  0.72550  0.08186  1.0000
  C   C1741     1.0  0.53532  0.51257  0.22502  1.0000
  H   H1392     1.0  0.59739  0.50888  0.31743  1.0000
  C   C1742     1.0  0.58398  0.55153  0.02491  1.0000
  C   C1743     1.0  0.76895  0.49770  0.43215  1.0000
  C   C1744     1.0  0.61069  0.55117  0.15153  1.0000
  C   C1745     1.0  0.51429  0.60754  0.23874  1.0000
  H   H1393     1.0  0.53777  0.66108  0.44113  1.0000
  H   H1394     1.0  0.63800  0.52376  0.06089  1.0000
  C   C1746     1.0  0.60657  0.52992  0.13139  1.0000
  C   C1747     1.0  0.51302  0.52682  0.10650  1.0000
  H   H1395     1.0  0.59860  0.57909  0.16083  1.0000
  H   H1396     1.0  0.51172  0.52629  0.01693  1.0000
  H   H1397     1.0  0.52783  0.54241  0.37841  1.0000
  H   H1398     1.0  0.47752  0.59986  0.16594  1.0000
  C   C1748     1.0  0.72046  0.53976  0.35900  1.0000
  H   H1399     1.0  0.54551  0.61996  0.30287  1.0000
  C   C1749     1.0  0.80251  0.49866  0.10959  1.0000
  H   H1400     1.0  0.57009  0.66118  0.33464  1.0000
  C   C1750     1.0  0.50518  0.56374  0.24149  1.0000
  C   C1751     1.0  0.59482  0.56205  0.14608  1.0000
  C   C1752     1.0  0.52171  0.68338  0.46129  1.0000
  C   C1753     1.0  0.75348  0.48720  0.28484  1.0000
  C   C1754     1.0  0.50970  0.61200  0.32468  1.0000
  C   C1755     1.0  0.53598  0.62641  0.32064  1.0000
  H   H1401     1.0  0.83383  0.51793  0.30270  1.0000
  C   C1756     1.0  0.51192  0.53950  0.36089  1.0000
  C   C1757     1.0  0.82870  0.50705  0.27811  1.0000
  C   C1758     1.0  0.70860  0.50448  0.39791  1.0000
  C   C1759     1.0  0.51170  0.56010  0.34431  1.0000
  C   C1760     1.0  0.85458  0.51447  0.11695  1.0000
  C   C1761     1.0  0.55946  0.53107  0.27972  1.0000
  H   H1402     1.0  0.63227  0.50375  0.18100  1.0000
  H   H1403     1.0  0.81738  0.70293  0.39773  1.0000
  H   H1404     1.0  0.51467  0.54884  0.19616  1.0000
  H   H1405     1.0  0.55162  0.50551  0.32239  1.0000
  H   H1406     1.0  0.89881  0.54479  0.47971  1.0000
  C   C1762     1.0  0.49796  0.62085  0.34816  1.0000
  C   C1763     1.0  0.51211  0.64407  0.36635  1.0000
  C   C1764     1.0  0.50480  0.58489  0.25702  1.0000
  C   C1765     1.0  0.52371  0.60896  0.20542  1.0000
  C   C1766     1.0  0.84150  0.51554  0.14595  1.0000
  C   C1767     1.0  0.60275  0.49710  0.21633  1.0000
  S   S240      1.0  0.81033  0.48781  0.37142  1.0000
  H   H1407     1.0  0.51960  0.56959  0.46541  1.0000
  C   C1768     1.0  0.67924  0.70430  0.44103  1.0000
  C   C1769     1.0  0.81118  0.49982  0.21796  1.0000
  H   H1408     1.0  0.60800  0.51697  0.21936  1.0000
  H   H1409     1.0  0.48741  0.53371  0.13750  1.0000
  H   H1410     1.0  0.86248  0.72768  0.24688  1.0000
  C   C1770     1.0  0.55376  0.62810  0.47135  1.0000
  C   C1771     1.0  0.63266  0.50402  0.06434  1.0000
  C   C1772     1.0  0.76509  0.48828  0.17253  1.0000
  P   P59       1.0  0.79879  0.50928  0.18021  1.0000
  C   C1773     1.0  0.49137  0.51518  0.35562  1.0000
  C   C1774     1.0  0.52292  0.48875  0.24025  1.0000
  C   C1775     1.0  0.67171  0.71916  0.42084  1.0000
  H   H1411     1.0  0.60708  0.49117  0.01808  1.0000
  S   S241      1.0  0.51777  0.72322  0.21388  1.0000
  C   C1776     1.0  0.60243  0.49427  0.32364  1.0000
  C   C1777     1.0  0.48732  0.53384  0.04854  1.0000
  C   C1778     1.0  0.47062  0.53185  0.31621  1.0000
  H   H1412     1.0  0.80868  0.50912  0.43933  1.0000
  H   H1413     1.0  0.78242  0.49261  0.10602  1.0000
  C   C1779     1.0  0.74919  0.50294  0.44000  1.0000
  C   C1780     1.0  0.60241  0.64560  0.44566  1.0000
  H   H1414     1.0  0.58430  0.50332  0.09015  1.0000
  H   H1415     1.0  0.71272  0.48748  0.13248  1.0000
  H   H1416     1.0  0.47662  0.53549  0.02605  1.0000
  H   H1417     1.0  0.47845  0.49479  0.23243  1.0000
  C   C1781     1.0  0.47168  0.48729  0.20594  1.0000
  C   C1782     1.0  0.47075  0.51137  0.33325  1.0000
  H   H1418     1.0  0.57336  0.48507  0.25326  1.0000
  H   H1419     1.0  0.61396  0.57725  0.99311  1.0000
  H   H1420     1.0  0.82751  0.71427  0.46127  1.0000
  H   H1421     1.0  0.66946  0.48720  0.41325  1.0000
  C   C1783     1.0  0.61646  0.48966  0.19477  1.0000
  H   H1422     1.0  0.58580  0.71525  0.31027  1.0000
  C   C1784     1.0  0.72415  0.48068  0.14685  1.0000
  C   C1785     1.0  0.62345  0.72060  0.32326  1.0000
  C   C1786     1.0  0.60209  0.72356  0.32882  1.0000
  H   H1423     1.0  0.84842  0.72724  0.35419  1.0000
  C   C1787     1.0  0.84618  0.49371  0.62470  1.0000
  C   C1788     1.0  0.73788  0.63133  0.72552  1.0000
  S   S242      1.0  0.79596  0.67895  0.58904  1.0000
  Fe  Fe119     1.0  0.72322  0.49532  0.72455  1.0000
  S   S243      1.0  0.76219  0.52481  0.74514  1.0000
  H   H1424     1.0  0.62747  0.56025  0.78065  1.0000
  Fe  Fe120     1.0  0.74469  0.49043  0.65370  1.0000
  S   S244      1.0  0.78431  0.51956  0.67085  1.0000
  C   C1789     1.0  0.92172  0.58906  0.60157  1.0000
  Fe  Fe121     1.0  0.77630  0.49923  0.72240  1.0000
  C   C1790     1.0  0.85887  0.52282  0.48791  1.0000
  Fe  Fe122     1.0  0.76642  0.54249  0.69153  1.0000
  S   S245      1.0  0.78436  0.58641  0.68687  1.0000
  S   S246      1.0  0.80597  0.48887  0.74654  1.0000
  S   S247      1.0  0.72668  0.51390  0.67222  1.0000
  C   C1791     1.0  0.68032  0.58177  0.67568  1.0000
  H   H1425     1.0  0.63793  0.51668  0.79407  1.0000
  H   H1426     1.0  0.49283  0.62474  0.67018  1.0000
  H   H1427     1.0  0.49133  0.63198  0.53056  1.0000
  H   H1428     1.0  0.75863  0.55180  0.81839  1.0000
  C   C1792     1.0  0.48375  0.68526  0.66974  1.0000
  C   C1793     1.0  0.48633  0.66964  0.64401  1.0000
  H   H1429     1.0  0.70819  0.64016  0.77180  1.0000
  H   H1430     1.0  0.49992  0.70308  0.67818  1.0000
  H   H1431     1.0  0.50461  0.67559  0.63304  1.0000
  C   C1794     1.0  0.77716  0.52652  0.56286  1.0000
  C   C1795     1.0  0.79907  0.52423  0.55905  1.0000
  C   C1796     1.0  0.95408  0.48384  0.50924  1.0000
  C   C1797     1.0  0.72778  0.58459  0.76191  1.0000
  C   C1798     1.0  0.48196  0.61828  0.69346  1.0000
  C   C1799     1.0  0.90135  0.58683  0.54465  1.0000
  H   H1432     1.0  0.65567  0.56949  0.62881  1.0000
  H   H1433     1.0  0.80116  0.57801  0.61834  1.0000
  H   H1434     1.0  0.67775  0.54812  0.60185  1.0000
  C   C1800     1.0  0.79313  0.65359  0.61691  1.0000
  C   C1801     1.0  0.80619  0.65781  0.64970  1.0000
  C   C1802     1.0  0.80319  0.63716  0.67052  1.0000
  C   C1803     1.0  0.78715  0.61179  0.65914  1.0000
  C   C1804     1.0  0.77407  0.60755  0.62639  1.0000
  C   C1805     1.0  0.77708  0.62820  0.60558  1.0000
  H   H1435     1.0  0.81863  0.67704  0.65910  1.0000
  H   H1436     1.0  0.81347  0.64093  0.69568  1.0000
  H   H1437     1.0  0.76159  0.58836  0.61700  1.0000
  H   H1438     1.0  0.76679  0.62445  0.58040  1.0000
  H   H1439     1.0  0.75274  0.64066  0.77937  1.0000
  C   C1806     1.0  0.82915  0.48592  0.65168  1.0000
  C   C1807     1.0  0.66111  0.49964  0.77953  1.0000
  C   C1808     1.0  0.64216  0.50133  0.79873  1.0000
  H   H1440     1.0  0.67116  0.51350  0.76022  1.0000
  C   C1809     1.0  0.89208  0.52293  0.52635  1.0000
  C   C1810     1.0  0.59945  0.64622  0.48178  1.0000
  C   C1811     1.0  0.74003  0.70714  0.68074  1.0000
  C   C1812     1.0  0.93687  0.54627  0.65188  1.0000
  C   C1813     1.0  0.48821  0.59718  0.85692  1.0000
  H   H1441     1.0  0.93792  0.59069  0.61727  1.0000
  H   H1442     1.0  0.48143  0.68958  0.83023  1.0000
  C   C1814     1.0  0.48162  0.63023  0.82977  1.0000
  C   C1815     1.0  0.95904  0.53999  0.60428  1.0000
  H   H1443     1.0  0.83411  0.65128  0.57072  1.0000
  H   H1444     1.0  0.83064  0.60873  0.57057  1.0000
  C   C1816     1.0  0.62851  0.48324  0.82373  1.0000
  H   H1445     1.0  0.48399  0.66869  0.53112  1.0000
  H   H1446     1.0  0.49309  0.58202  0.85478  1.0000
  C   C1817     1.0  0.70523  0.55780  0.64517  1.0000
  Fe  Fe123     1.0  0.81388  0.72300  0.58484  1.0000
  C   C1818     1.0  0.65007  0.49075  0.68445  1.0000
  C   C1819     1.0  0.47387  0.62650  0.75288  1.0000
  H   H1447     1.0  0.86200  0.68386  0.61518  1.0000
  C   C1820     1.0  0.51170  0.67531  0.78827  1.0000
  C   C1821     1.0  0.51436  0.69399  0.76444  1.0000
  H   H1448     1.0  0.88687  0.67390  0.66000  1.0000
  H   H1449     1.0  0.84914  0.51018  0.61018  1.0000
  H   H1450     1.0  0.50373  0.65361  0.72146  1.0000
  H   H1451     1.0  0.70720  0.67300  0.69491  1.0000
  H   H1452     1.0  0.78456  0.58529  0.77746  1.0000
  C   C1822     1.0  0.87377  0.50509  0.54758  1.0000
  H   H1453     1.0  0.72864  0.66060  0.90167  1.0000
  H   H1454     1.0  0.66978  0.49954  0.67769  1.0000
  H   H1455     1.0  0.49842  0.69150  0.74736  1.0000
  C   C1823     1.0  0.91296  0.51578  0.60444  1.0000
  C   C1824     1.0  0.71365  0.56981  0.67829  1.0000
  C   C1825     1.0  0.48190  0.60312  0.88930  1.0000
  C   C1826     1.0  0.75014  0.56118  0.80303  1.0000
  C   C1827     1.0  0.64508  0.57773  0.77836  1.0000
  H   H1456     1.0  0.83837  0.54665  0.75622  1.0000
  H   H1457     1.0  0.78651  0.68367  0.76667  1.0000
  H   H1458     1.0  0.88324  0.63115  0.66096  1.0000
  H   H1459     1.0  0.83635  0.59917  0.68251  1.0000
  H   H1460     1.0  0.79143  0.69883  0.70568  1.0000
  C   C1828     1.0  0.47573  0.63635  0.86258  1.0000
  C   C1829     1.0  0.46773  0.48114  0.51055  1.0000
  C   C1830     1.0  0.88462  0.53171  0.49664  1.0000
  H   H1461     1.0  0.93806  0.58878  0.55232  1.0000
  H   H1462     1.0  0.89636  0.52403  0.64904  1.0000
  P   P60       1.0  0.48117  0.64733  0.79115  1.0000
  C   C1831     1.0  0.91362  0.52831  0.63610  1.0000
  C   C1832     1.0  0.72471  0.69868  0.73961  1.0000
  C   C1833     1.0  0.51573  0.64393  0.48633  1.0000
  C   C1834     1.0  0.74477  0.72206  0.75189  1.0000
  C   C1835     1.0  0.52048  0.60716  0.53221  1.0000
  C   C1836     1.0  0.53098  0.62527  0.56003  1.0000
  C   C1837     1.0  0.52766  0.61779  0.59489  1.0000
  C   C1838     1.0  0.51402  0.59215  0.60238  1.0000
  C   C1839     1.0  0.50385  0.57396  0.57501  1.0000
  C   C1840     1.0  0.50703  0.58137  0.54013  1.0000
  C   C1841     1.0  0.53750  0.71623  0.76281  1.0000
  C   C1842     1.0  0.73638  0.71482  0.86402  1.0000
  H   H1463     1.0  0.64980  0.52616  0.69181  1.0000
  C   C1843     1.0  0.73232  0.69718  0.88997  1.0000
  C   C1844     1.0  0.95957  0.55208  0.63602  1.0000
  H   H1464     1.0  0.61593  0.65347  0.49989  1.0000
  C   C1845     1.0  0.82671  0.72529  0.87643  1.0000
  H   H1465     1.0  0.57340  0.63821  0.52264  1.0000
  H   H1466     1.0  0.60473  0.50598  0.70800  1.0000
  C   C1846     1.0  0.57522  0.63751  0.49462  1.0000
  H   H1467     1.0  0.74345  0.68277  0.79488  1.0000
  C   C1847     1.0  0.92188  0.58812  0.56496  1.0000
  H   H1468     1.0  0.54085  0.64530  0.55481  1.0000
  H   H1469     1.0  0.53485  0.63195  0.61608  1.0000
  H   H1470     1.0  0.51081  0.58639  0.62934  1.0000
  H   H1471     1.0  0.49268  0.55406  0.58065  1.0000
  C   C1848     1.0  0.72256  0.69112  0.70425  1.0000
  C   C1849     1.0  0.72437  0.55378  0.80528  1.0000
  H   H1472     1.0  0.71533  0.54913  0.63291  1.0000
  C   C1850     1.0  0.50015  0.64620  0.51116  1.0000
  H   H1473     1.0  0.78343  0.55622  0.49174  1.0000
  C   C1851     1.0  0.84797  0.49607  0.53830  1.0000
  C   C1852     1.0  0.70109  0.58166  0.69397  1.0000
  C   C1853     1.0  0.77646  0.68009  0.71138  1.0000
  C   C1854     1.0  0.73964  0.68668  0.82102  1.0000
  C   C1855     1.0  0.75445  0.64723  0.75276  1.0000
  H   H1474     1.0  0.69326  0.55916  0.78736  1.0000
  C   C1856     1.0  0.55807  0.72020  0.78535  1.0000
  H   H1475     1.0  0.83868  0.53939  0.57297  1.0000
  H   H1476     1.0  0.63304  0.59995  0.80917  1.0000
  H   H1477     1.0  0.82238  0.70709  0.86470  1.0000
  C   C1857     1.0  0.69080  0.62260  0.77347  1.0000
  H   H1478     1.0  0.82055  0.49693  0.50100  1.0000
  H   H1479     1.0  0.72995  0.70153  0.91681  1.0000
  H   H1480     1.0  0.79795  0.50845  0.54369  1.0000
  C   C1858     1.0  0.77361  0.67154  0.74569  1.0000
  C   C1859     1.0  0.73169  0.67420  0.88144  1.0000
  H   H1481     1.0  0.76077  0.54701  0.58841  1.0000
  C   C1860     1.0  0.82207  0.54181  0.57576  1.0000
  H   H1482     1.0  0.93730  0.55551  0.67665  1.0000
  C   C1861     1.0  0.93585  0.52200  0.58850  1.0000
  C   C1862     1.0  0.55566  0.70168  0.80908  1.0000
  P   P61       1.0  0.52240  0.61752  0.48731  1.0000
  H   H1483     1.0  0.78752  0.71673  0.87743  1.0000
  C   C1863     1.0  0.68792  0.60013  0.75756  1.0000
  H   H1484     1.0  0.67094  0.59167  0.68653  1.0000
  H   H1485     1.0  0.47100  0.65150  0.86555  1.0000
  H   H1486     1.0  0.49353  0.60607  0.80256  1.0000
  H   H1487     1.0  0.49779  0.56676  0.51986  1.0000
  H   H1488     1.0  0.53117  0.66527  0.82924  1.0000
  C   C1864     1.0  0.50689  0.68586  0.48689  1.0000
  C   C1865     1.0  0.73942  0.70942  0.82914  1.0000
  C   C1866     1.0  0.67105  0.62254  0.79193  1.0000
  C   C1867     1.0  0.71323  0.56547  0.78498  1.0000
  P   P62       1.0  0.71364  0.59963  0.73480  1.0000
  C   C1868     1.0  0.68418  0.55741  0.62754  1.0000
  C   C1869     1.0  0.85945  0.48044  0.61690  1.0000
  H   H1489     1.0  0.81893  0.49616  0.65778  1.0000
  C   C1870     1.0  0.84287  0.62260  0.59045  1.0000
  H   H1490     1.0  0.91209  0.52958  0.53184  1.0000
  C   C1871     1.0  0.67174  0.56943  0.64277  1.0000
  C   C1872     1.0  0.48827  0.61078  0.82732  1.0000
  H   H1491     1.0  0.85423  0.52866  0.71115  1.0000
  H   H1492     1.0  0.73840  0.70142  0.65330  1.0000
  H   H1493     1.0  0.72905  0.62814  0.66926  1.0000
  H   H1494     1.0  0.59250  0.55445  0.93692  1.0000
  C   C1873     1.0  0.76019  0.66434  0.68412  1.0000
  H   H1495     1.0  0.76280  0.67083  0.65738  1.0000
  H   H1496     1.0  0.75932  0.51272  0.55012  1.0000
  C   C1874     1.0  0.84054  0.50495  0.50872  1.0000
  H   H1497     1.0  0.73026  0.57022  0.69125  1.0000
  C   C1875     1.0  0.53261  0.67924  0.81050  1.0000
  C   C1876     1.0  0.76475  0.58009  0.78012  1.0000
  C   C1877     1.0  0.84503  0.64683  0.59010  1.0000
  C   C1878     1.0  0.75362  0.59166  0.75956  1.0000
  H   H1498     1.0  0.66195  0.56020  0.74751  1.0000
  H   H1499     1.0  0.71046  0.68655  0.75719  1.0000
  C   C1879     1.0  0.73548  0.66901  0.84702  1.0000
  H   H1500     1.0  0.47120  0.62755  0.91741  1.0000
  C   C1880     1.0  0.66472  0.57777  0.75971  1.0000
  H   H1501     1.0  0.71288  0.53862  0.82239  1.0000
  H   H1502     1.0  0.73547  0.65137  0.84067  1.0000
  H   H1503     1.0  0.90171  0.58670  0.51626  1.0000
  H   H1504     1.0  0.76519  0.60579  0.74132  1.0000
  H   H1505     1.0  0.67345  0.63987  0.80448  1.0000
  C   C1881     1.0  0.88042  0.58589  0.56091  1.0000
  C   C1882     1.0  0.87969  0.58582  0.59766  1.0000
  C   C1883     1.0  0.90085  0.58822  0.61792  1.0000
  P   P63       1.0  0.85265  0.58491  0.61822  1.0000
  C   C1884     1.0  0.85030  0.57437  0.66278  1.0000
  C   C1885     1.0  0.85610  0.61646  0.61652  1.0000
  C   C1886     1.0  0.87248  0.63531  0.64107  1.0000
  H   H1506     1.0  0.86114  0.54560  0.65134  1.0000
  C   C1887     1.0  0.87466  0.65957  0.64054  1.0000
  C   C1888     1.0  0.48807  0.63465  0.72278  1.0000
  C   C1889     1.0  0.63881  0.50575  0.69247  1.0000
  C   C1890     1.0  0.85503  0.55423  0.67110  1.0000
  C   C1891     1.0  0.85117  0.54461  0.70489  1.0000
  C   C1892     1.0  0.84218  0.55475  0.73041  1.0000
  C   C1893     1.0  0.83719  0.57462  0.72225  1.0000
  C   C1894     1.0  0.84121  0.58439  0.68858  1.0000
  C   C1895     1.0  0.82326  0.56197  0.59622  1.0000
  C   C1896     1.0  0.80091  0.56343  0.60115  1.0000
  H   H1507     1.0  0.93582  0.51267  0.56405  1.0000
  C   C1897     1.0  0.61348  0.49439  0.70163  1.0000
  C   C1898     1.0  0.77799  0.54591  0.58425  1.0000
  H   H1508     1.0  0.82940  0.58194  0.74164  1.0000
  C   C1899     1.0  0.86079  0.66526  0.61523  1.0000
  C   C1900     1.0  0.74099  0.64006  0.69106  1.0000
  C   C1901     1.0  0.64825  0.60009  0.79452  1.0000
  H   H1509     1.0  0.86478  0.58518  0.54480  1.0000
  H   H1510     1.0  0.90137  0.58961  0.64630  1.0000
  P   P64       1.0  0.88316  0.49190  0.58419  1.0000
  C   C1902     1.0  0.55987  0.52600  0.96160  1.0000
  H   H1511     1.0  0.55048  0.51594  0.93712  1.0000
  C   C1903     1.0  0.49595  0.66716  0.51162  1.0000
  C   C1904     1.0  0.58349  0.54772  0.96151  1.0000
  H   H1512     1.0  0.48185  0.59254  0.91223  1.0000
  S   S248      1.0  0.47032  0.62685  0.60125  1.0000
  H   H1513     1.0  0.95554  0.49298  0.53435  1.0000
  H   H1514     1.0  0.47431  0.48246  0.53769  1.0000
  C   C1905     1.0  0.47583  0.62280  0.89218  1.0000
  H   H1515     1.0  0.69686  0.71725  0.83015  1.0000
  H   H1516     1.0  0.70322  0.70394  0.48456  1.0000
  S   S249      1.0  0.60420  0.48585  0.84661  1.0000
  H   H1517     1.0  0.83355  0.48143  0.55312  1.0000
  H   H1518     1.0  0.46882  0.49361  0.93166  1.0000
  H   H1519     1.0  0.57166  0.70490  0.82661  1.0000
  H   H1520     1.0  0.72165  0.48693  0.49965  1.0000
  H   H1521     1.0  0.50331  0.70192  0.48698  1.0000
  C   C1906     1.0  0.66663  0.47969  0.78488  1.0000
  H   H1522     1.0  0.47021  0.87669  0.25395  1.0000
  S   S250      1.0  0.86095  0.76482  0.12472  1.0000
  Fe  Fe124     1.0  0.91764  0.77336  0.06815  1.0000
  S   S251      1.0  0.91365  0.80580  0.09089  1.0000
  H   H1523     1.0  0.49136  0.78797  0.26125  1.0000
  Fe  Fe125     1.0  0.90281  0.78364  0.14025  1.0000
  S   S252      1.0  0.91526  0.80149  0.19553  1.0000
  Fe  Fe126     1.0  0.87228  0.78362  0.07269  1.0000
  S   S253      1.0  0.85619  0.80726  0.04559  1.0000
  S   S254      1.0  0.90852  0.75182  0.11901  1.0000
  S   S255      1.0  0.87648  0.75178  0.04789  1.0000
  H   H1524     1.0  0.93336  0.81923  0.26657  1.0000
  Fe  Fe127     1.0  0.76305  0.92514  0.39168  1.0000
  S   S256      1.0  0.79247  0.91909  0.36464  1.0000
  S   S257      1.0  0.77168  0.96071  0.42486  1.0000
  Fe  Fe128     1.0  0.71849  0.87654  0.35576  1.0000
  S   S258      1.0  0.74597  0.86817  0.32712  1.0000
  S   S259      1.0  0.67455  0.85345  0.35486  1.0000
  Fe  Fe129     1.0  0.76908  0.87798  0.37889  1.0000
  S   S260      1.0  0.79082  0.85770  0.40126  1.0000
  Fe  Fe130     1.0  0.76684  0.91015  0.31576  1.0000
  S   S261      1.0  0.77820  0.92276  0.25901  1.0000
  S   S262      1.0  0.74079  0.88464  0.40807  1.0000
  S   S263      1.0  0.73823  0.91790  0.34218  1.0000
  C   C1907     1.0  0.66251  0.82178  0.47121  1.0000
  S   S264      1.0  0.51048  0.74204  0.29224  1.0000
  S   S265      1.0  0.58332  0.75776  0.26990  1.0000
  C   C1908     1.0  0.75366  0.79275  0.15802  1.0000
  C   C1909     1.0  0.91068  0.83861  0.40526  1.0000
  C   C1910     1.0  0.67094  0.78793  0.42965  1.0000
  C   C1911     1.0  0.64953  0.82665  0.33097  1.0000
  C   C1912     1.0  0.65399  0.81461  0.30256  1.0000
  C   C1913     1.0  0.63359  0.79359  0.28456  1.0000
  C   C1914     1.0  0.60826  0.78437  0.29419  1.0000
  C   C1915     1.0  0.60378  0.79641  0.32263  1.0000
  C   C1916     1.0  0.62423  0.81728  0.34086  1.0000
  H   H1525     1.0  0.67316  0.82161  0.29424  1.0000
  H   H1526     1.0  0.63742  0.78456  0.26265  1.0000
  H   H1527     1.0  0.58454  0.78967  0.33057  1.0000
  H   H1528     1.0  0.62039  0.82634  0.36271  1.0000
  P   P65       1.0  0.79732  0.79811  0.12782  1.0000
  C   C1917     1.0  0.79274  0.95217  0.23653  1.0000
  C   C1918     1.0  0.79133  0.95154  0.19952  1.0000
  C   C1919     1.0  0.64525  0.74748  0.37493  1.0000
  H   H1529     1.0  0.78087  0.93354  0.18550  1.0000
  P   P66       1.0  0.89990  0.77162  0.36140  1.0000
  C   C1920     1.0  0.88390  0.83938  0.15190  1.0000
  C   C1921     1.0  0.49357  0.79323  0.18170  1.0000
  C   C1922     1.0  0.49634  0.81421  0.16202  1.0000
  H   H1530     1.0  0.62343  0.76235  0.40143  1.0000
  H   H1531     1.0  0.51007  0.79324  0.19426  1.0000
  H   H1532     1.0  0.51503  0.83025  0.15997  1.0000
  C   C1923     1.0  0.96459  0.81940  0.98988  1.0000
  C   C1924     1.0  0.80663  0.82983  0.44297  1.0000
  C   C1925     1.0  0.78740  0.83664  0.43628  1.0000
  C   C1926     1.0  0.79706  0.73187  0.10124  1.0000
  C   C1927     1.0  0.70778  0.95118  0.45682  1.0000
  H   H1533     1.0  0.82325  0.83784  0.42744  1.0000
  H   H1534     1.0  0.49135  0.83808  0.04434  1.0000
  C   C1928     1.0  0.52058  0.82762  0.05524  1.0000
  H   H1535     1.0  0.78806  0.85876  0.04979  1.0000
  H   H1536     1.0  0.73180  0.93413  0.04410  1.0000
  H   H1537     1.0  0.90102  0.87132  0.99844  1.0000
  H   H1538     1.0  0.78953  0.84007  0.23597  1.0000
  C   C1929     1.0  0.87379  0.84603  0.12271  1.0000
  C   C1930     1.0  0.83284  0.80097  0.01112  1.0000
  H   H1539     1.0  0.90946  0.83770  0.02236  1.0000
  C   C1931     1.0  0.76608  0.82606  0.45683  1.0000
  C   C1932     1.0  0.79317  0.82166  0.18935  1.0000
  C   C1933     1.0  0.84779  0.96206  0.09377  1.0000
  C   C1934     1.0  0.94301  0.80584  0.21987  1.0000
  C   C1935     1.0  0.95581  0.75897  0.32314  1.0000
  H   H1540     1.0  0.71262  0.94017  0.43887  1.0000
  C   C1936     1.0  0.76884  0.95425  0.07017  1.0000
  C   C1937     1.0  0.85906  0.93648  0.45489  1.0000
  C   C1938     1.0  0.75057  0.91118  0.04713  1.0000
  C   C1939     1.0  0.77266  0.91027  0.05804  1.0000
  C   C1940     1.0  0.79327  0.93162  0.07441  1.0000
  C   C1941     1.0  0.79118  0.95364  0.08033  1.0000
  P   P67       1.0  0.82157  0.93018  0.08923  1.0000
  H   H1541     1.0  0.75111  0.83106  0.45227  1.0000
  C   C1942     1.0  0.81673  0.91518  0.13122  1.0000
  C   C1943     1.0  0.79211  0.90014  0.14271  1.0000
  C   C1944     1.0  0.78861  0.89037  0.17640  1.0000
  C   C1945     1.0  0.80959  0.89547  0.19881  1.0000
  C   C1946     1.0  0.83413  0.90974  0.18722  1.0000
  C   C1947     1.0  0.83771  0.91950  0.15353  1.0000
  H   H1542     1.0  0.66174  0.73091  0.34065  1.0000
  C   C1948     1.0  0.96121  0.80089  0.20493  1.0000
  C   C1949     1.0  0.75303  0.81504  0.21097  1.0000
  C   C1950     1.0  0.78413  0.83936  0.05283  1.0000
  C   C1951     1.0  0.69466  0.78979  0.33997  1.0000
  C   C1952     1.0  0.82909  0.91294  0.05684  1.0000
  C   C1953     1.0  0.82302  0.91386  0.02112  1.0000
  C   C1954     1.0  0.87711  0.75258  0.39278  1.0000
  C   C1955     1.0  0.79224  0.83223  0.08359  1.0000
  C   C1956     1.0  0.84794  0.88643  0.04121  1.0000
  C   C1957     1.0  0.84167  0.89915  0.06674  1.0000
  C   C1958     1.0  0.86772  0.82097  0.17419  1.0000
  H   H1543     1.0  0.83409  0.96268  0.40163  1.0000
  H   H1544     1.0  0.73504  0.89495  0.03351  1.0000
  H   H1545     1.0  0.77375  0.89303  0.05331  1.0000
  C   C1959     1.0  0.52609  0.80763  0.05939  1.0000
  C   C1960     1.0  0.80056  0.75662  0.10093  1.0000
  H   H1546     1.0  0.76962  0.87971  0.18577  1.0000
  H   H1547     1.0  0.80678  0.88888  0.22545  1.0000
  H   H1548     1.0  0.85037  0.91383  0.20475  1.0000
  H   H1549     1.0  0.85688  0.93106  0.14529  1.0000
  H   H1550     1.0  0.90347  0.80175  0.98473  1.0000
  C   C1961     1.0  0.69927  0.75585  0.45783  1.0000
  C   C1962     1.0  0.87747  0.74641  0.29748  1.0000
  C   C1963     1.0  0.54803  0.82375  0.30542  1.0000
  H   H1551     1.0  0.47317  0.89452  0.19484  1.0000
  H   H1552     1.0  0.81359  0.92457  0.01268  1.0000
  C   C1964     1.0  0.67415  0.82939  0.43929  1.0000
  H   H1553     1.0  0.74251  0.81922  0.23012  1.0000
  H   H1554     1.0  0.68711  0.81879  0.39368  1.0000
  H   H1555     1.0  0.84669  0.89818  0.09400  1.0000
  C   C1965     1.0  0.80447  0.81241  0.46911  1.0000
  H   H1556     1.0  0.94729  0.81914  0.99723  1.0000
  C   C1966     1.0  0.78768  0.80716  0.08722  1.0000
  C   C1967     1.0  0.78995  0.76519  0.12651  1.0000
  H   H1557     1.0  0.76961  0.76960  0.06228  1.0000
  H   H1558     1.0  0.77553  0.89659  0.12637  1.0000
  H   H1559     1.0  0.56803  0.82933  0.30368  1.0000
  C   C1968     1.0  0.96107  0.79181  0.47237  1.0000
  C   C1969     1.0  0.74866  0.93316  0.05322  1.0000
  H   H1560     1.0  0.67955  0.84823  0.43011  1.0000
  C   C1970     1.0  0.48143  0.77735  0.04812  1.0000
  H   H1561     1.0  0.76367  0.80516  0.36710  1.0000
  H   H1562     1.0  0.85955  0.96344  0.04038  1.0000
  H   H1563     1.0  0.47777  0.84846  0.33376  1.0000
  H   H1564     1.0  0.81210  0.76929  0.08120  1.0000
  C   C1971     1.0  0.60216  0.73832  0.35738  1.0000
  H   H1565     1.0  0.75539  0.78248  0.00862  1.0000
  C   C1972     1.0  0.67844  0.81259  0.41860  1.0000
  H   H1566     1.0  0.95799  0.79323  0.17832  1.0000
  H   H1567     1.0  0.89902  0.84564  0.41716  1.0000
  H   H1568     1.0  0.87052  0.80230  0.25861  1.0000
  H   H1569     1.0  0.84044  0.96810  0.14731  1.0000
  C   C1973     1.0  0.71418  0.80256  0.31713  1.0000
  H   H1570     1.0  0.87566  0.81540  0.19623  1.0000
  C   C1974     1.0  0.81462  0.77645  0.00020  1.0000
  C   C1975     1.0  0.74010  0.79804  0.18286  1.0000
  C   C1976     1.0  0.47616  0.79759  0.04351  1.0000
  C   C1977     1.0  0.74145  0.96060  0.16787  1.0000
  C   C1978     1.0  0.73961  0.95457  0.20330  1.0000
  C   C1979     1.0  0.93674  0.85443  0.40304  1.0000
  H   H1571     1.0  0.50750  0.82913  0.36043  1.0000
  H   H1572     1.0  0.92329  0.75073  0.41157  1.0000
  S   S266      1.0  0.47957  0.84303  0.12401  1.0000
  H   H1573     1.0  0.93177  0.77381  0.30379  1.0000
  C   C1980     1.0  0.95101  0.74595  0.38343  1.0000
  C   C1981     1.0  0.88274  0.75864  0.42885  1.0000
  C   C1982     1.0  0.47446  0.73757  0.10968  1.0000
  H   H1574     1.0  0.73465  0.93546  0.21084  1.0000
  H   H1575     1.0  0.94520  0.87380  0.41295  1.0000
  H   H1576     1.0  0.80081  0.97301  0.15207  1.0000
  C   C1983     1.0  0.47273  0.96739  0.45460  1.0000
  C   C1984     1.0  0.68190  0.74515  0.42890  1.0000
  H   H1577     1.0  0.47917  0.75694  0.11642  1.0000
  H   H1578     1.0  0.74411  0.96814  0.25636  1.0000
  C   C1985     1.0  0.64498  0.73256  0.34612  1.0000
  H   H1579     1.0  0.90430  0.84786  0.15675  1.0000
  H   H1580     1.0  0.88637  0.85953  0.10462  1.0000
  C   C1986     1.0  0.84748  0.83416  0.11567  1.0000
  C   C1987     1.0  0.85240  0.97612  0.12538  1.0000
  C   C1988     1.0  0.49568  0.82258  0.04702  1.0000
  S   S267      1.0  0.95463  0.78219  0.04020  1.0000
  H   H1581     1.0  0.90085  0.77421  0.43807  1.0000
  H   H1582     1.0  0.58593  0.74138  0.36071  1.0000
  H   H1583     1.0  0.75427  0.81830  0.30948  1.0000
  C   C1989     1.0  0.86759  0.74451  0.26309  1.0000
  C   C1990     1.0  0.72480  0.78752  0.38204  1.0000
  H   H1584     1.0  0.80683  0.97056  0.09221  1.0000
  H   H1585     1.0  0.55310  0.84305  0.35530  1.0000
  C   C1991     1.0  0.74517  0.97334  0.22923  1.0000
  H   H1586     1.0  0.53700  0.80184  0.25675  1.0000
  C   C1992     1.0  0.69971  0.78176  0.37239  1.0000
  H   H1587     1.0  0.48128  0.96182  0.43419  1.0000
  H   H1588     1.0  0.81335  0.95482  0.45925  1.0000
  C   C1993     1.0  0.50663  0.78258  0.05570  1.0000
  H   H1589     1.0  0.51122  0.76732  0.05922  1.0000
  H   H1590     1.0  0.74341  0.77970  0.13617  1.0000
  H   H1591     1.0  0.73779  0.94616  0.14790  1.0000
  C   C1994     1.0  0.77097  0.82145  0.02580  1.0000
  H   H1592     1.0  0.49363  0.75748  0.99052  1.0000
  C   C1995     1.0  0.46946  0.77264  0.18576  1.0000
  C   C1996     1.0  0.47060  0.95955  0.98278  1.0000
  H   H1593     1.0  0.84605  0.84051  0.00366  1.0000
  C   C1997     1.0  0.62361  0.75026  0.38036  1.0000
  H   H1594     1.0  0.82790  0.91063  0.42029  1.0000
  H   H1595     1.0  0.71013  0.80893  0.29238  1.0000
  H   H1596     1.0  0.72966  0.78239  0.40716  1.0000
  H   H1597     1.0  0.76495  0.82695  0.00170  1.0000
  P   P68       1.0  0.67426  0.76536  0.40172  1.0000
  H   H1598     1.0  0.53550  0.84704  0.05882  1.0000
  H   H1599     1.0  0.88781  0.80594  0.31914  1.0000
  H   H1600     1.0  0.76757  0.97149  0.07416  1.0000
  C   C1998     1.0  0.86489  0.74489  0.45337  1.0000
  C   C1999     1.0  0.88193  0.78853  0.30412  1.0000
  C   C2000     1.0  0.83112  0.81549  0.13782  1.0000
  C   C2001     1.0  0.93664  0.76569  0.32613  1.0000
  H   H1601     1.0  0.80215  0.84626  0.10453  1.0000
  H   H1602     1.0  0.46727  0.86857  0.38281  1.0000
  C   C2002     1.0  0.92425  0.76231  0.35772  1.0000
  C   C2003     1.0  0.86502  0.76463  0.24913  1.0000
  H   H1603     1.0  0.84024  0.83857  0.09184  1.0000
  S   S268      1.0  0.46937  0.87627  0.03962  1.0000
  C   C2004     1.0  0.96294  0.74898  0.35175  1.0000
  C   C2005     1.0  0.81530  0.97298  0.46733  1.0000
  H   H1604     1.0  0.95717  0.73911  0.40603  1.0000
  C   C2006     1.0  0.91456  0.80414  0.37735  1.0000
  C   C2007     1.0  0.89958  0.81360  0.39235  1.0000
  H   H1605     1.0  0.54539  0.81155  0.06598  1.0000
  H   H1606     1.0  0.81368  0.83141  0.19210  1.0000
  C   C2008     1.0  0.72572  0.97613  0.46606  1.0000
  C   C2009     1.0  0.94078  0.82013  0.37531  1.0000
  H   H1607     1.0  0.67567  0.78640  0.33243  1.0000
  C   C2010     1.0  0.94736  0.81545  0.25472  1.0000
  C   C2011     1.0  0.76566  0.79634  0.02966  1.0000
  C   C2012     1.0  0.84180  0.88750  0.00573  1.0000
  C   C2013     1.0  0.95902  0.81409  0.47392  1.0000
  H   H1608     1.0  0.82926  0.79405  0.18397  1.0000
  C   C2014     1.0  0.53059  0.80833  0.27892  1.0000
  H   H1609     1.0  0.85753  0.87569  0.04888  1.0000
  C   C2015     1.0  0.74428  0.80040  0.35920  1.0000
  C   C2016     1.0  0.88494  0.76854  0.31819  1.0000
  C   C2017     1.0  0.80590  0.97587  0.25405  1.0000
  H   H1610     1.0  0.87933  0.80156  0.39429  1.0000
  H   H1611     1.0  0.81491  0.76032  0.01215  1.0000
  H   H1612     1.0  0.85823  0.76348  0.22204  1.0000
  H   H1613     1.0  0.76848  0.75501  0.17362  1.0000
  Fe  Fe131     1.0  0.53935  0.73387  0.26692  1.0000
  C   C2018     1.0  0.78028  0.80437  0.16121  1.0000
  C   C2019     1.0  0.53959  0.83146  0.33448  1.0000
  C   C2020     1.0  0.84146  0.80894  0.16711  1.0000
  C   C2021     1.0  0.77953  0.82681  0.21423  1.0000
  C   C2022     1.0  0.77401  0.78918  0.06014  1.0000
  C   C2023     1.0  0.93178  0.75265  0.38651  1.0000
  C   C2024     1.0  0.73899  0.80782  0.32672  1.0000
  H   H1614     1.0  0.71954  0.78904  0.18019  1.0000
  C   C2025     1.0  0.50473  0.80057  0.28147  1.0000
  C   C2026     1.0  0.49608  0.80842  0.31034  1.0000
  H   H1615     1.0  0.79776  0.89331  0.46713  1.0000
  H   H1616     1.0  0.95285  0.81336  0.36410  1.0000
  C   C2027     1.0  0.87204  0.78654  0.26971  1.0000
  H   H1617     1.0  0.87222  0.94399  0.43406  1.0000
  C   C2028     1.0  0.95180  0.84520  0.38812  1.0000
  C   C2029     1.0  0.47520  0.81481  0.14535  1.0000
  C   C2030     1.0  0.90391  0.83704  0.99482  1.0000
  H   H1618     1.0  0.48201  0.82684  0.25169  1.0000
  C   C2031     1.0  0.83407  0.91782  0.44707  1.0000
  C   C2032     1.0  0.51368  0.82370  0.33711  1.0000
  C   C2033     1.0  0.80262  0.97400  0.18033  1.0000
  H   H1619     1.0  0.81929  0.80715  0.47329  1.0000
  C   C2034     1.0  0.77615  0.74873  0.15285  1.0000
  H   H1620     1.0  0.48880  0.73237  0.15959  1.0000
  C   C2035     1.0  0.82929  0.90112  0.99576  1.0000
  C   C2036     1.0  0.86312  0.97346  0.06542  1.0000
  Fe  Fe132     1.0  0.86679  0.73353  0.10137  1.0000
  C   C2037     1.0  0.83198  0.82162  0.99537  1.0000
  C   C2038     1.0  0.81697  0.90804  0.47380  1.0000
  H   H1621     1.0  0.84671  0.87786  0.98579  1.0000
  H   H1622     1.0  0.66981  0.92119  0.46334  1.0000
  C   C2039     1.0  0.65925  0.78038  0.46179  1.0000
  C   C2040     1.0  0.85342  0.73232  0.38172  1.0000
  C   C2041     1.0  0.68375  0.94051  0.47065  1.0000
  H   H1623     1.0  0.70755  0.77589  0.46436  1.0000
  H   H1624     1.0  0.80713  0.97688  0.28240  1.0000
  H   H1625     1.0  0.65289  0.76129  0.47053  1.0000
  H   H1626     1.0  0.96528  0.76191  0.29867  1.0000
  H   H1627     1.0  0.46880  0.76718  0.37159  1.0000
  H   H1628     1.0  0.82020  0.97347  0.34513  1.0000
  H   H1629     1.0  0.87994  0.73089  0.30760  1.0000
  H   H1630     1.0  0.89818  0.73048  0.99022  1.0000
  H   H1631     1.0  0.70729  0.88487  0.47957  1.0000
  H   H1632     1.0  0.75113  0.97738  0.36330  1.0000
  C   C2042     1.0  0.70688  0.74101  0.47778  1.0000
  Fe  Fe133     1.0  0.48802  0.72959  0.24000  1.0000
  H   H1633     1.0  0.86924  0.75003  0.48110  1.0000
  Fe  Fe134     1.0  0.82909  0.77307  0.62560  1.0000
  S   S269      1.0  0.79222  0.74364  0.59999  1.0000
  S   S270      1.0  0.83208  0.78832  0.68227  1.0000
  Fe  Fe135     1.0  0.85950  0.77272  0.56085  1.0000
  S   S271      1.0  0.82360  0.74291  0.53247  1.0000
  S   S272      1.0  0.89774  0.79629  0.53423  1.0000
  Fe  Fe136     1.0  0.80539  0.76626  0.55055  1.0000
  S   S273      1.0  0.77791  0.77722  0.52014  1.0000
  H   H1634     1.0  0.94107  0.79338  0.89937  1.0000
  S   S274      1.0  0.84126  0.79648  0.57737  1.0000
  S   S275      1.0  0.85073  0.75193  0.61212  1.0000
  Fe  Fe137     1.0  0.76117  0.81691  0.89853  1.0000
  S   S276      1.0  0.79030  0.85009  0.87034  1.0000
  S   S277      1.0  0.76947  0.78792  0.92737  1.0000
  Fe  Fe138     1.0  0.71665  0.82590  0.86879  1.0000
  S   S278      1.0  0.74382  0.86005  0.83962  1.0000
  S   S279      1.0  0.67291  0.80911  0.87119  1.0000
  Fe  Fe139     1.0  0.76233  0.83632  0.82365  1.0000
  S   S280      1.0  0.76871  0.83183  0.76510  1.0000
  Fe  Fe140     1.0  0.76948  0.87091  0.88908  1.0000
  S   S281      1.0  0.79539  0.91054  0.91459  1.0000
  S   S282      1.0  0.73402  0.80203  0.85101  1.0000
  S   S283      1.0  0.74152  0.83799  0.91935  1.0000
  Fe  Fe141     1.0  0.48366  0.76429  0.81389  1.0000
  S   S284      1.0  0.51364  0.80117  0.79458  1.0000
  C   C2043     1.0  0.76443  0.94965  0.96451  1.0000
  C   C2044     1.0  0.90671  0.77415  0.92832  1.0000
  S   S285      1.0  0.51038  0.77126  0.72053  1.0000
  Fe  Fe142     1.0  0.53208  0.77885  0.77348  1.0000
  S   S286      1.0  0.57537  0.79233  0.77319  1.0000
  Fe  Fe143     1.0  0.48947  0.79037  0.74383  1.0000
  C   C2045     1.0  0.46889  0.80593  0.87786  1.0000
  S   S287      1.0  0.50330  0.74232  0.79607  1.0000
  C   C2046     1.0  0.79079  0.93281  0.94069  1.0000
  C   C2047     1.0  0.90540  0.80637  0.80514  1.0000
  H   H1635     1.0  0.78111  0.75379  0.96688  1.0000
  C   C2048     1.0  0.72752  0.76529  0.77425  1.0000
  C   C2049     1.0  0.76684  0.93089  0.94480  1.0000
  C   C2050     1.0  0.70099  0.73336  0.81413  1.0000
  H   H1636     1.0  0.75021  0.91521  0.93225  1.0000
  C   C2051     1.0  0.64601  0.80381  0.84283  1.0000
  C   C2052     1.0  0.64828  0.81171  0.80809  1.0000
  C   C2053     1.0  0.62653  0.80802  0.78744  1.0000
  C   C2054     1.0  0.60208  0.79630  0.80091  1.0000
  C   C2055     1.0  0.59974  0.78806  0.83549  1.0000
  C   C2056     1.0  0.62150  0.79184  0.85619  1.0000
  H   H1637     1.0  0.66685  0.82099  0.79726  1.0000
  H   H1638     1.0  0.62873  0.81445  0.76078  1.0000
  H   H1639     1.0  0.58120  0.77876  0.84633  1.0000
  H   H1640     1.0  0.61936  0.78560  0.88294  1.0000
  H   H1641     1.0  0.77286  0.74350  0.67432  1.0000
  H   H1642     1.0  0.88206  0.83366  0.89699  1.0000
  H   H1643     1.0  0.51152  0.78840  0.91959  1.0000
  H   H1644     1.0  0.81267  0.83419  0.95764  1.0000
  C   C2057     1.0  0.82474  0.91704  0.50865  1.0000
  C   C2058     1.0  0.81217  0.95353  0.95719  1.0000
  C   C2059     1.0  0.81436  0.80082  0.70422  1.0000
  C   C2060     1.0  0.79376  0.80229  0.68793  1.0000
  C   C2061     1.0  0.78009  0.81180  0.70691  1.0000
  C   C2062     1.0  0.78653  0.81970  0.74253  1.0000
  C   C2063     1.0  0.80713  0.81825  0.75870  1.0000
  C   C2064     1.0  0.82098  0.80904  0.73964  1.0000
  H   H1645     1.0  0.78838  0.79615  0.66072  1.0000
  H   H1646     1.0  0.76431  0.81296  0.69394  1.0000
  H   H1647     1.0  0.81274  0.82483  0.78567  1.0000
  H   H1648     1.0  0.83708  0.80841  0.75240  1.0000
  C   C2065     1.0  0.47422  0.73163  0.94718  1.0000
  H   H1649     1.0  0.87593  0.77725  0.83332  1.0000
  H   H1650     1.0  0.46954  0.84180  0.88588  1.0000
  P   P69       1.0  0.74596  0.73306  0.79654  1.0000
  H   H1651     1.0  0.82104  0.93141  0.66918  1.0000
  H   H1652     1.0  0.65907  0.94651  0.50458  1.0000
  C   C2066     1.0  0.92160  0.79369  0.51009  1.0000
  C   C2067     1.0  0.60899  0.94765  0.89233  1.0000
  H   H1653     1.0  0.95897  0.86649  0.64191  1.0000
  C   C2068     1.0  0.90041  0.81655  0.97331  1.0000
  H   H1654     1.0  0.79736  0.75813  0.90466  1.0000
  C   C2069     1.0  0.88814  0.83440  0.92430  1.0000
  H   H1655     1.0  0.83082  0.95531  0.95419  1.0000
  C   C2070     1.0  0.67772  0.95481  0.49384  1.0000
  C   C2071     1.0  0.78286  0.80126  0.48898  1.0000
  C   C2072     1.0  0.79548  0.77282  0.97446  1.0000
  C   C2073     1.0  0.94054  0.83889  0.84028  1.0000
  H   H1656     1.0  0.68113  0.86645  0.85025  1.0000
  C   C2074     1.0  0.81283  0.91936  0.61462  1.0000
  C   C2075     1.0  0.82646  0.79431  0.83332  1.0000
  H   H1657     1.0  0.49288  0.87059  0.80192  1.0000
  H   H1658     1.0  0.47697  0.81052  0.85237  1.0000
  H   H1659     1.0  0.80746  0.90001  0.62075  1.0000
  H   H1660     1.0  0.73990  0.92886  0.49597  1.0000
  H   H1661     1.0  0.80749  0.80985  0.86432  1.0000
  C   C2076     1.0  0.82328  0.77478  0.81007  1.0000
  C   C2077     1.0  0.52962  0.82837  0.91034  1.0000
  C   C2078     1.0  0.52623  0.80381  0.90594  1.0000
  C   C2079     1.0  0.54104  0.79897  0.88283  1.0000
  C   C2080     1.0  0.55964  0.81879  0.86464  1.0000
  C   C2081     1.0  0.56376  0.84366  0.86978  1.0000
  C   C2082     1.0  0.54809  0.84821  0.89198  1.0000
  P   P70       1.0  0.58703  0.86864  0.84467  1.0000
  C   C2083     1.0  0.57265  0.86373  0.80088  1.0000
  C   C2084     1.0  0.59507  0.89946  0.86312  1.0000
  C   C2085     1.0  0.59753  0.91919  0.84143  1.0000
  S   S288      1.0  0.47848  0.81997  0.72358  1.0000
  C   C2086     1.0  0.79457  0.79358  0.95883  1.0000
  C   C2087     1.0  0.78157  0.83650  0.59124  1.0000
  C   C2088     1.0  0.60048  0.90431  0.89940  1.0000
  C   C2089     1.0  0.57920  0.85174  0.77452  1.0000
  C   C2090     1.0  0.56643  0.84602  0.74151  1.0000
  C   C2091     1.0  0.54698  0.85216  0.73458  1.0000
  C   C2092     1.0  0.54021  0.86394  0.76075  1.0000
  C   C2093     1.0  0.55279  0.86948  0.79392  1.0000
  C   C2094     1.0  0.61665  0.86753  0.84622  1.0000
  C   C2095     1.0  0.63464  0.88008  0.82105  1.0000
  C   C2096     1.0  0.65782  0.87969  0.82248  1.0000
  C   C2097     1.0  0.72344  0.74503  0.79578  1.0000
  C   C2098     1.0  0.95534  0.81739  0.59248  1.0000
  H   H1662     1.0  0.76922  0.86467  0.58965  1.0000
  H   H1663     1.0  0.51742  0.83185  0.92732  1.0000
  H   H1664     1.0  0.83967  0.77420  0.80019  1.0000
  H   H1665     1.0  0.53772  0.77977  0.87834  1.0000
  H   H1666     1.0  0.57052  0.81470  0.84602  1.0000
  H   H1667     1.0  0.54976  0.86688  0.89483  1.0000
  H   H1668     1.0  0.59454  0.91626  0.81322  1.0000
  C   C2099     1.0  0.62266  0.85556  0.87366  1.0000
  C   C2100     1.0  0.80968  0.97190  0.97769  1.0000
  C   C2101     1.0  0.76387  0.80852  0.48287  1.0000
  H   H1669     1.0  0.59952  0.88956  0.91641  1.0000
  H   H1670     1.0  0.59346  0.84585  0.77968  1.0000
  H   H1671     1.0  0.57104  0.83597  0.72174  1.0000
  H   H1672     1.0  0.53653  0.84703  0.70934  1.0000
  H   H1673     1.0  0.52451  0.86783  0.75552  1.0000
  H   H1674     1.0  0.54660  0.87760  0.81438  1.0000
  H   H1675     1.0  0.63065  0.88993  0.80014  1.0000
  H   H1676     1.0  0.67138  0.88877  0.80250  1.0000
  H   H1677     1.0  0.93825  0.83550  0.89616  1.0000
  H   H1678     1.0  0.79684  0.74107  0.78122  1.0000
  C   C2102     1.0  0.89293  0.81530  0.93773  1.0000
  C   C2103     1.0  0.72515  0.88842  0.49249  1.0000
  H   H1679     1.0  0.74732  0.80048  0.49847  1.0000
  H   H1680     1.0  0.66653  0.73407  0.82691  1.0000
  P   P71       1.0  0.80270  0.90391  0.54315  1.0000
  C   C2104     1.0  0.80126  0.87455  0.55708  1.0000
  C   C2105     1.0  0.81233  0.92668  0.57978  1.0000
  H   H1681     1.0  0.64602  0.79136  0.50723  1.0000
  C   C2106     1.0  0.92356  0.77138  0.50826  1.0000
  C   C2107     1.0  0.86713  0.94507  0.48962  1.0000
  C   C2108     1.0  0.81817  0.86662  0.54462  1.0000
  C   C2109     1.0  0.81680  0.84387  0.55557  1.0000
  C   C2110     1.0  0.79862  0.82890  0.57898  1.0000
  C   C2111     1.0  0.80518  0.79510  0.84563  1.0000
  C   C2112     1.0  0.90531  0.80503  0.86883  1.0000
  C   C2113     1.0  0.77195  0.89779  0.52463  1.0000
  H   H1682     1.0  0.74584  0.94813  0.96691  1.0000
  C   C2114     1.0  0.92878  0.82852  0.80742  1.0000
  C   C2115     1.0  0.82078  0.93727  0.64242  1.0000
  C   C2116     1.0  0.94314  0.77053  0.48968  1.0000
  C   C2117     1.0  0.75370  0.87304  0.51402  1.0000
  C   C2118     1.0  0.66343  0.86730  0.84947  1.0000
  C   C2119     1.0  0.85015  0.93515  0.51650  1.0000
  H   H1683     1.0  0.86701  0.73898  0.87856  1.0000
  C   C2120     1.0  0.85776  0.76701  0.89971  1.0000
  C   C2121     1.0  0.89102  0.85455  0.94611  1.0000
  H   H1684     1.0  0.83226  0.87768  0.52620  1.0000
  H   H1685     1.0  0.82951  0.83750  0.54538  1.0000
  H   H1686     1.0  0.79746  0.81113  0.58709  1.0000
  C   C2122     1.0  0.93107  0.77940  0.91855  1.0000
  H   H1687     1.0  0.89634  0.79832  0.77960  1.0000
  H   H1688     1.0  0.84155  0.78984  0.91998  1.0000
  H   H1689     1.0  0.73735  0.73280  0.87129  1.0000
  C   C2123     1.0  0.82855  0.97025  0.60129  1.0000
  H   H1690     1.0  0.57577  0.73779  0.78457  1.0000
  H   H1691     1.0  0.75759  0.85728  0.51688  1.0000
  C   C2124     1.0  0.60428  0.94314  0.85608  1.0000
  H   H1692     1.0  0.53933  0.73075  0.74466  1.0000
  H   H1693     1.0  0.91011  0.75482  0.52143  1.0000
  H   H1694     1.0  0.71357  0.79036  0.75576  1.0000
  C   C2125     1.0  0.90711  0.74379  0.96971  1.0000
  H   H1695     1.0  0.61117  0.93184  0.94202  1.0000
  H   H1696     1.0  0.96246  0.77178  0.92768  1.0000
  H   H1697     1.0  0.49436  0.89619  0.85447  1.0000
  H   H1698     1.0  0.94444  0.75318  0.48879  1.0000
  H   H1699     1.0  0.76456  0.77764  0.84393  1.0000
  C   C2126     1.0  0.89478  0.75615  0.95392  1.0000
  P   P72       1.0  0.89064  0.79027  0.90877  1.0000
  C   C2127     1.0  0.79889  0.75622  0.79886  1.0000
  C   C2128     1.0  0.89380  0.79452  0.83572  1.0000
  C   C2129     1.0  0.81263  0.75394  0.89930  1.0000
  H   H1700     1.0  0.78073  0.93726  0.52393  1.0000
  C   C2130     1.0  0.68787  0.76298  0.79076  1.0000
  H   H1701     1.0  0.67460  0.77050  0.78974  1.0000
  C   C2131     1.0  0.78273  0.85913  0.58015  1.0000
  H   H1702     1.0  0.60946  0.84621  0.89389  1.0000
  C   C2132     1.0  0.73034  0.86838  0.49840  1.0000
  C   C2133     1.0  0.78078  0.77685  0.83388  1.0000
  C   C2134     1.0  0.74346  0.91318  0.50189  1.0000
  C   C2135     1.0  0.77746  0.75755  0.80990  1.0000
  C   C2136     1.0  0.85196  0.74337  0.88441  1.0000
  C   C2137     1.0  0.94850  0.83050  0.61649  1.0000
  H   H1703     1.0  0.65028  0.84553  0.89575  1.0000
  H   H1704     1.0  0.96446  0.89069  0.48210  1.0000
  H   H1705     1.0  0.60604  0.95829  0.83926  1.0000
  C   C2138     1.0  0.65519  0.79732  0.48256  1.0000
  C   C2139     1.0  0.64594  0.85542  0.87516  1.0000
  C   C2140     1.0  0.94331  0.76697  0.93438  1.0000
  H   H1706     1.0  0.88689  0.86899  0.93574  1.0000
  H   H1707     1.0  0.82448  0.90189  0.96824  1.0000
  H   H1708     1.0  0.85688  0.94170  0.54331  1.0000
  H   H1709     1.0  0.87616  0.75204  0.96227  1.0000
  H   H1710     1.0  0.84534  0.80875  0.84192  1.0000
  C   C2141     1.0  0.76674  0.91787  0.51788  1.0000
  C   C2142     1.0  0.70980  0.77419  0.77169  1.0000
  C   C2143     1.0  0.92880  0.82729  0.87087  1.0000
  H   H1711     1.0  0.74453  0.77439  0.75959  1.0000
  H   H1712     1.0  0.76740  0.82472  0.60921  1.0000
  C   C2144     1.0  0.60721  0.92827  0.91396  1.0000
  C   C2145     1.0  0.68344  0.74254  0.81190  1.0000
  H   H1713     1.0  0.93785  0.83756  0.78371  1.0000
  H   H1714     1.0  0.61425  0.96622  0.90364  1.0000
  H   H1715     1.0  0.94234  0.79767  0.58571  1.0000
  H   H1716     1.0  0.65900  0.83479  0.48700  1.0000
  C   C2146     1.0  0.83786  0.77204  0.90759  1.0000
  C   C2147     1.0  0.47580  0.74180  0.98091  1.0000
  C   C2148     1.0  0.93138  0.74926  0.96003  1.0000
  H   H1717     1.0  0.93031  0.82080  0.62850  1.0000
  H   H1718     1.0  0.77610  0.75726  0.73581  1.0000
  C   C2149     1.0  0.82040  0.95235  0.57353  1.0000
  H   H1719     1.0  0.71660  0.84926  0.49003  1.0000
  C   C2150     1.0  0.76161  0.73837  0.72776  1.0000
  H   H1720     1.0  0.72099  0.74963  0.49936  1.0000
  C   C2151     1.0  0.81314  0.81805  0.96923  1.0000
  C   C2152     1.0  0.82863  0.96270  0.63577  1.0000
  H   H1721     1.0  0.47282  0.94339  0.97497  1.0000
  C   C2153     1.0  0.47548  0.86725  0.81384  1.0000
  H   H1722     1.0  0.94130  0.74041  0.97331  1.0000
  Fe  Fe144     1.0  0.48100  0.73552  0.74423  1.0000
  H   H1723     1.0  0.95887  0.85583  0.84212  1.0000
  H   H1724     1.0  0.83501  0.97660  0.65729  1.0000
  H   H1725     1.0  0.82090  0.95869  0.54713  1.0000
  C   C2154     1.0  0.93955  0.81501  0.49278  1.0000
  H   H1726     1.0  0.88656  0.95931  0.49579  1.0000
  C   C2155     1.0  0.47628  0.88166  0.84331  1.0000
  H   H1727     1.0  0.93833  0.83239  0.49389  1.0000
  C   C2156     1.0  0.75951  0.73077  0.69253  1.0000
  C   C2157     1.0  0.96464  0.85624  0.62392  1.0000
  H   H1728     1.0  0.49054  0.73970  0.93097  1.0000
  C   C2158     1.0  0.80706  0.73063  0.88372  1.0000
  C   C2159     1.0  0.78579  0.97029  0.98110  1.0000
  C   C2160     1.0  0.89906  0.85594  0.98134  1.0000
