data_image0
_chemical_formula_structural       CFeS2FeSCFeSFeS3FeS2FeS2FeSFeS3H2SC2HC8HCHC6H2CHC6H4C4H2CH5C4PC16H14CH2CHC3H2CHC8H4CHCH2CH2C3H5CHC2HCH2CH2CHC2HC2H2CHC3SC3HCHCHC2HC3H2C8PC3HCHC4HC3PH2CH8CH4CHFeCHCH2C2HCH6C3HC7PCHC6H5CHCH8CHCHC3HCH3C4H4FeS2FeS2FeSCFeS2FeSFeS3FeS2FeS2FeSFeS3C6H3C6H2CHC3H4CHC11H3C6H4CHCHC3HCHC2H4C9H2PH2CHCH4CHCHCH2PH2CHC5SCHC2HC2HCH2C2HC3HC7H3CSHCHCH3CHCH6CHC6HC6PC4H3C6HC2H6CHCPCH4CH2CH2C7PC4HCHC6H3CH3CH6CHC2H3CHC2HC2HCH2PHC4HCH2CHCHCHCH2C3HCHCH2FeH2C2H2C2H3CHFeSHFeSCFeSFeS2FeSFeC2FeS3C2HCH2C4H2C4HCH2C7H2SCFeS2FeSCHFeS3FeS2FeS2FeSFeS4H3C6H3C3HC3H2C2HCH2C2H2CH3CHC2H4C3PCHC6HCH3CH4C2HC6PC18HPH19CHC3FeCH2C6HCHCSH2C6PC3H3C12H5CHSH12C7PC3HC14H6CH9CH2C2H4SHCHCHC2HC7HC3HC8H8S2CH2CH2C2HFeS2FeS2FeS2FeSFeHS2HC3HC4H3C6H9CFeS2FeS2FeSFeS3FeCSHCSC6H4C2HPHC2H2C5HCH2CHC10H2CHC2HCH4C6PC3H2C13H2CH2CH13C5HCH2CH4C3H2PHCPH3C3HC4H2SC4H4C2HCHCHCHCHC4HCHCHSCH3CHC3H2C4HCHCPC7H2C2H3C2H3C2H7CH2C3H3C3HCH2C2PCHC2HC2HSC6HCH2CH2CH2C2HPH3C4H2FeH4C4HFeS2FeS2FeSFeS4FeS2FeSHFeSFeS3C2HCH2C7HCHCHCH2CH2C6H4C6H8C2H2C2HPC7HC4H3C6HC3HC8H2CHC2H4CH2C2H4C3HCHC2HC2HCHPH2C7PH2CHSHC2H3C6PC4PC13H19C12H10C8HC4H2CH6CHCH3CH3C3HC2H2C4H2C2HC2HC2H3C3PCSHC2H2C2H3C2PH5CHCHC3HCFeS2FeS2FeSFeS3CSCFeSHFeS2FeSHFeSFeS3H5C6H5C2HCH2C6H4C6H2PHC6H4C3HCHCHC2H3CPHC2HCHC2H2C6H2C2H2CH6CSHCH2FeH3C3H2C2H3CH3CHC4SHCH2CHC2H3CH4C3SHC6PC18H20CH3C2HC2H3CHC7PC18H7C3HC4H2C6H2CHC2H2C4HC3H2CHCSPHC3HC2HC5FeS2FeSCFeSFeS3FeS2FeS2FeSFeS3HFeSHCH2C7H3C6H4C6H4C2HCH2CH4CHCHC4H2C2H7C2H2PCHCH2CSH3C5PC4HC3HCHC2H3C5H4C2H2CHC2PC9HC8H9C2H6C6PC4HC13H3CHPCH14C7PC9H15CHC2H3C2HC7HC2SH2CH2CHC2H4CHC6HC2HC3HC3HC5HCH2C2HCHC4H4CSCHFeS2FeS2FeSCFeS2FeSFeS3FeS2FeS2FeSFeS3C6H3C2H2C2HC2HC3H3CH3CHCHC2H2CH4C6H4C2H3C2H2C3H3CHCH2CHCHC4HCHC5H4C4H2C3PC2HSC2HC2FeCH3SCHC4HC3HCHC6HC3H2C3H2C2H5C3H3CHC2H2C7H2C4PH3CPHCH3C3PC9HCHC6H6CH10CHCHCHC5H2C3HCHCHCH3C2PC2HC3H7C2H3C2HCH4CHFeSCFeSHFeSFeHSFeSFeC2FeS3C2HCH2C4H2C4HCH4C4H5FeS2FeS2HFeS3FeS2FeS2FeSFeS3H2CHC6HSH2C2HC3H2C2SCH2C2H5CHCH2CHC3H2CH3C2H2CHCHC6HCSCHC2H3C2H3CH3C6PC8H2C5HC2H18CH2CH2C4HC5H2C4HC2H2C2H2CH4CH2C4HC2HC2H2C2SCHC4HFeCHCH2CH2PCH2C6HCH2C7PC2H4SH2C2HPCHCH2CHSCFeSHFeS2FeS2FeSFeS3H5C4H3C6H4PHC2HCFeS2FeS2FeSFeS3FeHSCHSC6H4C2HC4H3C3H2CHCSHPH2C2HC4H2C6PC18HC2H3CH13CH3C5H2C5H2CH4C7HCH4C2H2CHC3H2CH2C6H3C5H2C7HCHCHCH2C2H5CH3CHCHC7HCHC3HC3PHC2HCH2C2H2CH5CHC2HC2HCHCHC3HCHC2H3CHC2HC4H5C3H3C4HC4FeS2FeS2FeSFeS4FeS2FeSHFeSFeS3C2HCH3C5H4CPC4H2C6H3C7H5C4HC2H2C2HC3HCHC2H6C6PC6HC2HC4H2C2H6C2H3CH5CHC6PC7H2C3PCH10PH2C9H3C2H3C5PC14H2C3H10CH3CH3CH3CH2CHC2H2CH2CHCHC5HC2HC3H3C3H3PC2H3C2H2C7H3CHCHCH2C4H3CHFeS2FeS2FeSFeS3HSCFeSCFeS2FeSHFeSFeS3H3C8H5C2HCH3C2HC2H4C3H2CHCH2C6H4C5HCHSCHPCHC3H2CH3C2H9C5H2C2HC2HC2HC6PH4C5HC3HCHCH4CH2C2H2CFeCH2C8PC13HC4H11CH4CH2CHFeHC4HC4H3CH2C3PC3HC3SCHC2H2C4HC3HCHCH2CHCHCHC3H3CH2CSHC2H4CHCHCHC3SH2C3H2C2H2SH
_chemical_formula_sum              "C1920 Fe128 S256 H1536 P64"
_cell_length_a       46.0109
_cell_length_b       45.9664
_cell_length_c       40.5123
_cell_angle_alpha    90.016
_cell_angle_beta     89.9539
_cell_angle_gamma    90.1389

_space_group_name_H-M_alt    "P 1"
_space_group_IT_number       1

loop_
  _space_group_symop_operation_xyz
  'x, y, z'

loop_
  _atom_site_type_symbol
  _atom_site_label
  _atom_site_symmetry_multiplicity
  _atom_site_fract_x
  _atom_site_fract_y
  _atom_site_fract_z
  _atom_site_occupancy
  C   C1        1.0  0.12540  0.99630  0.26821  1.0000
  Fe  Fe1       1.0  0.07461  0.09951  0.14201  1.0000
  S   S1        1.0  0.10261  0.13355  0.16668  1.0000
  S   S2        1.0  0.09348  0.07286  0.09867  1.0000
  Fe  Fe2       1.0  0.02775  0.10323  0.19803  1.0000
  S   S3        1.0  0.05305  0.13716  0.22589  1.0000
  C   C2        1.0  0.18659  0.16971  0.38882  1.0000
  Fe  Fe3       1.0  0.06025  0.15693  0.17573  1.0000
  S   S4        1.0  0.05840  0.20579  0.16905  1.0000
  Fe  Fe4       1.0  0.09332  0.11102  0.21472  1.0000
  S   S5        1.0  0.12522  0.09708  0.25534  1.0000
  S   S6        1.0  0.03262  0.12456  0.14796  1.0000
  S   S7        1.0  0.06760  0.07541  0.19001  1.0000
  Fe  Fe5       1.0  0.30922  0.12877  0.40814  1.0000
  S   S8        1.0  0.34072  0.09280  0.39770  1.0000
  S   S9        1.0  0.30988  0.15841  0.45389  1.0000
  Fe  Fe6       1.0  0.28114  0.12279  0.33857  1.0000
  S   S10       1.0  0.31150  0.08667  0.32329  1.0000
  S   S11       1.0  0.24921  0.14445  0.30288  1.0000
  Fe  Fe7       1.0  0.30246  0.06992  0.37452  1.0000
  S   S12       1.0  0.29681  0.02206  0.38502  1.0000
  Fe  Fe8       1.0  0.34733  0.11254  0.34738  1.0000
  S   S13       1.0  0.39426  0.12256  0.33166  1.0000
  S   S14       1.0  0.27012  0.10442  0.38857  1.0000
  S   S15       1.0  0.31774  0.15019  0.35899  1.0000
  H   H1        1.0  0.10873  0.30042  0.29220  1.0000
  H   H2        1.0  0.48421  0.12746  0.26626  1.0000
  S   S16       1.0  0.42584  0.26822  0.18109  1.0000
  C   C3        1.0  0.34642  0.99386  0.12727  1.0000
  C   C4        1.0  0.01415  0.00993  0.12057  1.0000
  H   H3        1.0  0.36418  0.03246  0.37862  1.0000
  C   C5        1.0  0.48328  0.20013  0.27618  1.0000
  C   C6        1.0  0.46071  0.25196  0.18004  1.0000
  C   C7        1.0  0.27698  0.21494  0.40208  1.0000
  C   C8        1.0  0.02093  0.25217  0.16558  1.0000
  C   C9        1.0  0.02356  0.22178  0.16769  1.0000
  C   C10       1.0  0.42192  0.29815  0.34375  1.0000
  C   C11       1.0  0.46311  0.22242  0.17166  1.0000
  C   C12       1.0  0.32168  0.14937  0.49459  1.0000
  H   H4        1.0  0.04020  0.26558  0.16438  1.0000
  C   C13       1.0  0.14350  0.00890  0.16864  1.0000
  H   H5        1.0  0.44382  0.21013  0.16537  1.0000
  C   C14       1.0  0.41636  0.11275  0.29740  1.0000
  C   C15       1.0  0.40723  0.09273  0.27356  1.0000
  C   C16       1.0  0.42605  0.08483  0.24754  1.0000
  C   C17       1.0  0.45400  0.09715  0.24473  1.0000
  C   C18       1.0  0.46281  0.11780  0.26807  1.0000
  C   C19       1.0  0.44412  0.12542  0.29432  1.0000
  H   H6        1.0  0.38584  0.08306  0.27541  1.0000
  H   H7        1.0  0.45171  0.01737  0.02307  1.0000
  C   C20       1.0  0.03305  0.00595  0.23881  1.0000
  H   H8        1.0  0.45133  0.14107  0.31251  1.0000
  C   C21       1.0  0.16063  0.10943  0.26643  1.0000
  C   C22       1.0  0.17414  0.13303  0.25084  1.0000
  C   C23       1.0  0.20156  0.14292  0.26180  1.0000
  C   C24       1.0  0.21589  0.12937  0.28833  1.0000
  C   C25       1.0  0.20279  0.10523  0.30325  1.0000
  C   C26       1.0  0.17533  0.09537  0.29236  1.0000
  H   H9        1.0  0.16346  0.14373  0.23043  1.0000
  H   H10       1.0  0.21179  0.16122  0.24966  1.0000
  H   H11       1.0  0.21356  0.09447  0.32360  1.0000
  H   H12       1.0  0.16528  0.07687  0.30437  1.0000
  C   C27       1.0  0.09240  0.07568  0.05456  1.0000
  C   C28       1.0  0.07402  0.09505  0.03805  1.0000
  C   C29       1.0  0.37110  0.01022  0.13527  1.0000
  C   C30       1.0  0.11019  0.05719  0.03551  1.0000
  H   H13       1.0  0.06019  0.10944  0.05214  1.0000
  H   H14       1.0  0.12444  0.04203  0.04786  1.0000
  C   C31       1.0  0.23973  0.02038  0.36343  1.0000
  H   H15       1.0  0.24809  0.18379  0.38016  1.0000
  H   H16       1.0  0.19495  0.01788  0.34762  1.0000
  H   H17       1.0  0.24186  0.04337  0.35818  1.0000
  H   H18       1.0  0.40740  0.15593  0.39274  1.0000
  H   H19       1.0  0.44007  0.26384  0.44138  1.0000
  C   C32       1.0  0.39350  0.17493  0.39242  1.0000
  C   C33       1.0  0.35592  0.22247  0.39065  1.0000
  C   C34       1.0  0.37050  0.21403  0.36179  1.0000
  C   C35       1.0  0.39043  0.19100  0.36331  1.0000
  P   P1        1.0  0.36362  0.23300  0.32353  1.0000
  C   C36       1.0  0.32470  0.23917  0.32110  1.0000
  C   C37       1.0  0.38250  0.26743  0.32419  1.0000
  C   C38       1.0  0.37292  0.29029  0.30404  1.0000
  C   C39       1.0  0.40734  0.27138  0.34383  1.0000
  C   C40       1.0  0.30601  0.21890  0.30598  1.0000
  C   C41       1.0  0.27596  0.22357  0.30548  1.0000
  C   C42       1.0  0.26425  0.24846  0.32004  1.0000
  C   C43       1.0  0.28254  0.26855  0.33542  1.0000
  C   C44       1.0  0.31256  0.26400  0.33596  1.0000
  C   C45       1.0  0.37643  0.21176  0.28878  1.0000
  C   C46       1.0  0.36878  0.18228  0.28582  1.0000
  C   C47       1.0  0.37909  0.16566  0.25943  1.0000
  C   C48       1.0  0.39787  0.17801  0.23626  1.0000
  C   C49       1.0  0.40587  0.20720  0.23916  1.0000
  C   C50       1.0  0.39515  0.22411  0.26513  1.0000
  C   C51       1.0  0.37100  0.02188  0.35599  1.0000
  H   H20       1.0  0.34128  0.24075  0.39035  1.0000
  H   H21       1.0  0.40284  0.18458  0.34182  1.0000
  H   H22       1.0  0.35423  0.28752  0.28812  1.0000
  H   H23       1.0  0.41552  0.25383  0.35901  1.0000
  H   H24       1.0  0.31417  0.19925  0.29481  1.0000
  H   H25       1.0  0.26173  0.20763  0.29408  1.0000
  H   H26       1.0  0.24099  0.25215  0.31959  1.0000
  H   H27       1.0  0.27339  0.28780  0.34683  1.0000
  H   H28       1.0  0.32618  0.27988  0.34826  1.0000
  H   H29       1.0  0.35540  0.17179  0.30432  1.0000
  H   H30       1.0  0.37305  0.14293  0.25750  1.0000
  H   H31       1.0  0.40646  0.16486  0.21630  1.0000
  H   H32       1.0  0.42051  0.21677  0.22129  1.0000
  H   H33       1.0  0.40183  0.24665  0.26650  1.0000
  C   C52       1.0  0.99845  0.20465  0.16881  1.0000
  H   H34       1.0  0.32315  0.10311  0.48690  1.0000
  H   H35       1.0  0.08874  0.17935  0.47044  1.0000
  C   C53       1.0  0.09686  0.01584  0.32530  1.0000
  H   H36       1.0  0.39939  0.05692  0.34124  1.0000
  C   C54       1.0  0.16677  0.15450  0.36890  1.0000
  C   C55       1.0  0.14706  0.03240  0.14707  1.0000
  C   C56       1.0  0.38765  0.00677  0.07870  1.0000
  H   H37       1.0  0.02514  0.98914  0.12110  1.0000
  H   H38       1.0  0.15544  0.24086  0.49641  1.0000
  C   C57       1.0  0.23230  0.27682  0.14113  1.0000
  H   H39       1.0  0.08627  0.02357  0.34751  1.0000
  C   C58       1.0  0.23957  0.30028  0.16176  1.0000
  C   C59       1.0  0.30123  0.29758  0.17270  1.0000
  C   C60       1.0  0.29925  0.28940  0.20599  1.0000
  C   C61       1.0  0.32033  0.27139  0.22012  1.0000
  C   C62       1.0  0.34363  0.26152  0.20107  1.0000
  C   C63       1.0  0.34545  0.26903  0.16773  1.0000
  C   C64       1.0  0.32416  0.28667  0.15342  1.0000
  C   C65       1.0  0.16192  0.03836  0.21365  1.0000
  H   H40       1.0  0.09318  0.27554  0.17452  1.0000
  H   H41       1.0  0.37436  0.01777  0.16036  1.0000
  H   H42       1.0  0.45917  0.17670  0.41012  1.0000
  H   H43       1.0  0.04872  0.02300  0.24386  1.0000
  C   C66       1.0  0.13023  0.16343  0.48692  1.0000
  H   H44       1.0  0.08484  0.05321  0.29612  1.0000
  C   C67       1.0  0.22497  0.22221  0.39691  1.0000
  H   H45       1.0  0.10867  0.03568  0.24573  1.0000
  H   H46       1.0  0.17364  0.08239  0.20115  1.0000
  C   C68       1.0  0.20719  0.26039  0.14717  1.0000
  H   H47       1.0  0.46323  0.18940  0.26900  1.0000
  H   H48       1.0  0.12662  0.31589  0.19008  1.0000
  C   C69       1.0  0.47119  0.25996  0.40178  1.0000
  C   C70       1.0  0.01281  0.05977  0.10143  1.0000
  C   C71       1.0  0.22821  0.25040  0.40983  1.0000
  H   H49       1.0  0.28130  0.29690  0.22097  1.0000
  H   H50       1.0  0.31861  0.26519  0.24585  1.0000
  H   H51       1.0  0.36031  0.24797  0.21194  1.0000
  H   H52       1.0  0.36362  0.26131  0.15308  1.0000
  H   H53       1.0  0.32585  0.29153  0.12741  1.0000
  C   C72       1.0  0.38747  0.31697  0.30421  1.0000
  H   H54       1.0  0.43219  0.21066  0.44642  1.0000
  C   C73       1.0  0.19736  0.28925  0.19585  1.0000
  C   C74       1.0  0.09668  0.28094  0.20028  1.0000
  H   H55       1.0  0.20961  0.26459  0.41259  1.0000
  C   C75       1.0  0.98972  0.21230  0.26188  1.0000
  H   H56       1.0  0.02255  0.07737  0.08740  1.0000
  H   H57       1.0  0.17843  0.31325  0.47443  1.0000
  C   C76       1.0  0.25555  0.26037  0.41978  1.0000
  H   H58       1.0  0.21321  0.11225  0.43268  1.0000
  H   H59       1.0  0.30712  0.98880  0.29027  1.0000
  C   C77       1.0  0.45496  0.99425  0.01965  1.0000
  H   H60       1.0  0.99160  0.28881  0.16420  1.0000
  C   C78       1.0  0.11002  0.02264  0.26792  1.0000
  C   C79       1.0  0.16416  0.12426  0.37147  1.0000
  H   H61       1.0  0.14948  0.11253  0.35529  1.0000
  C   C80       1.0  0.10268  0.17552  0.49153  1.0000
  C   C81       1.0  0.36313  0.99018  0.07065  1.0000
  H   H62       1.0  0.28249  0.30562  0.27883  1.0000
  H   H63       1.0  0.29581  0.20105  0.39923  1.0000
  C   C82       1.0  0.39871  0.02233  0.30524  1.0000
  H   H64       1.0  0.17021  0.25390  0.17909  1.0000
  C   C83       1.0  0.38679  0.99538  0.29658  1.0000
  C   C84       1.0  0.20003  0.12410  0.41507  1.0000
  C   C85       1.0  0.44731  0.21910  0.42822  1.0000
  S   S17       1.0  0.47731  0.08507  0.21248  1.0000
  C   C86       1.0  0.15779  0.05890  0.15878  1.0000
  C   C87       1.0  0.39167  0.01675  0.11097  1.0000
  C   C88       1.0  0.22245  0.30567  0.18989  1.0000
  H   H65       1.0  0.41897  0.06895  0.22954  1.0000
  C   C89       1.0  0.35943  0.99470  0.34767  1.0000
  H   H66       1.0  0.02045  0.28315  0.32567  1.0000
  C   C90       1.0  0.26333  0.00502  0.37643  1.0000
  H   H67       1.0  0.16726  0.04128  0.23952  1.0000
  C   C91       1.0  0.14998  0.01204  0.20237  1.0000
  C   C92       1.0  0.48613  0.24093  0.38061  1.0000
  H   H68       1.0  0.23708  0.31935  0.09447  1.0000
  C   C93       1.0  0.23301  0.00578  0.13894  1.0000
  C   C94       1.0  0.09607  0.03249  0.29647  1.0000
  C   C95       1.0  0.16566  0.06172  0.19193  1.0000
  H   H69       1.0  0.13771  0.15800  0.46227  1.0000
  H   H70       1.0  0.34691  0.21223  0.44168  1.0000
  C   C96       1.0  0.37767  0.18248  0.42055  1.0000
  C   C97       1.0  0.39069  0.03569  0.33486  1.0000
  C   C98       1.0  0.09387  0.17531  0.33113  1.0000
  C   C99       1.0  0.10701  0.16092  0.30469  1.0000
  C   C100      1.0  0.10856  0.17431  0.27382  1.0000
  C   C101      1.0  0.09705  0.20211  0.26925  1.0000
  C   C102      1.0  0.08413  0.21692  0.29576  1.0000
  C   C103      1.0  0.08227  0.20312  0.32666  1.0000
  P   P2        1.0  0.06636  0.25143  0.28924  1.0000
  C   C104      1.0  0.06599  0.27133  0.32780  1.0000
  C   C105      1.0  0.08602  0.27191  0.25821  1.0000
  C   C106      1.0  0.18107  0.10902  0.39424  1.0000
  H   H71       1.0  0.02375  0.28952  0.25792  1.0000
  C   C107      1.0  0.21322  0.00594  0.35749  1.0000
  H   H72       1.0  0.25785  0.28196  0.43021  1.0000
  C   C108      1.0  0.08176  0.26549  0.22472  1.0000
  C   C109      1.0  0.09161  0.27380  0.34642  1.0000
  C   C110      1.0  0.09218  0.29060  0.37518  1.0000
  C   C111      1.0  0.06699  0.30454  0.38601  1.0000
  H   H73       1.0  0.41081  0.02943  0.11726  1.0000
  C   C112      1.0  0.04056  0.28479  0.33931  1.0000
  C   C113      1.0  0.02995  0.24504  0.27401  1.0000
  C   C114      1.0  0.01421  0.26803  0.25988  1.0000
  P   P3        1.0  0.27307  0.32015  0.15521  1.0000
  H   H74       1.0  0.21739  0.16558  0.42912  1.0000
  H   H75       1.0  0.30081  0.24984  0.42510  1.0000
  C   C115      1.0  0.01750  0.21708  0.27486  1.0000
  H   H76       1.0  0.09211  0.16455  0.35483  1.0000
  H   H77       1.0  0.11547  0.13911  0.30784  1.0000
  H   H78       1.0  0.11784  0.16271  0.25307  1.0000
  H   H79       1.0  0.09758  0.21141  0.24473  1.0000
  H   H80       1.0  0.07122  0.21349  0.34710  1.0000
  H   H81       1.0  0.15941  0.07739  0.14225  1.0000
  H   H82       1.0  0.40361  0.01181  0.05992  1.0000
  H   H83       1.0  0.48426  0.29031  0.19489  1.0000
  C   C116      1.0  0.11559  0.30347  0.20906  1.0000
  H   H84       1.0  0.06678  0.24846  0.21750  1.0000
  H   H85       1.0  0.11137  0.26349  0.33801  1.0000
  H   H86       1.0  0.11231  0.29345  0.38870  1.0000
  H   H87       1.0  0.29308  0.02316  0.09415  1.0000
  C   C117      1.0  0.27705  0.00958  0.10634  1.0000
  H   H88       1.0  0.46441  0.22057  0.31851  1.0000
  Fe  Fe9       1.0  0.42173  0.31707  0.18601  1.0000
  C   C118      1.0  0.10525  0.29443  0.26680  1.0000
  H   H89       1.0  0.09080  0.23996  0.42000  1.0000
  C   C119      1.0  0.35938  0.20666  0.41986  1.0000
  H   H90       1.0  0.02933  0.19871  0.28471  1.0000
  H   H91       1.0  0.47446  0.28317  0.40036  1.0000
  C   C120      1.0  0.46251  0.19997  0.40776  1.0000
  C   C121      1.0  0.27982  0.24242  0.41652  1.0000
  H   H92       1.0  0.17967  0.08548  0.39556  1.0000
  C   C122      1.0  0.11979  0.31026  0.24234  1.0000
  H   H93       1.0  0.37906  0.16928  0.44269  1.0000
  H   H94       1.0  0.18422  0.29374  0.21746  1.0000
  H   H95       1.0  0.19198  0.22219  0.45714  1.0000
  H   H96       1.0  0.12723  0.22180  0.38011  1.0000
  H   H97       1.0  0.16721  0.25547  0.25847  1.0000
  H   H98       1.0  0.21504  0.01608  0.15178  1.0000
  C   C123      1.0  0.20261  0.15436  0.41262  1.0000
  C   C124      1.0  0.02603  0.03248  0.10172  1.0000
  C   C125      1.0  0.25388  0.02281  0.12292  1.0000
  H   H99       1.0  0.15355  0.16588  0.35110  1.0000
  C   C126      1.0  0.45172  0.24906  0.42529  1.0000
  C   C127      1.0  0.16842  0.26403  0.31073  1.0000
  C   C128      1.0  0.17161  0.24661  0.28271  1.0000
  C   C129      1.0  0.18107  0.21790  0.28595  1.0000
  C   C130      1.0  0.18687  0.20639  0.31722  1.0000
  C   C131      1.0  0.18186  0.22317  0.34562  1.0000
  C   C132      1.0  0.17349  0.25238  0.34208  1.0000
  P   P4        1.0  0.18933  0.20888  0.38624  1.0000
  C   C133      1.0  0.16257  0.22185  0.41534  1.0000
  H   H100      1.0  0.16223  0.28667  0.30817  1.0000
  C   C134      1.0  0.18959  0.26676  0.17437  1.0000
  C   C135      1.0  0.13370  0.22619  0.40533  1.0000
  C   C136      1.0  0.11300  0.23632  0.42789  1.0000
  C   C137      1.0  0.12097  0.24204  0.46056  1.0000
  C   C138      1.0  0.14943  0.23683  0.47094  1.0000
  C   C139      1.0  0.17011  0.22647  0.44853  1.0000
  H   H101      1.0  0.24621  0.27101  0.12057  1.0000
  H   H102      1.0  0.41392  0.03308  0.28883  1.0000
  H   H103      1.0  0.18420  0.20459  0.26418  1.0000
  H   H104      1.0  0.19538  0.18449  0.31907  1.0000
  H   H105      1.0  0.17112  0.26628  0.36351  1.0000
  C   C140      1.0  0.24973  0.20500  0.39177  1.0000
  H   H106      1.0  0.44100  0.30134  0.35884  1.0000
  C   C141      1.0  0.48587  0.26763  0.18803  1.0000
  H   H107      1.0  0.27777  0.99772  0.24034  1.0000
  H   H108      1.0  0.04591  0.02911  0.08785  1.0000
  H   H109      1.0  0.18449  0.98896  0.28619  1.0000
  H   H110      1.0  0.08773  0.99129  0.19689  1.0000
  H   H111      1.0  0.02092  0.02424  0.19234  1.0000
  H   H112      1.0  0.14059  0.03047  0.12141  1.0000
  H   H113      1.0  0.20156  0.24243  0.13102  1.0000
  H   H114      1.0  0.10508  0.25030  0.47797  1.0000
  C   C142      1.0  0.48420  0.21755  0.30444  1.0000
  H   H115      1.0  0.25209  0.04632  0.12339  1.0000
  C   C143      1.0  0.07327  0.09562  0.00312  1.0000
  H   H116      1.0  0.48668  0.02906  0.23877  1.0000
  C   C144      1.0  0.01720  0.00648  0.20938  1.0000
  C   C145      1.0  0.48189  0.21078  0.38415  1.0000
  C   C146      1.0  0.99337  0.26539  0.16523  1.0000
  H   H117      1.0  0.00021  0.18124  0.17036  1.0000
  C   C147      1.0  0.04113  0.30141  0.36826  1.0000
  H   H118      1.0  0.27328  0.99648  0.03941  1.0000
  H   H119      1.0  0.06768  0.31818  0.40784  1.0000
  H   H120      1.0  0.02171  0.31252  0.37648  1.0000
  C   C148      1.0  0.11136  0.98916  0.32546  1.0000
  C   C149      1.0  0.41196  0.32094  0.32400  1.0000
  C   C150      1.0  0.98874  0.01444  0.13916  1.0000
  C   C151      1.0  0.16661  0.32056  0.49596  1.0000
  H   H121      1.0  0.48706  0.27891  0.28784  1.0000
  H   H122      1.0  0.13499  0.98867  0.15899  1.0000
  H   H123      1.0  0.33081  0.98879  0.14648  1.0000
  H   H124      1.0  0.20152  0.29809  0.82164  1.0000
  Fe  Fe10      1.0  0.12444  0.27477  0.71025  1.0000
  S   S18       1.0  0.09042  0.30759  0.72509  1.0000
  S   S19       1.0  0.14459  0.24343  0.74768  1.0000
  Fe  Fe11      1.0  0.07085  0.29712  0.67563  1.0000
  S   S20       1.0  0.02226  0.29409  0.66890  1.0000
  S   S21       1.0  0.10309  0.26232  0.66250  1.0000
  Fe  Fe12      1.0  0.11773  0.01399  0.83985  1.0000
  S   S22       1.0  0.15047  0.03974  0.81100  1.0000
  C   C152      1.0  0.41440  0.04182  0.69110  1.0000
  Fe  Fe13      1.0  0.11480  0.06031  0.89607  1.0000
  S   S23       1.0  0.14777  0.08901  0.87049  1.0000
  S   S24       1.0  0.08846  0.07852  0.93991  1.0000
  Fe  Fe14      1.0  0.12422  0.07976  0.82318  1.0000
  S   S25       1.0  0.11016  0.11197  0.78277  1.0000
  Fe  Fe15      1.0  0.17166  0.04712  0.86041  1.0000
  S   S26       1.0  0.22094  0.04704  0.86292  1.0000
  S   S27       1.0  0.08969  0.05331  0.84882  1.0000
  S   S28       1.0  0.14046  0.01880  0.88910  1.0000
  Fe  Fe16      1.0  0.41732  0.16347  0.69009  1.0000
  S   S29       1.0  0.38749  0.19135  0.65968  1.0000
  S   S30       1.0  0.46623  0.16693  0.68878  1.0000
  Fe  Fe17      1.0  0.36797  0.12844  0.72190  1.0000
  S   S31       1.0  0.33480  0.15466  0.69419  1.0000
  S   S32       1.0  0.34696  0.09317  0.75401  1.0000
  Fe  Fe18      1.0  0.36311  0.14959  0.64923  1.0000
  S   S33       1.0  0.34647  0.12674  0.60243  1.0000
  Fe  Fe19      1.0  0.36197  0.19379  0.70734  1.0000
  S   S34       1.0  0.33914  0.23426  0.72683  1.0000
  S   S35       1.0  0.39514  0.12149  0.67664  1.0000
  S   S36       1.0  0.39321  0.16807  0.73809  1.0000
  C   C153      1.0  0.36440  0.06260  0.77184  1.0000
  C   C154      1.0  0.34755  0.03980  0.78501  1.0000
  C   C155      1.0  0.25129  0.99674  0.74775  1.0000
  C   C156      1.0  0.39114  0.01452  0.80329  1.0000
  C   C157      1.0  0.40791  0.03749  0.79035  1.0000
  C   C158      1.0  0.39459  0.06118  0.77436  1.0000
  H   H125      1.0  0.32409  0.04077  0.78337  1.0000
  H   H126      1.0  0.43130  0.03710  0.79285  1.0000
  H   H127      1.0  0.40744  0.07888  0.76463  1.0000
  C   C159      1.0  0.35554  0.26034  0.75324  1.0000
  C   C160      1.0  0.38325  0.25625  0.76654  1.0000
  C   C161      1.0  0.39517  0.27720  0.78808  1.0000
  C   C162      1.0  0.37975  0.30261  0.79626  1.0000
  C   C163      1.0  0.35217  0.30689  0.78260  1.0000
  C   C164      1.0  0.34016  0.28579  0.76125  1.0000
  H   H128      1.0  0.39539  0.23684  0.76049  1.0000
  H   H129      1.0  0.41659  0.27375  0.79837  1.0000
  C   C165      1.0  0.04373  0.21354  0.58993  1.0000
  H   H130      1.0  0.31897  0.28923  0.75058  1.0000
  C   C166      1.0  0.33406  0.16544  0.55082  1.0000
  C   C167      1.0  0.33803  0.13656  0.56085  1.0000
  C   C168      1.0  0.33408  0.11426  0.53739  1.0000
  H   H131      1.0  0.44962  0.15754  0.79543  1.0000
  H   H132      1.0  0.33682  0.18283  0.56852  1.0000
  H   H133      1.0  0.33700  0.09184  0.54478  1.0000
  H   H134      1.0  0.02147  0.28410  0.58801  1.0000
  C   C169      1.0  0.01508  0.07863  0.86589  1.0000
  H   H135      1.0  0.27989  0.02872  0.85194  1.0000
  C   C170      1.0  0.29424  0.27267  0.67697  1.0000
  C   C171      1.0  0.02489  0.23737  0.58947  1.0000
  C   C172      1.0  0.17805  0.21380  0.65529  1.0000
  C   C173      1.0  0.99700  0.08383  0.80983  1.0000
  C   C174      1.0  0.41301  0.99299  0.71339  1.0000
  C   C175      1.0  0.09312  0.18280  0.52328  1.0000
  C   C176      1.0  0.02165  0.23487  0.67967  1.0000
  C   C177      1.0  0.48111  0.20208  0.68400  1.0000
  C   C178      1.0  0.47693  0.18865  0.77142  1.0000
  C   C179      1.0  0.46327  0.22667  0.68308  1.0000
  C   C180      1.0  0.10974  0.05806  0.00057  1.0000
  H   H136      1.0  0.04376  0.23720  0.68834  1.0000
  H   H137      1.0  0.46171  0.27341  0.67822  1.0000
  H   H138      1.0  0.43999  0.22421  0.68531  1.0000
  C   C181      1.0  0.13371  0.20730  0.75770  1.0000
  C   C182      1.0  0.14705  0.19326  0.78454  1.0000
  C   C183      1.0  0.13988  0.16430  0.79294  1.0000
  C   C184      1.0  0.11954  0.14883  0.77417  1.0000
  C   C185      1.0  0.10620  0.16289  0.74726  1.0000
  C   C186      1.0  0.11290  0.19206  0.73934  1.0000
  H   H139      1.0  0.16293  0.20502  0.79901  1.0000
  H   H140      1.0  0.15010  0.15393  0.81387  1.0000
  H   H141      1.0  0.09045  0.15117  0.73251  1.0000
  H   H142      1.0  0.10236  0.20255  0.71867  1.0000
  C   C187      1.0  0.32623  0.12058  0.50447  1.0000
  H   H143      1.0  0.22731  0.27335  0.86747  1.0000
  C   C188      1.0  0.47939  0.02247  0.63517  1.0000
  H   H144      1.0  0.41854  0.25249  0.63352  1.0000
  C   C189      1.0  0.07267  0.03524  0.75823  1.0000
  C   C190      1.0  0.03743  0.07439  0.75389  1.0000
  C   C191      1.0  0.35562  0.19116  0.81124  1.0000
  H   H145      1.0  0.27512  0.23334  0.69583  1.0000
  C   C192      1.0  0.24383  0.26821  0.69374  1.0000
  H   H146      1.0  0.37267  0.06208  0.68360  1.0000
  C   C193      1.0  0.06594  0.26996  0.58414  1.0000
  C   C194      1.0  0.11110  0.17793  0.55072  1.0000
  H   H147      1.0  0.07483  0.24723  0.75115  1.0000
  H   H148      1.0  0.08736  0.22730  0.80602  1.0000
  H   H149      1.0  0.00166  0.23399  0.59190  1.0000
  H   H150      1.0  0.03105  0.27763  0.74406  1.0000
  C   C195      1.0  0.13857  0.16530  0.54594  1.0000
  C   C196      1.0  0.00695  0.19118  0.76142  1.0000
  C   C197      1.0  0.39303  0.27676  0.66856  1.0000
  C   C198      1.0  0.08033  0.15647  0.61016  1.0000
  C   C199      1.0  0.06243  0.16052  0.63792  1.0000
  C   C200      1.0  0.04686  0.13716  0.65128  1.0000
  C   C201      1.0  0.04964  0.10940  0.63765  1.0000
  C   C202      1.0  0.06797  0.10499  0.61058  1.0000
  C   C203      1.0  0.08322  0.12842  0.59678  1.0000
  H   H151      1.0  0.15047  0.22309  0.57839  1.0000
  H   H152      1.0  0.26720  0.99490  0.97895  1.0000
  P   P5        1.0  0.46857  0.01629  0.70245  1.0000
  H   H153      1.0  0.25083  0.22573  0.85816  1.0000
  H   H154      1.0  0.15264  0.16085  0.56676  1.0000
  C   C204      1.0  0.23878  0.01405  0.87151  1.0000
  H   H155      1.0  0.26447  0.00254  0.65670  1.0000
  C   C205      1.0  0.38401  0.04280  0.69186  1.0000
  H   H156      1.0  0.11614  0.17401  0.66080  1.0000
  H   H157      1.0  0.28665  0.29526  0.81798  1.0000
  H   H158      1.0  0.21462  0.99982  0.78131  1.0000
  H   H159      1.0  0.09697  0.12455  0.57556  1.0000
  C   C206      1.0  0.03108  0.14510  0.77063  1.0000
  H   H160      1.0  0.46634  0.06376  0.85082  1.0000
  C   C207      1.0  0.27133  0.25591  0.68949  1.0000
  H   H161      1.0  0.07170  0.19214  0.52637  1.0000
  C   C208      1.0  0.35826  0.01373  0.92093  1.0000
  H   H162      1.0  0.04193  0.08961  0.82428  1.0000
  H   H163      1.0  0.15642  0.09252  0.73608  1.0000
  P   P6        1.0  0.45454  0.00543  0.95172  1.0000
  H   H164      1.0  0.22604  0.25522  0.70327  1.0000
  H   H165      1.0  0.48449  0.01586  0.83324  1.0000
  C   C209      1.0  0.36084  0.01573  0.80040  1.0000
  H   H166      1.0  0.03217  0.14070  0.67184  1.0000
  C   C210      1.0  0.00635  0.25926  0.66871  1.0000
  C   C211      1.0  0.45507  0.06634  0.94726  1.0000
  C   C212      1.0  0.36886  0.29465  0.67321  1.0000
  C   C213      1.0  0.35127  0.30248  0.64632  1.0000
  C   C214      1.0  0.03644  0.26946  0.76841  1.0000
  S   S37       1.0  0.15358  0.29177  0.59039  1.0000
  C   C215      1.0  0.27717  0.31479  0.80760  1.0000
  H   H167      1.0  0.34469  0.02060  0.70573  1.0000
  C   C216      1.0  0.23924  0.29729  0.68533  1.0000
  C   C217      1.0  0.04665  0.04819  0.76831  1.0000
  H   H168      1.0  0.08007  0.01545  0.77010  1.0000
  C   C218      1.0  0.13000  0.19717  0.61671  1.0000
  C   C219      1.0  0.15188  0.31319  0.55375  1.0000
  H   H169      1.0  0.28628  0.29902  0.59928  1.0000
  C   C220      1.0  0.47019  0.07292  0.72753  1.0000
  H   H170      1.0  0.44921  0.06831  0.73814  1.0000
  H   H171      1.0  0.37906  0.19177  0.81371  1.0000
  C   C221      1.0  0.00520  0.13017  0.76355  1.0000
  C   C222      1.0  0.33912  0.21562  0.81929  1.0000
  H   H172      1.0  0.22302  0.22803  0.75642  1.0000
  C   C223      1.0  0.08939  0.04806  0.73336  1.0000
  C   C224      1.0  0.07990  0.07366  0.71819  1.0000
  C   C225      1.0  0.31183  0.16579  0.79463  1.0000
  H   H173      1.0  0.07466  0.29184  0.58231  1.0000
  C   C226      1.0  0.41682  0.00797  0.93950  1.0000
  C   C227      1.0  0.39970  0.11225  0.83992  1.0000
  C   C228      1.0  0.39110  0.12777  0.86789  1.0000
  C   C229      1.0  0.41196  0.14154  0.88753  1.0000
  C   C230      1.0  0.44144  0.13976  0.87924  1.0000
  C   C231      1.0  0.45029  0.12380  0.85145  1.0000
  C   C232      1.0  0.42916  0.11037  0.83161  1.0000
  H   H174      1.0  0.10783  0.25027  0.58281  1.0000
  H   H175      1.0  0.10986  0.03832  0.72621  1.0000
  H   H176      1.0  0.34985  0.23528  0.82776  1.0000
  C   C233      1.0  0.38244  0.27413  0.61014  1.0000
  S   S38       1.0  0.15283  0.30887  0.68619  1.0000
  H   H177      1.0  0.47556  0.04553  0.63876  1.0000
  C   C234      1.0  0.29003  0.30211  0.66948  1.0000
  H   H178      1.0  0.03403  0.03786  0.78762  1.0000
  C   C235      1.0  0.09112  0.07721  0.98404  1.0000
  H   H179      1.0  0.03308  0.07882  0.88326  1.0000
  H   H180      1.0  0.40610  0.27034  0.68958  1.0000
  H   H181      1.0  0.43664  0.06444  0.93087  1.0000
  C   C236      1.0  0.39991  0.26659  0.63702  1.0000
  H   H182      1.0  0.17935  0.28399  0.52620  1.0000
  C   C237      1.0  0.22469  0.23778  0.78064  1.0000
  H   H183      1.0  0.38342  0.10193  0.82447  1.0000
  H   H184      1.0  0.36823  0.12934  0.87410  1.0000
  H   H185      1.0  0.40522  0.15392  0.90898  1.0000
  H   H186      1.0  0.45717  0.15109  0.89439  1.0000
  H   H187      1.0  0.43548  0.09879  0.80948  1.0000
  H   H188      1.0  0.05220  0.18675  0.77412  1.0000
  C   C238      1.0  0.36816  0.01925  0.70413  1.0000
  H   H189      1.0  0.03442  0.19197  0.59170  1.0000
  C   C239      1.0  0.17568  0.22347  0.62275  1.0000
  C   C240      1.0  0.34193  0.16623  0.79902  1.0000
  C   C241      1.0  0.03601  0.26559  0.58705  1.0000
  C   C242      1.0  0.16703  0.30398  0.52536  1.0000
  C   C243      1.0  0.03200  0.17548  0.76922  1.0000
  C   C244      1.0  0.21113  0.26454  0.78619  1.0000
  H   H190      1.0  0.19627  0.22054  0.67035  1.0000
  C   C245      1.0  0.29650  0.03485  0.64474  1.0000
  C   C246      1.0  0.30991  0.06086  0.65416  1.0000
  C   C247      1.0  0.30159  0.07457  0.68341  1.0000
  C   C248      1.0  0.27940  0.06278  0.70291  1.0000
  C   C249      1.0  0.26509  0.03718  0.69305  1.0000
  C   C250      1.0  0.27439  0.02286  0.66425  1.0000
  P   P7        1.0  0.23627  0.02184  0.71809  1.0000
  C   C251      1.0  0.21768  0.05079  0.73973  1.0000
  C   C252      1.0  0.21033  0.00267  0.69235  1.0000
  C   C253      1.0  0.20336  0.01339  0.66086  1.0000
  C   C254      1.0  0.14814  0.15828  0.51413  1.0000
  H   H191      1.0  0.38760  0.26578  0.58582  1.0000
  H   H192      1.0  0.35467  0.14734  0.79232  1.0000
  H   H193      1.0  0.34824  0.00205  0.97113  1.0000
  C   C255      1.0  0.22916  0.06176  0.76937  1.0000
  C   C256      1.0  0.21463  0.08372  0.78656  1.0000
  C   C257      1.0  0.18851  0.09480  0.77450  1.0000
  C   C258      1.0  0.17701  0.08421  0.74495  1.0000
  C   C259      1.0  0.19155  0.06236  0.72751  1.0000
  C   C260      1.0  0.48406  0.06276  0.83327  1.0000
  H   H194      1.0  0.30184  0.14652  0.78411  1.0000
  C   C261      1.0  0.26224  0.31417  0.67330  1.0000
  C   C262      1.0  0.38264  0.99426  0.71468  1.0000
  H   H195      1.0  0.18858  0.14418  0.71914  1.0000
  H   H196      1.0  0.45917  0.19829  0.75768  1.0000
  H   H197      1.0  0.30321  0.02413  0.62216  1.0000
  H   H198      1.0  0.32682  0.07044  0.63887  1.0000
  H   H199      1.0  0.31244  0.09438  0.69107  1.0000
  H   H200      1.0  0.27364  0.07382  0.72556  1.0000
  C   C263      1.0  0.36536  0.00603  0.95331  1.0000
  H   H201      1.0  0.21327  0.03324  0.65178  1.0000
  C   C264      1.0  0.48233  0.10058  0.73174  1.0000
  P   P8        1.0  0.00380  0.09105  0.76676  1.0000
  C   C265      1.0  0.48463  0.99283  0.73315  1.0000
  H   H202      1.0  0.39946  0.99718  0.98780  1.0000
  H   H203      1.0  0.24910  0.05309  0.77961  1.0000
  H   H204      1.0  0.22317  0.09146  0.80985  1.0000
  H   H205      1.0  0.17679  0.11106  0.78852  1.0000
  C   C266      1.0  0.48491  0.05160  0.70931  1.0000
  H   H206      1.0  0.18202  0.05434  0.70491  1.0000
  H   H207      1.0  0.26440  0.31969  0.54899  1.0000
  C   C267      1.0  0.32571  0.17174  0.51798  1.0000
  H   H208      1.0  0.21783  0.30677  0.68806  1.0000
  H   H209      1.0  0.29685  0.23448  0.82149  1.0000
  C   C268      1.0  0.47798  0.00312  0.66193  1.0000
  C   C269      1.0  0.25619  0.16986  0.70121  1.0000
  C   C270      1.0  0.22891  0.15718  0.69628  1.0000
  C   C271      1.0  0.20991  0.15365  0.72292  1.0000
  C   C272      1.0  0.21832  0.16246  0.75454  1.0000
  C   C273      1.0  0.24590  0.17472  0.75983  1.0000
  C   C274      1.0  0.26460  0.17888  0.73280  1.0000
  P   P9        1.0  0.25565  0.18824  0.80021  1.0000
  C   C275      1.0  0.29489  0.18988  0.80384  1.0000
  C   C276      1.0  0.23938  0.22362  0.80640  1.0000
  C   C277      1.0  0.08482  0.24618  0.58470  1.0000
  C   C278      1.0  0.35813  0.29195  0.61472  1.0000
  H   H210      1.0  0.06008  0.18194  0.64880  1.0000
  C   C279      1.0  0.13258  0.18759  0.64955  1.0000
  H   H211      1.0  0.16946  0.14876  0.51056  1.0000
  C   C280      1.0  0.24091  0.16370  0.83106  1.0000
  C   C281      1.0  0.25701  0.13990  0.84285  1.0000
  C   C282      1.0  0.24501  0.12093  0.86617  1.0000
  C   C283      1.0  0.21683  0.12537  0.87785  1.0000
  C   C284      1.0  0.20061  0.14890  0.86634  1.0000
  C   C285      1.0  0.21255  0.16798  0.84309  1.0000
  H   H212      1.0  0.27090  0.17273  0.68052  1.0000
  H   H213      1.0  0.22245  0.15022  0.67179  1.0000
  H   H214      1.0  0.01975  0.18881  0.68917  1.0000
  C   C286      1.0  0.30890  0.21505  0.81561  1.0000
  H   H215      1.0  0.28564  0.18920  0.73595  1.0000
  H   H216      1.0  0.09305  0.08385  0.69927  1.0000
  H   H217      1.0  0.07002  0.08345  0.59996  1.0000
  C   C287      1.0  0.24007  0.23656  0.83781  1.0000
  H   H218      1.0  0.37480  0.02403  0.87258  1.0000
  H   H219      1.0  0.27866  0.13546  0.83412  1.0000
  H   H220      1.0  0.25724  0.10222  0.87467  1.0000
  H   H221      1.0  0.20747  0.11022  0.89546  1.0000
  H   H222      1.0  0.17861  0.15212  0.87523  1.0000
  H   H223      1.0  0.19947  0.18590  0.83436  1.0000
  C   C288      1.0  0.21217  0.27740  0.81741  1.0000
  H   H224      1.0  0.03736  0.09137  0.64792  1.0000
  C   C289      1.0  0.26659  0.31465  0.77528  1.0000
  C   C290      1.0  0.06109  0.25201  0.77223  1.0000
  H   H225      1.0  0.33566  0.01556  0.91358  1.0000
  H   H226      1.0  0.15837  0.18864  0.69398  1.0000
  H   H227      1.0  0.31513  0.26250  0.67311  1.0000
  C   C291      1.0  0.38031  0.01849  0.89781  1.0000
  H   H228      1.0  0.20313  0.15993  0.77473  1.0000
  C   C292      1.0  0.06810  0.24066  0.80317  1.0000
  C   C293      1.0  0.07401  0.21782  0.58874  1.0000
  H   H229      1.0  0.12350  0.04364  0.98644  1.0000
  C   C294      1.0  0.05396  0.08674  0.72834  1.0000
  C   C295      1.0  0.15189  0.21510  0.60348  1.0000
  H   H230      1.0  0.42624  0.06033  0.68137  1.0000
  C   C296      1.0  0.40947  0.01550  0.90695  1.0000
  H   H231      1.0  0.19925  0.27503  0.76640  1.0000
  H   H232      1.0  0.26741  0.29481  0.76081  1.0000
  P   P10       1.0  0.09878  0.18731  0.59175  1.0000
  H   H233      1.0  0.04711  0.10675  0.71677  1.0000
  C   C297      1.0  0.02525  0.26341  0.82645  1.0000
  C   C298      1.0  0.46822  0.04153  0.96092  1.0000
  C   C299      1.0  0.01885  0.27605  0.79575  1.0000
  C   C300      1.0  0.15660  0.19577  0.66860  1.0000
  H   H234      1.0  0.01109  0.26671  0.84746  1.0000
  C   C301      1.0  0.02007  0.08450  0.83247  1.0000
  H   H235      1.0  0.19193  0.23805  0.61257  1.0000
  H   H236      1.0  0.05873  0.11051  0.99076  1.0000
  C   C302      1.0  0.26827  0.01081  0.86324  1.0000
  H   H237      1.0  0.05503  0.23651  0.85397  1.0000
  C   C303      1.0  0.46564  0.09412  0.95485  1.0000
  H   H238      1.0  0.05055  0.13330  0.77734  1.0000
  C   C304      1.0  0.42922  0.01729  0.70306  1.0000
  H   H239      1.0  0.34760  0.99837  0.81045  1.0000
  C   C305      1.0  0.47169  0.16530  0.79274  1.0000
  H   H240      1.0  0.36365  0.30189  0.69794  1.0000
  H   H241      1.0  0.34479  0.29721  0.59362  1.0000
  C   C306      1.0  0.00810  0.20745  0.67989  1.0000
  C   C307      1.0  0.22669  0.26345  0.84320  1.0000
  C   C308      1.0  0.47559  0.25450  0.67928  1.0000
  H   H242      1.0  0.00770  0.21467  0.75966  1.0000
  C   C309      1.0  0.04998  0.24602  0.83018  1.0000
  H   H243      1.0  0.44803  0.99354  0.76679  1.0000
  C   C310      1.0  0.39450  0.00320  0.96262  1.0000
  H   H244      1.0  0.42620  0.01903  0.88852  1.0000
  H   H245      1.0  0.32214  0.19407  0.51071  1.0000
  Fe  Fe20      1.0  0.12879  0.29896  0.63901  1.0000
  H   H246      1.0  0.47032  0.11741  0.74451  1.0000
  H   H247      1.0  0.17828  0.00687  0.61651  1.0000
  C   C311      1.0  0.48558  0.01214  0.60346  1.0000
  C   C312      1.0  0.18341  0.99860  0.64087  1.0000
  H   H248      1.0  0.20145  0.99345  0.89338  1.0000
  H   H249      1.0  0.45532  0.11316  0.94447  1.0000
  C   C313      1.0  0.23533  0.98954  0.77616  1.0000
  C   C314      1.0  0.22395  0.99091  0.88625  1.0000
  H   H250      1.0  0.42645  0.31279  0.74473  1.0000
  H   H251      1.0  0.47518  0.31525  0.71866  1.0000
  H   H252      1.0  0.48675  0.02721  0.58292  1.0000
  C   C315      1.0  0.47580  0.98992  0.91856  1.0000
  H   H253      1.0  0.29108  0.98859  0.72058  1.0000
  Fe  Fe21      1.0  0.16501  0.37037  0.40478  1.0000
  S   S39       1.0  0.13805  0.40342  0.37749  1.0000
  H   H254      1.0  0.47727  0.59305  0.12529  1.0000
  Fe  Fe22      1.0  0.20065  0.35782  0.34143  1.0000
  S   S40       1.0  0.17510  0.38918  0.31042  1.0000
  C   C316      1.0  0.00037  0.48155  0.26742  1.0000
  Fe  Fe23      1.0  0.18002  0.41829  0.35478  1.0000
  S   S41       1.0  0.18976  0.46632  0.34974  1.0000
  Fe  Fe24      1.0  0.13529  0.37136  0.33591  1.0000
  S   S42       1.0  0.09143  0.35550  0.31593  1.0000
  S   S43       1.0  0.20744  0.38791  0.38473  1.0000
  Fe  Fe25      1.0  0.40522  0.37198  0.14829  1.0000
  S   S44       1.0  0.38149  0.39229  0.10412  1.0000
  Fe  Fe26      1.0  0.45235  0.37267  0.20334  1.0000
  C   C317      1.0  0.99473  0.50125  0.05663  1.0000
  C   C318      1.0  0.02716  0.40207  0.07265  1.0000
  Fe  Fe27      1.0  0.38745  0.36496  0.22170  1.0000
  S   S45       1.0  0.35474  0.38356  0.25882  1.0000
  S   S46       1.0  0.44786  0.34833  0.15512  1.0000
  S   S47       1.0  0.41214  0.39939  0.19373  1.0000
  C   C319      1.0  0.39150  0.39392  0.06171  1.0000
  C   C320      1.0  0.37179  0.40572  0.03881  1.0000
  H   H255      1.0  0.26912  0.57603  0.47167  1.0000
  C   C321      1.0  0.41863  0.38457  0.05045  1.0000
  H   H256      1.0  0.35068  0.41297  0.04718  1.0000
  H   H257      1.0  0.43369  0.37491  0.06769  1.0000
  C   C322      1.0  0.22600  0.47822  0.35429  1.0000
  C   C323      1.0  0.23270  0.50769  0.34937  1.0000
  C   C324      1.0  0.27711  0.46862  0.36460  1.0000
  C   C325      1.0  0.24826  0.45879  0.36232  1.0000
  H   H258      1.0  0.29429  0.45336  0.37017  1.0000
  H   H259      1.0  0.24343  0.43605  0.36604  1.0000
  C   C326      1.0  0.02362  0.38344  0.23798  1.0000
  C   C327      1.0  0.04921  0.39993  0.24240  1.0000
  C   C328      1.0  0.07039  0.39168  0.26583  1.0000
  C   C329      1.0  0.06619  0.36683  0.28520  1.0000
  H   H260      1.0  0.04852  0.39313  0.07741  1.0000
  C   C330      1.0  0.01964  0.35841  0.25708  1.0000
  H   H261      1.0  0.05254  0.41941  0.22793  1.0000
  H   H262      1.0  0.08978  0.40466  0.26907  1.0000
  C   C331      1.0  0.04075  0.35028  0.28054  1.0000
  C   C332      1.0  0.25849  0.32750  0.08846  1.0000
  C   C333      1.0  0.26857  0.34623  0.29993  1.0000
  C   C334      1.0  0.27591  0.37555  0.30446  1.0000
  C   C335      1.0  0.30229  0.38661  0.29170  1.0000
  C   C336      1.0  0.32150  0.36865  0.27391  1.0000
  C   C337      1.0  0.21409  0.56027  0.49606  1.0000
  H   H263      1.0  0.26148  0.38959  0.31823  1.0000
  H   H264      1.0  0.30787  0.40920  0.29574  1.0000
  S   S48       1.0  0.15066  0.36964  0.45913  1.0000
  C   C338      1.0  0.99555  0.45241  0.27557  1.0000
  Fe  Fe28      1.0  0.07993  0.59021  0.14941  1.0000
  S   S49       1.0  0.11066  0.62432  0.16886  1.0000
  S   S50       1.0  0.09283  0.56083  0.10578  1.0000
  Fe  Fe29      1.0  0.04171  0.59327  0.21353  1.0000
  S   S51       1.0  0.07075  0.62690  0.23664  1.0000
  C   C339      1.0  0.30128  0.50294  0.44136  1.0000
  H   H265      1.0  0.48142  0.43826  0.14321  1.0000
  Fe  Fe30      1.0  0.10885  0.60115  0.21771  1.0000
  S   S52       1.0  0.14620  0.58034  0.24656  1.0000
  S   S53       1.0  0.03877  0.61442  0.16335  1.0000
  S   S54       1.0  0.07986  0.56608  0.19778  1.0000
  Fe  Fe31      1.0  0.33818  0.61267  0.39907  1.0000
  S   S55       1.0  0.36769  0.58022  0.37399  1.0000
  S   S56       1.0  0.35398  0.63388  0.44725  1.0000
  Fe  Fe32      1.0  0.29594  0.61304  0.33940  1.0000
  S   S57       1.0  0.32251  0.58129  0.31037  1.0000
  S   S58       1.0  0.25598  0.63586  0.31895  1.0000
  Fe  Fe33      1.0  0.32607  0.55803  0.35886  1.0000
  S   S59       1.0  0.32037  0.50949  0.36078  1.0000
  Fe  Fe34      1.0  0.36177  0.60626  0.32759  1.0000
  S   S60       1.0  0.39581  0.62349  0.29148  1.0000
  S   S61       1.0  0.29700  0.58825  0.38722  1.0000
  S   S62       1.0  0.33483  0.64032  0.35327  1.0000
  S   S63       1.0  0.37871  0.33879  0.17600  1.0000
  H   H266      1.0  0.13383  0.32820  0.24935  1.0000
  H   H267      1.0  0.00277  0.44447  0.14865  1.0000
  H   H268      1.0  0.46154  0.61459  0.18119  1.0000
  C   C340      1.0  0.43040  0.60895  0.28123  1.0000
  C   C341      1.0  0.43849  0.58055  0.28948  1.0000
  C   C342      1.0  0.46511  0.56914  0.27801  1.0000
  C   C343      1.0  0.42637  0.38807  0.01693  1.0000
  C   C344      1.0  0.47676  0.61510  0.25218  1.0000
  C   C345      1.0  0.44985  0.62624  0.26295  1.0000
  H   H269      1.0  0.42394  0.56715  0.30397  1.0000
  H   H270      1.0  0.47075  0.54683  0.28356  1.0000
  H   H271      1.0  0.05300  0.53833  0.02617  1.0000
  C   C346      1.0  0.45496  0.53396  0.08133  1.0000
  C   C347      1.0  0.17749  0.59622  0.26460  1.0000
  C   C348      1.0  0.18156  0.62632  0.26592  1.0000
  H   H272      1.0  0.47132  0.51611  0.16042  1.0000
  C   C349      1.0  0.22686  0.61978  0.29674  1.0000
  C   C350      1.0  0.22308  0.58963  0.29491  1.0000
  C   C351      1.0  0.19845  0.57794  0.27899  1.0000
  H   H273      1.0  0.23872  0.57530  0.30640  1.0000
  H   H274      1.0  0.19540  0.55458  0.27829  1.0000
  C   C352      1.0  0.09660  0.56789  0.06261  1.0000
  C   C353      1.0  0.08196  0.59066  0.04691  1.0000
  H   H275      1.0  0.03709  0.44321  0.09514  1.0000
  C   C354      1.0  0.11296  0.54849  0.04309  1.0000
  H   H276      1.0  0.06910  0.60565  0.06140  1.0000
  H   H277      1.0  0.12429  0.53072  0.05486  1.0000
  C   C355      1.0  0.26155  0.51757  0.35183  1.0000
  C   C356      1.0  0.28387  0.49797  0.35912  1.0000
  H   H278      1.0  0.21560  0.52282  0.34310  1.0000
  H   H279      1.0  0.26655  0.54023  0.34747  1.0000
  C   C357      1.0  0.48403  0.41073  0.10037  1.0000
  H   H280      1.0  0.16868  0.42473  0.48755  1.0000
  H   H281      1.0  0.17194  0.58401  0.34473  1.0000
  H   H282      1.0  0.42327  0.34165  0.32377  1.0000
  C   C358      1.0  0.45342  0.55787  0.10261  1.0000
  H   H283      1.0  0.22562  0.41221  0.18756  1.0000
  C   C359      1.0  0.01434  0.43827  0.29732  1.0000
  C   C360      1.0  0.31957  0.52640  0.44845  1.0000
  H   H284      1.0  0.32367  0.34593  0.12290  1.0000
  H   H285      1.0  0.02351  0.54856  0.17098  1.0000
  H   H286      1.0  0.03729  0.33110  0.29536  1.0000
  H   H287      1.0  0.20657  0.64554  0.42037  1.0000
  C   C361      1.0  0.18756  0.45304  0.45097  1.0000
  C   C362      1.0  0.20014  0.48021  0.44477  1.0000
  C   C363      1.0  0.20371  0.50051  0.47041  1.0000
  P   P11       1.0  0.48278  0.49534  0.03922  1.0000
  C   C364      1.0  0.01976  0.52579  0.16561  1.0000
  H   H288      1.0  0.31037  0.48300  0.43153  1.0000
  C   C365      1.0  0.20453  0.55105  0.42507  1.0000
  C   C366      1.0  0.17683  0.54246  0.41407  1.0000
  C   C367      1.0  0.16514  0.55435  0.38520  1.0000
  C   C368      1.0  0.18073  0.57528  0.36748  1.0000
  C   C369      1.0  0.20784  0.58464  0.37889  1.0000
  C   C370      1.0  0.21966  0.57260  0.40756  1.0000
  H   H289      1.0  0.01126  0.41535  0.30257  1.0000
  C   C371      1.0  0.03132  0.52930  0.02742  1.0000
  H   H290      1.0  0.18483  0.43751  0.43103  1.0000
  H   H291      1.0  0.20700  0.48542  0.41987  1.0000
  H   H292      1.0  0.29580  0.35467  0.02251  1.0000
  C   C372      1.0  0.48043  0.46323  0.09801  1.0000
  H   H293      1.0  0.25768  0.48728  0.43866  1.0000
  H   H294      1.0  0.16425  0.52649  0.42754  1.0000
  H   H295      1.0  0.14413  0.54708  0.37633  1.0000
  H   H296      1.0  0.32211  0.57085  0.46476  1.0000
  C   C373      1.0  0.28784  0.32832  0.28223  1.0000
  C   C374      1.0  0.29623  0.39533  0.20239  1.0000
  H   H297      1.0  0.02517  0.59430  0.32615  1.0000
  C   C375      1.0  0.19890  0.53572  0.11750  1.0000
  C   C376      1.0  0.17495  0.54486  0.13599  1.0000
  C   C377      1.0  0.17596  0.54379  0.17042  1.0000
  C   C378      1.0  0.20068  0.53314  0.18644  1.0000
  C   C379      1.0  0.22447  0.52293  0.16800  1.0000
  C   C380      1.0  0.22375  0.52519  0.13341  1.0000
  P   P12       1.0  0.25707  0.51105  0.18885  1.0000
  C   C381      1.0  0.24881  0.49015  0.22528  1.0000
  C   C382      1.0  0.27896  0.48623  0.16472  1.0000
  C   C383      1.0  0.30899  0.48400  0.17064  1.0000
  C   C384      1.0  0.32557  0.46309  0.15405  1.0000
  C   C385      1.0  0.31233  0.44398  0.13185  1.0000
  C   C386      1.0  0.28240  0.44562  0.12635  1.0000
  C   C387      1.0  0.26571  0.46646  0.14293  1.0000
  C   C388      1.0  0.26992  0.48710  0.25006  1.0000
  C   C389      1.0  0.26529  0.46792  0.27630  1.0000
  C   C390      1.0  0.23956  0.45181  0.27811  1.0000
  C   C391      1.0  0.21835  0.45494  0.25379  1.0000
  C   C392      1.0  0.22301  0.47382  0.22723  1.0000
  C   C393      1.0  0.27651  0.54381  0.19947  1.0000
  C   C394      1.0  0.26967  0.55879  0.22865  1.0000
  C   C395      1.0  0.28374  0.58492  0.23626  1.0000
  C   C396      1.0  0.30474  0.59626  0.21490  1.0000
  C   C397      1.0  0.31117  0.58182  0.18540  1.0000
  C   C398      1.0  0.29695  0.55578  0.17756  1.0000
  H   H298      1.0  0.19821  0.53720  0.09079  1.0000
  P   P13       1.0  0.22022  0.53555  0.46201  1.0000
  H   H299      1.0  0.15764  0.55169  0.18466  1.0000
  H   H300      1.0  0.20120  0.53322  0.21320  1.0000
  H   H301      1.0  0.24238  0.51910  0.11864  1.0000
  H   H302      1.0  0.31953  0.49790  0.18865  1.0000
  H   H303      1.0  0.34867  0.46122  0.15870  1.0000
  H   H304      1.0  0.32524  0.42751  0.11940  1.0000
  H   H305      1.0  0.27209  0.43029  0.10970  1.0000
  H   H306      1.0  0.24239  0.46661  0.13929  1.0000
  H   H307      1.0  0.29025  0.49900  0.24882  1.0000
  H   H308      1.0  0.28171  0.46543  0.29524  1.0000
  H   H309      1.0  0.23595  0.43693  0.29847  1.0000
  H   H310      1.0  0.19845  0.44246  0.25556  1.0000
  H   H311      1.0  0.20677  0.47516  0.20801  1.0000
  H   H312      1.0  0.25324  0.55047  0.24540  1.0000
  H   H313      1.0  0.27823  0.59648  0.25875  1.0000
  H   H314      1.0  0.31571  0.61641  0.22114  1.0000
  H   H315      1.0  0.32692  0.59099  0.16843  1.0000
  H   H316      1.0  0.30163  0.54519  0.15428  1.0000
  H   H317      1.0  0.33364  0.36044  0.06564  1.0000
  C   C399      1.0  0.48300  0.43523  0.04742  1.0000
  H   H318      1.0  0.31693  0.35504  0.19022  1.0000
  C   C400      1.0  0.31399  0.33948  0.26904  1.0000
  C   C401      1.0  0.17844  0.44584  0.48282  1.0000
  C   C402      1.0  0.19227  0.58154  0.49443  1.0000
  Fe  Fe35      1.0  0.06964  0.64700  0.18595  1.0000
  C   C403      1.0  0.27121  0.50560  0.44524  1.0000
  H   H319      1.0  0.31574  0.40480  0.21272  1.0000
  H   H320      1.0  0.34277  0.52452  0.44431  1.0000
  C   C404      1.0  0.48185  0.43751  0.11643  1.0000
  C   C405      1.0  0.26419  0.33627  0.05598  1.0000
  C   C406      1.0  0.02642  0.50469  0.18918  1.0000
  C   C407      1.0  0.29680  0.36715  0.18946  1.0000
  C   C408      1.0  0.27052  0.41130  0.20225  1.0000
  C   C409      1.0  0.27776  0.55533  0.46363  1.0000
  H   H321      1.0  0.05887  0.46423  0.42907  1.0000
  C   C410      1.0  0.45269  0.49958  0.01087  1.0000
  H   H322      1.0  0.37983  0.33459  0.28880  1.0000
  C   C411      1.0  0.08286  0.59332  0.01214  1.0000
  S   S64       1.0  0.99654  0.39581  0.20990  1.0000
  H   H323      1.0  0.43555  0.52125  0.07661  1.0000
  H   H324      1.0  0.16561  0.64064  0.25499  1.0000
  C   C412      1.0  0.35891  0.46736  0.25043  1.0000
  C   C413      1.0  0.35317  0.48453  0.27813  1.0000
  C   C414      1.0  0.36663  0.51162  0.28150  1.0000
  C   C415      1.0  0.38572  0.52167  0.25712  1.0000
  C   C416      1.0  0.39108  0.50489  0.22877  1.0000
  C   C417      1.0  0.37800  0.47733  0.22599  1.0000
  P   P14       1.0  0.41685  0.51725  0.19799  1.0000
  C   C418      1.0  0.41670  0.55667  0.19562  1.0000
  C   C419      1.0  0.45264  0.50317  0.20729  1.0000
  C   C420      1.0  0.11441  0.55157  0.00837  1.0000
  H   H325      1.0  0.24752  0.33420  0.03724  1.0000
  H   H326      1.0  0.15572  0.55323  0.12369  1.0000
  H   H327      1.0  0.43427  0.45639  0.01775  1.0000
  C   C421      1.0  0.45790  0.48830  0.23698  1.0000
  C   C422      1.0  0.44227  0.57233  0.18872  1.0000
  C   C423      1.0  0.44160  0.60264  0.18581  1.0000
  C   C424      1.0  0.41571  0.61773  0.19096  1.0000
  C   C425      1.0  0.39030  0.60247  0.19852  1.0000
  C   C426      1.0  0.39064  0.57208  0.20037  1.0000
  C   C427      1.0  0.40588  0.50275  0.15835  1.0000
  C   C428      1.0  0.38620  0.51786  0.13817  1.0000
  C   C429      1.0  0.37757  0.50616  0.10778  1.0000
  C   C430      1.0  0.38849  0.47933  0.09733  1.0000
  C   C431      1.0  0.40797  0.46419  0.11730  1.0000
  C   C432      1.0  0.41644  0.47563  0.14777  1.0000
  H   H328      1.0  0.34913  0.44594  0.24837  1.0000
  H   H329      1.0  0.33882  0.47659  0.29743  1.0000
  H   H330      1.0  0.36259  0.52458  0.30342  1.0000
  H   H331      1.0  0.39641  0.54244  0.26061  1.0000
  H   H332      1.0  0.38294  0.46317  0.20542  1.0000
  C   C433      1.0  0.02051  0.43033  0.08296  1.0000
  H   H333      1.0  0.02481  0.45904  0.20142  1.0000
  S   S65       1.0  0.00707  0.57148  0.24588  1.0000
  H   H334      1.0  0.22865  0.32218  0.20766  1.0000
  H   H335      1.0  0.44111  0.48608  0.25553  1.0000
  H   H336      1.0  0.46300  0.56159  0.18635  1.0000
  H   H337      1.0  0.27027  0.43280  0.21296  1.0000
  H   H338      1.0  0.41562  0.64130  0.19022  1.0000
  H   H339      1.0  0.37055  0.61430  0.20384  1.0000
  H   H340      1.0  0.37067  0.56068  0.20617  1.0000
  H   H341      1.0  0.37729  0.53851  0.14587  1.0000
  H   H342      1.0  0.36221  0.51774  0.09238  1.0000
  H   H343      1.0  0.38164  0.46998  0.07399  1.0000
  H   H344      1.0  0.41621  0.44323  0.10934  1.0000
  H   H345      1.0  0.43092  0.46300  0.16320  1.0000
  C   C434      1.0  0.24617  0.37182  0.17399  1.0000
  C   C435      1.0  0.12428  0.49639  0.23074  1.0000
  C   C436      1.0  0.13836  0.46961  0.23343  1.0000
  C   C437      1.0  0.13434  0.45249  0.26160  1.0000
  C   C438      1.0  0.11636  0.46219  0.28716  1.0000
  C   C439      1.0  0.10246  0.48926  0.28481  1.0000
  C   C440      1.0  0.10611  0.50601  0.25613  1.0000
  P   P15       1.0  0.07627  0.50005  0.31556  1.0000
  C   C441      1.0  0.07415  0.53924  0.31770  1.0000
  C   C442      1.0  0.04318  0.48241  0.30248  1.0000
  C   C443      1.0  0.02424  0.49640  0.28054  1.0000
  H   H346      1.0  0.48506  0.39082  0.11466  1.0000
  C   C444      1.0  0.02043  0.47539  0.18280  1.0000
  C   C445      1.0  0.43243  0.47718  0.00545  1.0000
  C   C446      1.0  0.03826  0.45307  0.31045  1.0000
  C   C447      1.0  0.09945  0.55607  0.31384  1.0000
  C   C448      1.0  0.09789  0.58644  0.31407  1.0000
  C   C449      1.0  0.07115  0.60020  0.31852  1.0000
  C   C450      1.0  0.04602  0.58364  0.32350  1.0000
  C   C451      1.0  0.04755  0.55324  0.32362  1.0000
  C   C452      1.0  0.08720  0.48834  0.35613  1.0000
  C   C453      1.0  0.11671  0.48792  0.36467  1.0000
  C   C454      1.0  0.12529  0.47852  0.39598  1.0000
  C   C455      1.0  0.10451  0.46977  0.41910  1.0000
  C   C456      1.0  0.07499  0.47096  0.41110  1.0000
  C   C457      1.0  0.06630  0.48044  0.37980  1.0000
  H   H347      1.0  0.12704  0.50963  0.20882  1.0000
  H   H348      1.0  0.15203  0.46198  0.21350  1.0000
  H   H349      1.0  0.14474  0.43147  0.26352  1.0000
  H   H350      1.0  0.11300  0.44831  0.30846  1.0000
  H   H351      1.0  0.09477  0.52645  0.25317  1.0000
  H   H352      1.0  0.02849  0.51843  0.27248  1.0000
  C   C458      1.0  0.48075  0.46227  0.06329  1.0000
  H   H353      1.0  0.05354  0.44118  0.32565  1.0000
  H   H354      1.0  0.12031  0.54582  0.30953  1.0000
  H   H355      1.0  0.11729  0.59922  0.30947  1.0000
  H   H356      1.0  0.06984  0.62367  0.31728  1.0000
  H   H357      1.0  0.21997  0.60084  0.36519  1.0000
  H   H358      1.0  0.02783  0.54082  0.32738  1.0000
  H   H359      1.0  0.13318  0.49442  0.34699  1.0000
  H   H360      1.0  0.14817  0.47738  0.40193  1.0000
  H   H361      1.0  0.11135  0.46182  0.44306  1.0000
  C   C459      1.0  0.20617  0.63798  0.28188  1.0000
  H   H362      1.0  0.04336  0.48136  0.37401  1.0000
  H   H363      1.0  0.03589  0.51122  0.21249  1.0000
  C   C460      1.0  0.25294  0.65167  0.42153  1.0000
  C   C461      1.0  0.48484  0.40962  0.06592  1.0000
  H   H364      1.0  0.48355  0.43396  0.02069  1.0000
  H   H365      1.0  0.00011  0.34554  0.25407  1.0000
  H   H366      1.0  0.43297  0.56365  0.11411  1.0000
  H   H367      1.0  0.03856  0.50925  0.07441  1.0000
  S   S66       1.0  0.42811  0.34022  0.23434  1.0000
  H   H368      1.0  0.01109  0.36312  0.04922  1.0000
  C   C462      1.0  0.00615  0.38520  0.05665  1.0000
  H   H369      1.0  0.25705  0.63592  0.40221  1.0000
  C   C463      1.0  0.00246  0.48823  0.12834  1.0000
  H   H370      1.0  0.24067  0.58000  0.41594  1.0000
  C   C464      1.0  0.02294  0.51282  0.05480  1.0000
  C   C465      1.0  0.00819  0.46717  0.15262  1.0000
  H   H371      1.0  0.43199  0.63290  0.35701  1.0000
  C   C466      1.0  0.34355  0.63461  0.48978  1.0000
  C   C467      1.0  0.25914  0.53179  0.45660  1.0000
  C   C468      1.0  0.48495  0.47543  0.24275  1.0000
  C   C469      1.0  0.47496  0.50509  0.18366  1.0000
  C   C470      1.0  0.29133  0.34793  0.04767  1.0000
  C   C471      1.0  0.24547  0.39962  0.18798  1.0000
  C   C472      1.0  0.30785  0.55253  0.45979  1.0000
  H   H372      1.0  0.44365  0.64812  0.25624  1.0000
  C   C473      1.0  0.30698  0.34262  0.10437  1.0000
  C   C474      1.0  0.47831  0.57439  0.10901  1.0000
  C   C475      1.0  0.31264  0.35120  0.07191  1.0000
  H   H373      1.0  0.47948  0.48369  0.11106  1.0000
  C   C476      1.0  0.31559  0.62712  0.50068  1.0000
  C   C477      1.0  0.00791  0.51765  0.13527  1.0000
  C   C478      1.0  0.48145  0.52643  0.06633  1.0000
  C   C479      1.0  0.37913  0.40829  0.00510  1.0000
  C   C480      1.0  0.27168  0.35509  0.17537  1.0000
  C   C481      1.0  0.48417  0.58619  0.25888  1.0000
  C   C482      1.0  0.48624  0.32496  0.29446  1.0000
  C   C483      1.0  0.99258  0.44170  0.07781  1.0000
  H   H374      1.0  0.00265  0.53446  0.11753  1.0000
  H   H375      1.0  0.16133  0.63928  0.33948  1.0000
  H   H376      1.0  0.17816  0.58303  0.47313  1.0000
  H   H377      1.0  0.29943  0.62025  0.48297  1.0000
  H   H378      1.0  0.21027  0.64542  0.19598  1.0000
  H   H379      1.0  0.47905  0.32890  0.26948  1.0000
  H   H380      1.0  0.22685  0.36338  0.16208  1.0000
  H   H381      1.0  0.26229  0.64440  0.21149  1.0000
  S   S67       1.0  0.16045  0.33728  0.36403  1.0000
  S   S68       1.0  0.23601  0.33091  0.31640  1.0000
  C   C484      1.0  0.28015  0.32988  0.11274  1.0000
  H   H382      1.0  0.42721  0.64331  0.41699  1.0000
  H   H383      1.0  0.48645  0.38880  0.05352  1.0000
  C   C485      1.0  0.15127  0.34682  0.49475  1.0000
  H   H384      1.0  0.44767  0.38140  0.00859  1.0000
  H   H385      1.0  0.32856  0.32554  0.25541  1.0000
  C   C486      1.0  0.01201  0.53382  0.00138  1.0000
  C   C487      1.0  0.13612  0.35595  0.52314  1.0000
  H   H386      1.0  0.39385  0.46397  0.97920  1.0000
  Fe  Fe36      1.0  0.11678  0.34060  0.69740  1.0000
  S   S69       1.0  0.12696  0.38771  0.71130  1.0000
  S   S70       1.0  0.33001  0.65234  0.69554  1.0000
  Fe  Fe37      1.0  0.39022  0.40862  0.90667  1.0000
  S   S71       1.0  0.35699  0.37457  0.89388  1.0000
  S   S72       1.0  0.41873  0.40699  0.95301  1.0000
  Fe  Fe38      1.0  0.38461  0.43803  0.83758  1.0000
  S   S73       1.0  0.35163  0.40528  0.82036  1.0000
  S   S74       1.0  0.40466  0.47023  0.80109  1.0000
  Fe  Fe39      1.0  0.33258  0.41200  0.87099  1.0000
  S   S75       1.0  0.28425  0.41676  0.87835  1.0000
  Fe  Fe40      1.0  0.37910  0.37105  0.84443  1.0000
  H   H387      1.0  0.03876  0.43780  0.81086  1.0000
  S   S76       1.0  0.36417  0.44646  0.88725  1.0000
  S   S77       1.0  0.41377  0.40340  0.85828  1.0000
  H   H388      1.0  0.45463  0.42520  0.77879  1.0000
  C   C488      1.0  0.39408  0.51926  0.87371  1.0000
  C   C489      1.0  0.30835  0.62924  0.53456  1.0000
  C   C490      1.0  0.18974  0.51484  0.72285  1.0000
  H   H389      1.0  0.35146  0.50263  0.81651  1.0000
  C   C491      1.0  0.22442  0.48133  0.87467  1.0000
  C   C492      1.0  0.23801  0.45413  0.87814  1.0000
  C   C493      1.0  0.26805  0.45127  0.87323  1.0000
  C   C494      1.0  0.28444  0.47579  0.86450  1.0000
  H   H390      1.0  0.20137  0.48342  0.87915  1.0000
  H   H391      1.0  0.22521  0.43529  0.88498  1.0000
  H   H392      1.0  0.30757  0.47382  0.86063  1.0000
  C   C495      1.0  0.11895  0.40849  0.74712  1.0000
  C   C496      1.0  0.10072  0.39827  0.77225  1.0000
  C   C497      1.0  0.09457  0.41607  0.79977  1.0000
  C   C498      1.0  0.10650  0.44423  0.80246  1.0000
  C   C499      1.0  0.12516  0.45412  0.77764  1.0000
  C   C500      1.0  0.13116  0.43645  0.75005  1.0000
  H   H393      1.0  0.09138  0.37671  0.77047  1.0000
  H   H394      1.0  0.08084  0.40779  0.81931  1.0000
  H   H395      1.0  0.13480  0.47548  0.77978  1.0000
  H   H396      1.0  0.14537  0.44447  0.73081  1.0000
  H   H397      1.0  0.48105  0.37034  0.90519  1.0000
  H   H398      1.0  0.01892  0.54653  0.98021  1.0000
  H   H399      1.0  0.17166  0.61761  0.51904  1.0000
  H   H400      1.0  0.34018  0.32643  0.78846  1.0000
  H   H401      1.0  0.17481  0.59332  0.72873  1.0000
  C   C501      1.0  0.32989  0.35202  0.68289  1.0000
  Fe  Fe41      1.0  0.11909  0.51037  0.84847  1.0000
  S   S78       1.0  0.15025  0.53488  0.81598  1.0000
  S   S79       1.0  0.09783  0.46623  0.83719  1.0000
  Fe  Fe42      1.0  0.12058  0.55780  0.90335  1.0000
  S   S80       1.0  0.15261  0.58525  0.87459  1.0000
  S   S81       1.0  0.09658  0.57657  0.94859  1.0000
  Fe  Fe43      1.0  0.12581  0.57566  0.82961  1.0000
  S   S82       1.0  0.10840  0.60838  0.79173  1.0000
  Fe  Fe44      1.0  0.17489  0.54268  0.86318  1.0000
  S   S83       1.0  0.22417  0.54025  0.86177  1.0000
  S   S84       1.0  0.09238  0.55036  0.85856  1.0000
  S   S85       1.0  0.14512  0.51588  0.89536  1.0000
  Fe  Fe45      1.0  0.36824  0.62532  0.71125  1.0000
  C   C502      1.0  0.47519  0.36200  0.71495  1.0000
  S   S86       1.0  0.35569  0.59240  0.75128  1.0000
  H   H402      1.0  0.12690  0.53634  0.99381  1.0000
  C   C503      1.0  0.20333  0.54172  0.71755  1.0000
  S   S87       1.0  0.38518  0.62251  0.65908  1.0000
  C   C504      1.0  0.36925  0.55793  0.76346  1.0000
  C   C505      1.0  0.35363  0.54187  0.78715  1.0000
  C   C506      1.0  0.36372  0.51466  0.79827  1.0000
  C   C507      1.0  0.38994  0.50349  0.78639  1.0000
  C   C508      1.0  0.40548  0.51948  0.76256  1.0000
  C   C509      1.0  0.39510  0.54645  0.75088  1.0000
  H   H403      1.0  0.33363  0.55061  0.79712  1.0000
  H   H404      1.0  0.42594  0.51119  0.75355  1.0000
  H   H405      1.0  0.40742  0.55866  0.73281  1.0000
  H   H406      1.0  0.99950  0.40785  0.78588  1.0000
  C   C510      1.0  0.99050  0.60806  0.72641  1.0000
  C   C511      1.0  0.99843  0.41387  0.81173  1.0000
  H   H407      1.0  0.38787  0.51107  0.95049  1.0000
  P   P16       1.0  0.23886  0.58854  0.73487  1.0000
  H   H408      1.0  0.32018  0.38397  0.62433  1.0000
  C   C512      1.0  0.24075  0.50585  0.86609  1.0000
  C   C513      1.0  0.27080  0.50299  0.86086  1.0000
  H   H409      1.0  0.28353  0.52189  0.85410  1.0000
  H   H410      1.0  0.12454  0.34667  0.57392  1.0000
  C   C514      1.0  0.39550  0.62996  0.82177  1.0000
  C   C515      1.0  0.30867  0.36942  0.60802  1.0000
  C   C516      1.0  0.01938  0.33869  0.75537  1.0000
  C   C517      1.0  0.00882  0.34887  0.97341  1.0000
  C   C518      1.0  0.40672  0.39998  0.99405  1.0000
  H   H411      1.0  0.30047  0.33768  0.72105  1.0000
  C   C519      1.0  0.05046  0.50631  0.92705  1.0000
  H   H412      1.0  0.01238  0.32808  0.98537  1.0000
  H   H413      1.0  0.05645  0.52477  0.91190  1.0000
  C   C520      1.0  0.26679  0.58963  0.67335  1.0000
  H   H414      1.0  0.19999  0.55296  0.69438  1.0000
  C   C521      1.0  0.18854  0.60125  0.52044  1.0000
  C   C522      1.0  0.02815  0.48753  0.91717  1.0000
  C   C523      1.0  0.43211  0.38620  0.73568  1.0000
  C   C524      1.0  0.44593  0.44173  0.68676  1.0000
  C   C525      1.0  0.43895  0.47067  0.69446  1.0000
  C   C526      1.0  0.41660  0.48490  0.67761  1.0000
  C   C527      1.0  0.40127  0.47046  0.65273  1.0000
  C   C528      1.0  0.40815  0.44167  0.64482  1.0000
  C   C529      1.0  0.43023  0.42725  0.66197  1.0000
  C   C530      1.0  0.22092  0.55412  0.74217  1.0000
  H   H415      1.0  0.28661  0.62373  0.54260  1.0000
  H   H416      1.0  0.31526  0.37516  0.76121  1.0000
  C   C531      1.0  0.23540  0.60477  0.80091  1.0000
  H   H417      1.0  0.08288  0.51568  0.96369  1.0000
  C   C532      1.0  0.99584  0.58037  0.73932  1.0000
  C   C533      1.0  0.45908  0.59065  0.83240  1.0000
  H   H418      1.0  0.47332  0.42906  0.92427  1.0000
  C   C534      1.0  0.46929  0.35590  0.85670  1.0000
  H   H419      1.0  0.41118  0.50718  0.68393  1.0000
  H   H420      1.0  0.38408  0.48164  0.63961  1.0000
  H   H421      1.0  0.39630  0.43050  0.62548  1.0000
  H   H422      1.0  0.43519  0.40483  0.65587  1.0000
  C   C535      1.0  0.19631  0.37868  0.67633  1.0000
  C   C536      1.0  0.21771  0.38424  0.65270  1.0000
  C   C537      1.0  0.24521  0.39376  0.66263  1.0000
  C   C538      1.0  0.25132  0.39746  0.69620  1.0000
  C   C539      1.0  0.22958  0.39274  0.72007  1.0000
  C   C540      1.0  0.20218  0.38292  0.70989  1.0000
  P   P17       1.0  0.23789  0.39839  0.76325  1.0000
  C   C541      1.0  0.20606  0.40391  0.78863  1.0000
  C   C542      1.0  0.25402  0.36583  0.78013  1.0000
  C   C543      1.0  0.23176  0.55875  0.52430  1.0000
  H   H423      1.0  0.29263  0.55574  0.74220  1.0000
  H   H424      1.0  0.46402  0.54412  0.99898  1.0000
  C   C544      1.0  0.28134  0.61517  0.77404  1.0000
  C   C545      1.0  0.26284  0.36518  0.81322  1.0000
  C   C546      1.0  0.20168  0.43031  0.80538  1.0000
  C   C547      1.0  0.17860  0.43325  0.82757  1.0000
  C   C548      1.0  0.16015  0.40977  0.83383  1.0000
  C   C549      1.0  0.16424  0.38346  0.81726  1.0000
  C   C550      1.0  0.18716  0.38047  0.79487  1.0000
  C   C551      1.0  0.26050  0.43074  0.76469  1.0000
  C   C552      1.0  0.25326  0.45462  0.74465  1.0000
  C   C553      1.0  0.27044  0.47976  0.74470  1.0000
  C   C554      1.0  0.29484  0.48144  0.76504  1.0000
  C   C555      1.0  0.30215  0.45790  0.78514  1.0000
  C   C556      1.0  0.28506  0.43266  0.78508  1.0000
  H   H425      1.0  0.17490  0.37147  0.66861  1.0000
  H   H426      1.0  0.21288  0.38111  0.62674  1.0000
  C   C557      1.0  0.02061  0.43054  0.82582  1.0000
  H   H427      1.0  0.27288  0.40444  0.70350  1.0000
  H   H428      1.0  0.18516  0.37883  0.72764  1.0000
  C   C558      1.0  0.18195  0.46581  0.50853  1.0000
  H   H429      1.0  0.03038  0.57386  0.89467  1.0000
  H   H430      1.0  0.25986  0.38405  0.82877  1.0000
  H   H431      1.0  0.21637  0.44845  0.80220  1.0000
  H   H432      1.0  0.17488  0.45379  0.84000  1.0000
  H   H433      1.0  0.14224  0.41228  0.85102  1.0000
  H   H434      1.0  0.02946  0.44112  0.98288  1.0000
  H   H435      1.0  0.19035  0.35970  0.78279  1.0000
  H   H436      1.0  0.23414  0.45390  0.72908  1.0000
  H   H437      1.0  0.26454  0.49815  0.72940  1.0000
  H   H438      1.0  0.30792  0.50106  0.76551  1.0000
  H   H439      1.0  0.32087  0.45944  0.80123  1.0000
  H   H440      1.0  0.29101  0.41506  0.80124  1.0000
  H   H441      1.0  0.43174  0.56071  0.80516  1.0000
  C   C559      1.0  0.36505  0.52615  0.88034  1.0000
  C   C560      1.0  0.35622  0.55517  0.88089  1.0000
  C   C561      1.0  0.37640  0.57737  0.87500  1.0000
  C   C562      1.0  0.40548  0.57058  0.86775  1.0000
  C   C563      1.0  0.41424  0.54137  0.86761  1.0000
  H   H442      1.0  0.34922  0.50903  0.88441  1.0000
  C   C564      1.0  0.31351  0.56727  0.66279  1.0000
  H   H443      1.0  0.29883  0.40385  0.57362  1.0000
  H   H444      1.0  0.46954  0.52089  0.90646  1.0000
  C   C565      1.0  0.09887  0.57371  0.99255  1.0000
  H   H445      1.0  0.41975  0.40577  0.74059  1.0000
  H   H446      1.0  0.39905  0.35801  0.75602  1.0000
  H   H447      1.0  0.12417  0.37618  0.52256  1.0000
  H   H448      1.0  0.29512  0.61556  0.75238  1.0000
  C   C566      1.0  0.27699  0.33354  0.56533  1.0000
  C   C567      1.0  0.98938  0.55162  0.90079  1.0000
  C   C568      1.0  0.28944  0.32192  0.59388  1.0000
  H   H449      1.0  0.39125  0.60926  0.80980  1.0000
  H   H450      1.0  0.36473  0.36919  0.65262  1.0000
  P   P18       1.0  0.43216  0.59913  0.86335  1.0000
  H   H451      1.0  0.46887  0.45628  0.82516  1.0000
  C   C569      1.0  0.43271  0.61705  0.92912  1.0000
  P   P19       1.0  0.99398  0.43737  0.92251  1.0000
  H   H452      1.0  0.28936  0.59158  0.62673  1.0000
  H   H453      1.0  0.14948  0.36548  0.82162  1.0000
  H   H454      1.0  0.08337  0.65263  0.75086  1.0000
  C   C570      1.0  0.20651  0.59983  0.54821  1.0000
  C   C571      1.0  0.22810  0.57859  0.55013  1.0000
  C   C572      1.0  0.27470  0.62683  0.83187  1.0000
  H   H455      1.0  0.17574  0.50558  0.70408  1.0000
  C   C573      1.0  0.47429  0.58871  0.91160  1.0000
  C   C574      1.0  0.28971  0.58338  0.65181  1.0000
  C   C575      1.0  0.40915  0.48147  0.98376  1.0000
  C   C576      1.0  0.40583  0.50803  0.96745  1.0000
  H   H456      1.0  0.20372  0.61509  0.56836  1.0000
  H   H457      1.0  0.24214  0.57757  0.57160  1.0000
  S   S88       1.0  0.09467  0.33267  0.64863  1.0000
  C   C577      1.0  0.32895  0.63868  0.55804  1.0000
  C   C578      1.0  0.29213  0.62659  0.80359  1.0000
  C   C579      1.0  0.19461  0.49302  0.50244  1.0000
  C   C580      1.0  0.99566  0.42957  0.87876  1.0000
  H   H458      1.0  0.27066  0.37200  0.53589  1.0000
  H   H459      1.0  0.24011  0.54683  0.79049  1.0000
  H   H460      1.0  0.42314  0.55112  0.96028  1.0000
  H   H461      1.0  0.05386  0.35495  0.96046  1.0000
  C   C581      1.0  0.01975  0.43760  0.85939  1.0000
  C   C582      1.0  0.03541  0.45889  0.96668  1.0000
  H   H462      1.0  0.24862  0.54240  0.52618  1.0000
  C   C583      1.0  0.42572  0.53051  0.97293  1.0000
  H   H463      1.0  0.33165  0.56329  0.64634  1.0000
  C   C584      1.0  0.34729  0.39424  0.72906  1.0000
  H   H464      1.0  0.47979  0.60659  0.99292  1.0000
  C   C585      1.0  0.22578  0.53856  0.77148  1.0000
  H   H465      1.0  0.03817  0.44901  0.86985  1.0000
  C   C586      1.0  0.35303  0.37100  0.67575  1.0000
  H   H466      1.0  0.16420  0.63893  0.80133  1.0000
  C   C587      1.0  0.32528  0.37449  0.73700  1.0000
  C   C588      1.0  0.03215  0.36400  0.95940  1.0000
  C   C589      1.0  0.19395  0.50001  0.75257  1.0000
  C   C590      1.0  0.29136  0.56321  0.71687  1.0000
  H   H467      1.0  0.36375  0.41749  0.98786  1.0000
  C   C591      1.0  0.26780  0.58015  0.70631  1.0000
  H   H468      1.0  0.21328  0.59658  0.80027  1.0000
  C   C592      1.0  0.25317  0.60340  0.77275  1.0000
  H   H469      1.0  0.43255  0.63016  0.98025  1.0000
  S   S89       1.0  0.39640  0.32847  0.82284  1.0000
  C   C593      1.0  0.27502  0.34001  0.82669  1.0000
  H   H470      1.0  0.33281  0.54479  0.70391  1.0000
  H   H471      1.0  0.43654  0.53558  0.86229  1.0000
  H   H472      1.0  0.37895  0.40711  0.69300  1.0000
  C   C594      1.0  0.44425  0.61868  0.96103  1.0000
  H   H473      1.0  0.36916  0.59974  0.87605  1.0000
  C   C595      1.0  0.06545  0.50120  0.95638  1.0000
  C   C596      1.0  0.21517  0.61620  0.71840  1.0000
  C   C597      1.0  0.18487  0.61243  0.71805  1.0000
  H   H474      1.0  0.35398  0.41062  0.74679  1.0000
  H   H475      1.0  0.33362  0.56042  0.88563  1.0000
  C   C598      1.0  0.99479  0.32530  0.85119  1.0000
  C   C599      1.0  0.21204  0.51185  0.77678  1.0000
  C   C600      1.0  0.05765  0.47778  0.97647  1.0000
  C   C601      1.0  0.02747  0.39073  0.94381  1.0000
  H   H476      1.0  0.28255  0.34015  0.85206  1.0000
  C   C602      1.0  0.02129  0.46296  0.93625  1.0000
  H   H477      1.0  0.03268  0.56546  0.83484  1.0000
  C   C603      1.0  0.99947  0.40280  0.94270  1.0000
  P   P20       1.0  0.99316  0.53735  0.78798  1.0000
  C   C604      1.0  0.43566  0.33368  0.73805  1.0000
  C   C605      1.0  0.02919  0.52657  0.77474  1.0000
  C   C606      1.0  0.03503  0.49764  0.76564  1.0000
  C   C607      1.0  0.06251  0.48985  0.75387  1.0000
  C   C608      1.0  0.08440  0.51080  0.75115  1.0000
  C   C609      1.0  0.07897  0.53946  0.76053  1.0000
  C   C610      1.0  0.05156  0.54738  0.77234  1.0000
  H   H478      1.0  0.19708  0.50806  0.52276  1.0000
  H   H479      1.0  0.17484  0.46011  0.53321  1.0000
  C   C611      1.0  0.01449  0.55670  0.84855  1.0000
  C   C612      1.0  0.31413  0.55684  0.69516  1.0000
  H   H480      1.0  0.21528  0.50059  0.79997  1.0000
  H   H481      1.0  0.36663  0.65323  0.78937  1.0000
  H   H482      1.0  0.46891  0.54959  0.76315  1.0000
  C   C613      1.0  0.22710  0.64264  0.70734  1.0000
  C   C614      1.0  0.36132  0.39232  0.69857  1.0000
  H   H483      1.0  0.24861  0.60209  0.66421  1.0000
  H   H484      1.0  0.23271  0.61600  0.85237  1.0000
  H   H485      1.0  0.40090  0.49675  0.87239  1.0000
  C   C615      1.0  0.45282  0.57108  0.80676  1.0000
  C   C616      1.0  0.36397  0.64423  0.51326  1.0000
  H   H486      1.0  0.04570  0.40209  0.93269  1.0000
  H   H487      1.0  0.01677  0.49190  0.89432  1.0000
  H   H488      1.0  0.06696  0.46749  0.74707  1.0000
  H   H489      1.0  0.10566  0.50483  0.74197  1.0000
  H   H490      1.0  0.09606  0.55563  0.75867  1.0000
  H   H491      1.0  0.04793  0.56989  0.77916  1.0000
  H   H492      1.0  0.47868  0.64462  0.71705  1.0000
  C   C617      1.0  0.44802  0.60271  0.90393  1.0000
  H   H493      1.0  0.18333  0.47930  0.75687  1.0000
  H   H494      1.0  0.45239  0.34133  0.86555  1.0000
  C   C618      1.0  0.16698  0.63408  0.70492  1.0000
  C   C619      1.0  0.15050  0.65208  0.78563  1.0000
  C   C620      1.0  0.24630  0.61603  0.83048  1.0000
  H   H495      1.0  0.26180  0.39806  0.64433  1.0000
  H   H496      1.0  0.45188  0.63912  0.76975  1.0000
  H   H497      1.0  0.00852  0.56513  0.72494  1.0000
  C   C621      1.0  0.47378  0.56491  0.78272  1.0000
  C   C622      1.0  0.45981  0.38786  0.72110  1.0000
  C   C623      1.0  0.42019  0.35921  0.74424  1.0000
  H   H498      1.0  0.46060  0.34660  0.80558  1.0000
  C   C624      1.0  0.47375  0.35904  0.82277  1.0000
  H   H499      1.0  0.01856  0.48097  0.76732  1.0000
  H   H500      1.0  0.37290  0.65357  0.56469  1.0000
  C   C625      1.0  0.35685  0.64607  0.54711  1.0000
  C   C626      1.0  0.01308  0.56179  0.88254  1.0000
  P   P21       1.0  0.47430  0.42285  0.70879  1.0000
  C   C627      1.0  0.44888  0.52641  0.99476  1.0000
  H   H501      1.0  0.41175  0.62683  0.92416  1.0000
  C   C628      1.0  0.99228  0.54124  0.83246  1.0000
  C   C629      1.0  0.28045  0.36303  0.55800  1.0000
  H   H502      1.0  0.45057  0.48232  0.71353  1.0000
  C   C630      1.0  0.47164  0.44107  0.77495  1.0000
  C   C631      1.0  0.31672  0.35340  0.71407  1.0000
  H   H503      1.0  0.31407  0.63517  0.80441  1.0000
  S   S90       1.0  0.31845  0.64248  0.60032  1.0000
  C   C632      1.0  0.25491  0.34001  0.76165  1.0000
  C   C633      1.0  0.30545  0.33973  0.61550  1.0000
  C   C634      1.0  0.46849  0.47499  0.91681  1.0000
  C   C635      1.0  0.02318  0.36119  0.73252  1.0000
  C   C636      1.0  0.48572  0.37229  0.87908  1.0000
  C   C637      1.0  0.46314  0.33508  0.72349  1.0000
  H   H504      1.0  0.14356  0.63141  0.70540  1.0000
  C   C638      1.0  0.29632  0.38094  0.57929  1.0000
  H   H505      1.0  0.24654  0.33932  0.73678  1.0000
  H   H506      1.0  0.44727  0.47547  0.92835  1.0000
  C   C639      1.0  0.41461  0.63174  0.84870  1.0000
  H   H507      1.0  0.38558  0.65031  0.50523  1.0000
  H   H508      1.0  0.25835  0.33657  0.66678  1.0000
  C   C640      1.0  0.47076  0.60533  0.96822  1.0000
  H   H509      1.0  0.03807  0.33086  0.76887  1.0000
  H   H510      1.0  0.04472  0.36999  0.72799  1.0000
  C   C641      1.0  0.48333  0.44861  0.91442  1.0000
  C   C642      1.0  0.99174  0.32642  0.76041  1.0000
  H   H511      1.0  0.00064  0.34548  0.89872  1.0000
  P   P22       1.0  0.31930  0.32431  0.65348  1.0000
  H   H512      1.0  0.01787  0.32218  0.84741  1.0000
  H   H513      1.0  0.25031  0.64654  0.70887  1.0000
  H   H514      1.0  0.98828  0.55580  0.92706  1.0000
  C   C643      1.0  0.47961  0.45885  0.80149  1.0000
  C   C644      1.0  0.48089  0.50041  0.90412  1.0000
  C   C645      1.0  0.12243  0.64245  0.77785  1.0000
  C   C646      1.0  0.13627  0.33923  0.55237  1.0000
  H   H515      1.0  0.28311  0.63547  0.85483  1.0000
  H   H516      1.0  0.99907  0.61419  0.70243  1.0000
  Fe  Fe46      1.0  0.34890  0.65252  0.64410  1.0000
  H   H517      1.0  0.07072  0.61053  0.00030  1.0000
  H   H518      1.0  0.48469  0.42706  0.63645  1.0000
  H   H519      1.0  0.00237  0.38913  0.69711  1.0000
  H   H520      1.0  0.48608  0.57648  0.89311  1.0000
  C   C647      1.0  0.99930  0.37201  0.71515  1.0000
  C   C648      1.0  0.48556  0.59009  0.94361  1.0000
  C   C649      1.0  0.48605  0.60495  0.83277  1.0000
  C   C650      1.0  0.48538  0.44422  0.74416  1.0000
  H   H521      1.0  0.06881  0.47443  0.99970  1.0000
  Fe  Fe47      1.0  0.16055  0.85415  0.39713  1.0000
  S   S91       1.0  0.13437  0.88468  0.36504  1.0000
  S   S92       1.0  0.13748  0.83415  0.44215  1.0000
  Fe  Fe48      1.0  0.21181  0.85493  0.34807  1.0000
  S   S93       1.0  0.18953  0.88494  0.31272  1.0000
  S   S94       1.0  0.25701  0.83595  0.34084  1.0000
  Fe  Fe49      1.0  0.17646  0.90922  0.35851  1.0000
  S   S95       1.0  0.17696  0.95837  0.35670  1.0000
  Fe  Fe50      1.0  0.14926  0.85818  0.32179  1.0000
  S   S96       1.0  0.12263  0.84062  0.27857  1.0000
  S   S97       1.0  0.20152  0.88101  0.39381  1.0000
  S   S98       1.0  0.17272  0.82575  0.35388  1.0000
  S   S99       1.0  0.06491  0.69591  0.18174  1.0000
  Fe  Fe51      1.0  0.41996  0.86048  0.13825  1.0000
  S   S100      1.0  0.38814  0.82495  0.15093  1.0000
  S   S101      1.0  0.41235  0.89179  0.09487  1.0000
  Fe  Fe52      1.0  0.44983  0.85553  0.20691  1.0000
  S   S102      1.0  0.41841  0.82113  0.22423  1.0000
  H   H522      1.0  0.03085  0.66433  0.35096  1.0000
  Fe  Fe53      1.0  0.42648  0.80215  0.17392  1.0000
  S   S103      1.0  0.43170  0.75316  0.17157  1.0000
  Fe  Fe54      1.0  0.38285  0.84701  0.20011  1.0000
  S   S104      1.0  0.33686  0.86102  0.21492  1.0000
  S   S105      1.0  0.45919  0.83574  0.15722  1.0000
  S   S106      1.0  0.41358  0.88327  0.18702  1.0000
  C   C651      1.0  0.40988  0.88525  0.05161  1.0000
  C   C652      1.0  0.39727  0.90661  0.03122  1.0000
  H   H523      1.0  0.46047  0.93225  0.06533  1.0000
  C   C653      1.0  0.42195  0.86057  0.03685  1.0000
  H   H524      1.0  0.38849  0.92608  0.04236  1.0000
  H   H525      1.0  0.43200  0.84412  0.05212  1.0000
  C   C654      1.0  0.46714  0.73846  0.17337  1.0000
  C   C655      1.0  0.13790  0.70772  0.32124  1.0000
  C   C656      1.0  0.02797  0.74264  0.17722  1.0000
  C   C657      1.0  0.03014  0.71219  0.17924  1.0000
  C   C658      1.0  0.32115  0.86801  0.12154  1.0000
  C   C659      1.0  0.47083  0.70811  0.17300  1.0000
  C   C660      1.0  0.27070  0.68802  0.45994  1.0000
  H   H526      1.0  0.04753  0.75575  0.17698  1.0000
  C   C661      1.0  0.36827  0.80799  0.34798  1.0000
  H   H527      1.0  0.45206  0.69402  0.17139  1.0000
  C   C662      1.0  0.20350  0.68882  0.21444  1.0000
  H   H528      1.0  0.20543  0.66695  0.35565  1.0000
  C   C663      1.0  0.39945  0.70200  0.22988  1.0000
  H   H529      1.0  0.00306  0.94559  0.27371  1.0000
  H   H530      1.0  0.99807  0.74344  0.24141  1.0000
  C   C664      1.0  0.23400  0.96080  0.37691  1.0000
  H   H531      1.0  0.27850  0.96343  0.39334  1.0000
  H   H532      1.0  0.23186  0.93794  0.38249  1.0000
  C   C665      1.0  0.03205  0.87008  0.24325  1.0000
  C   C666      1.0  0.04780  0.88696  0.26610  1.0000
  C   C667      1.0  0.07497  0.87767  0.27821  1.0000
  C   C668      1.0  0.08709  0.85165  0.26694  1.0000
  C   C669      1.0  0.07123  0.83452  0.24441  1.0000
  C   C670      1.0  0.04372  0.84351  0.23287  1.0000
  H   H533      1.0  0.03922  0.90763  0.27411  1.0000
  H   H534      1.0  0.08697  0.89120  0.29532  1.0000
  H   H535      1.0  0.08044  0.81437  0.23541  1.0000
  H   H536      1.0  0.03200  0.83034  0.21515  1.0000
  C   C671      1.0  0.27825  0.84258  0.30491  1.0000
  C   C672      1.0  0.27079  0.86387  0.28177  1.0000
  C   C673      1.0  0.28887  0.86903  0.25424  1.0000
  C   C674      1.0  0.31457  0.85303  0.24954  1.0000
  C   C675      1.0  0.32191  0.83167  0.27257  1.0000
  C   C676      1.0  0.30373  0.82638  0.29992  1.0000
  H   H537      1.0  0.25122  0.87647  0.28518  1.0000
  H   H538      1.0  0.28304  0.88568  0.23660  1.0000
  H   H539      1.0  0.34162  0.81936  0.26932  1.0000
  H   H540      1.0  0.30929  0.80951  0.31723  1.0000
  H   H541      1.0  0.35344  0.93401  0.12886  1.0000
  H   H542      1.0  0.18311  0.74448  0.46270  1.0000
  H   H543      1.0  0.13795  0.91872  0.23301  1.0000
  H   H544      1.0  0.36119  0.70043  0.31489  1.0000
  C   C677      1.0  0.21905  0.67819  0.45595  1.0000
  C   C678      1.0  0.38900  0.78928  0.33434  1.0000
  H   H545      1.0  0.27365  0.76816  0.47219  1.0000
  H   H546      1.0  0.26590  0.80894  0.43341  1.0000
  C   C679      1.0  0.33606  0.93678  0.24001  1.0000
  C   C680      1.0  0.33185  0.95358  0.26855  1.0000
  H   H547      1.0  0.41645  0.73412  0.39586  1.0000
  P   P23       1.0  0.35190  0.94665  0.30603  1.0000
  C   C681      1.0  0.32785  0.93123  0.33668  1.0000
  C   C682      1.0  0.37971  0.91939  0.30038  1.0000
  C   C683      1.0  0.33843  0.92518  0.36843  1.0000
  C   C684      1.0  0.29259  0.90251  0.38302  1.0000
  C   C685      1.0  0.28203  0.90825  0.35141  1.0000
  C   C686      1.0  0.29954  0.92246  0.32827  1.0000
  C   C687      1.0  0.44771  0.75434  0.31428  1.0000
  H   H548      1.0  0.25976  0.93869  0.12206  1.0000
  C   C688      1.0  0.27605  0.66690  0.43582  1.0000
  C   C689      1.0  0.99680  0.90313  0.13379  1.0000
  C   C690      1.0  0.32061  0.94160  0.02153  1.0000
  C   C691      1.0  0.00060  0.75627  0.17544  1.0000
  H   H549      1.0  0.19289  0.83620  0.47901  1.0000
  H   H550      1.0  0.26019  0.90156  0.34479  1.0000
  H   H551      1.0  0.29096  0.92599  0.30379  1.0000
  C   C692      1.0  0.36748  0.98110  0.31806  1.0000
  C   C693      1.0  0.12531  0.97926  0.29694  1.0000
  C   C694      1.0  0.42105  0.70616  0.35308  1.0000
  C   C695      1.0  0.43015  0.90373  0.30113  1.0000
  C   C696      1.0  0.41996  0.71216  0.38707  1.0000
  C   C697      1.0  0.31908  0.94167  0.21194  1.0000
  H   H552      1.0  0.42032  0.69398  0.43621  1.0000
  C   C698      1.0  0.46229  0.93427  0.01226  1.0000
  C   C699      1.0  0.14713  0.82765  0.48421  1.0000
  C   C700      1.0  0.24214  0.69361  0.47046  1.0000
  H   H553      1.0  0.46446  0.91091  0.00944  1.0000
  C   C701      1.0  0.13744  0.67732  0.32451  1.0000
  C   C702      1.0  0.19738  0.78120  0.43437  1.0000
  C   C703      1.0  0.20140  0.75837  0.45671  1.0000
  C   C704      1.0  0.42644  0.66095  0.39922  1.0000
  C   C705      1.0  0.22447  0.65720  0.43171  1.0000
  C   C706      1.0  0.99807  0.76039  0.29079  1.0000
  C   C707      1.0  0.18962  0.94666  0.21715  1.0000
  C   C708      1.0  0.99108  0.96323  0.22653  1.0000
  H   H554      1.0  0.17608  0.78516  0.42384  1.0000
  H   H555      1.0  0.33557  0.92645  0.03292  1.0000
  C   C709      1.0  0.46001  0.94631  0.04380  1.0000
  H   H556      1.0  0.28888  0.70023  0.46983  1.0000
  C   C710      1.0  0.38730  0.75910  0.33990  1.0000
  C   C711      1.0  0.16315  0.72318  0.32997  1.0000
  H   H557      1.0  0.40627  0.79865  0.31973  1.0000
  H   H558      1.0  0.36328  0.67627  0.21302  1.0000
  H   H559      1.0  0.99187  0.77484  0.34081  1.0000
  H   H560      1.0  0.35801  0.88403  0.14867  1.0000
  C   C712      1.0  0.22061  0.79944  0.42615  1.0000
  H   H561      1.0  0.12919  0.70935  0.18562  1.0000
  H   H562      1.0  0.47561  0.80428  0.26020  1.0000
  C   C713      1.0  0.36426  0.74814  0.35915  1.0000
  C   C714      1.0  0.47162  0.75249  0.33577  1.0000
  H   H563      1.0  0.41668  0.94725  0.31144  1.0000
  H   H564      1.0  0.10117  0.88500  0.21098  1.0000
  H   H565      1.0  0.45622  0.98658  0.25394  1.0000
  H   H566      1.0  0.38533  0.84709  0.28304  1.0000
  C   C715      1.0  0.12104  0.71672  0.23730  1.0000
  C   C716      1.0  0.01578  0.91296  0.01067  1.0000
  C   C717      1.0  0.37298  0.68751  0.23375  1.0000
  H   H567      1.0  0.45462  0.98549  0.07205  1.0000
  C   C718      1.0  0.99649  0.98473  0.20270  1.0000
  H   H568      1.0  0.01735  0.91908  0.03645  1.0000
  C   C719      1.0  0.24955  0.66368  0.21637  1.0000
  C   C720      1.0  0.45645  0.97629  0.04750  1.0000
  H   H569      1.0  0.13630  0.95843  0.29751  1.0000
  C   C721      1.0  0.30495  0.96159  0.04086  1.0000
  C   C722      1.0  0.41221  0.71647  0.25659  1.0000
  H   H570      1.0  0.18068  0.68900  0.20792  1.0000
  C   C723      1.0  0.02221  0.67417  0.29997  1.0000
  H   H571      1.0  0.47805  0.93723  0.25592  1.0000
  P   P24       1.0  0.31031  0.96242  0.08510  1.0000
  H   H572      1.0  0.02016  0.76842  0.28918  1.0000
  H   H573      1.0  0.45307  0.90861  0.30401  1.0000
  C   C724      1.0  0.31507  0.92542  0.09904  1.0000
  C   C725      1.0  0.29598  0.90356  0.08805  1.0000
  C   C726      1.0  0.29897  0.87497  0.09939  1.0000
  C   C727      1.0  0.33768  0.91807  0.12071  1.0000
  C   C728      1.0  0.47898  0.98357  0.24799  1.0000
  C   C729      1.0  0.34568  0.79686  0.36728  1.0000
  C   C730      1.0  0.07381  0.91885  0.19169  1.0000
  P   P25       1.0  0.14267  0.98295  0.23124  1.0000
  H   H574      1.0  0.20676  0.72055  0.34913  1.0000
  H   H575      1.0  0.43301  0.72684  0.25271  1.0000
  C   C731      1.0  0.11974  0.92744  0.21933  1.0000
  H   H576      1.0  0.19677  0.68287  0.46277  1.0000
  S   S107      1.0  0.48273  0.87484  0.24314  1.0000
  H   H577      1.0  0.32889  0.90680  0.41619  1.0000
  C   C732      1.0  0.22023  0.66425  0.20755  1.0000
  C   C733      1.0  0.17738  0.96622  0.23987  1.0000
  H   H578      1.0  0.27871  0.90865  0.07085  1.0000
  H   H579      1.0  0.36039  0.93130  0.37519  1.0000
  H   H580      1.0  0.22547  0.91790  0.20660  1.0000
  C   C734      1.0  0.27559  0.70450  0.34889  1.0000
  C   C735      1.0  0.27112  0.72734  0.37107  1.0000
  C   C736      1.0  0.26458  0.75505  0.35915  1.0000
  C   C737      1.0  0.26205  0.75973  0.32524  1.0000
  C   C738      1.0  0.26541  0.73678  0.30281  1.0000
  C   C739      1.0  0.27290  0.70921  0.31487  1.0000
  P   P26       1.0  0.26250  0.74356  0.25895  1.0000
  C   C740      1.0  0.29842  0.74883  0.24187  1.0000
  C   C741      1.0  0.24558  0.71258  0.23899  1.0000
  C   C742      1.0  0.26223  0.68774  0.23191  1.0000
  C   C743      1.0  0.25844  0.96215  0.12183  1.0000
  P   P27       1.0  0.10762  0.72707  0.30350  1.0000
  C   C744      1.0  0.24797  0.79475  0.44003  1.0000
  C   C745      1.0  0.21604  0.71291  0.23009  1.0000
  C   C746      1.0  0.30298  0.74572  0.20775  1.0000
  C   C747      1.0  0.33043  0.75105  0.19412  1.0000
  C   C748      1.0  0.35347  0.75956  0.21438  1.0000
  C   C749      1.0  0.34915  0.76253  0.24834  1.0000
  C   C750      1.0  0.32176  0.75719  0.26212  1.0000
  C   C751      1.0  0.24079  0.77594  0.25256  1.0000
  C   C752      1.0  0.21458  0.77955  0.26995  1.0000
  C   C753      1.0  0.19844  0.80510  0.26652  1.0000
  C   C754      1.0  0.20799  0.82707  0.24535  1.0000
  C   C755      1.0  0.23387  0.82361  0.22773  1.0000
  C   C756      1.0  0.25038  0.79831  0.23151  1.0000
  H   H581      1.0  0.28101  0.68304  0.35800  1.0000
  H   H582      1.0  0.27293  0.72364  0.39739  1.0000
  H   H583      1.0  0.26155  0.77311  0.37597  1.0000
  H   H584      1.0  0.25745  0.78135  0.31647  1.0000
  H   H585      1.0  0.27660  0.69129  0.29816  1.0000
  H   H586      1.0  0.28499  0.68687  0.23860  1.0000
  H   H587      1.0  0.11887  0.66475  0.31632  1.0000
  H   H588      1.0  0.47042  0.69148  0.26959  1.0000
  H   H589      1.0  0.20246  0.73155  0.23502  1.0000
  H   H590      1.0  0.28517  0.73974  0.19162  1.0000
  H   H591      1.0  0.33386  0.74901  0.16775  1.0000
  H   H592      1.0  0.37468  0.76392  0.20373  1.0000
  H   H593      1.0  0.36701  0.76938  0.26391  1.0000
  H   H594      1.0  0.31881  0.76016  0.28841  1.0000
  H   H595      1.0  0.20690  0.76284  0.28666  1.0000
  H   H596      1.0  0.17859  0.80809  0.28049  1.0000
  H   H597      1.0  0.24164  0.84093  0.21186  1.0000
  H   H598      1.0  0.43771  0.85855  0.29011  1.0000
  H   H599      1.0  0.27083  0.79674  0.21846  1.0000
  C   C757      1.0  0.02832  0.98381  0.26183  1.0000
  C   C758      1.0  0.05745  0.70529  0.27286  1.0000
  C   C759      1.0  0.09860  0.75862  0.32804  1.0000
  C   C760      1.0  0.10782  0.76093  0.36101  1.0000
  C   C761      1.0  0.10105  0.78567  0.37956  1.0000
  C   C762      1.0  0.08457  0.80798  0.36563  1.0000
  C   C763      1.0  0.07436  0.80533  0.33330  1.0000
  C   C764      1.0  0.08132  0.78075  0.31453  1.0000
  C   C765      1.0  0.12035  0.73726  0.26295  1.0000
  C   C766      1.0  0.13085  0.76542  0.25706  1.0000
  C   C767      1.0  0.14010  0.77357  0.22551  1.0000
  C   C768      1.0  0.13959  0.75337  0.19975  1.0000
  H   H600      1.0  0.32358  0.84594  0.13054  1.0000
  H   H601      1.0  0.06357  0.71755  0.25112  1.0000
  H   H602      1.0  0.12032  0.74384  0.37251  1.0000
  H   H603      1.0  0.10878  0.78780  0.40473  1.0000
  H   H604      1.0  0.07994  0.82743  0.37985  1.0000
  H   H605      1.0  0.06170  0.82273  0.32245  1.0000
  H   H606      1.0  0.07385  0.77941  0.28922  1.0000
  H   H607      1.0  0.13165  0.78122  0.27675  1.0000
  H   H608      1.0  0.14710  0.79576  0.22103  1.0000
  H   H609      1.0  0.14603  0.75983  0.17509  1.0000
  C   C769      1.0  0.17577  0.82966  0.49574  1.0000
  C   C770      1.0  0.00716  0.96261  0.25578  1.0000
  C   C771      1.0  0.39825  0.71695  0.28748  1.0000
  C   C772      1.0  0.21973  0.96021  0.27510  1.0000
  C   C773      1.0  0.19297  0.97340  0.26856  1.0000
  C   C774      1.0  0.09868  0.90820  0.20728  1.0000
  C   C775      1.0  0.18641  0.67837  0.34668  1.0000
  C   C776      1.0  0.39207  0.86892  0.28945  1.0000
  H   H610      1.0  0.17824  0.94135  0.19454  1.0000
  C   C777      1.0  0.42151  0.87540  0.29337  1.0000
  C   C778      1.0  0.11666  0.95753  0.21445  1.0000
  C   C779      1.0  0.00470  0.69546  0.17971  1.0000
  C   C780      1.0  0.21030  0.97610  0.36428  1.0000
  H   H611      1.0  0.35219  0.91972  0.23924  1.0000
  H   H612      1.0  0.00580  0.92913  0.17620  1.0000
  C   C781      1.0  0.40937  0.92569  0.30482  1.0000
  H   H613      1.0  0.33918  0.67529  0.26786  1.0000
  H   H614      1.0  0.23126  0.96541  0.29770  1.0000
  H   H615      1.0  0.19545  0.84692  0.24304  1.0000
  H   H616      1.0  0.21740  0.81730  0.40909  1.0000
  H   H617      1.0  0.99919  0.77972  0.17395  1.0000
  H   H618      1.0  0.34849  0.88538  0.29072  1.0000
  C   C782      1.0  0.34052  0.88953  0.13197  1.0000
  H   H619      1.0  0.05705  0.90386  0.18351  1.0000
  C   C783      1.0  0.32077  0.91107  0.39160  1.0000
  H   H620      1.0  0.11222  0.97619  0.34781  1.0000
  H   H621      1.0  0.32949  0.81145  0.37753  1.0000
  H   H622      1.0  0.36960  0.83123  0.34356  1.0000
  C   C784      1.0  0.16152  0.66278  0.33759  1.0000
  H   H623      1.0  0.32606  0.75834  0.38764  1.0000
  H   H624      1.0  0.36240  0.72509  0.36424  1.0000
  H   H625      1.0  0.00607  0.67203  0.18135  1.0000
  C   C785      1.0  0.44939  0.77318  0.28702  1.0000
  C   C786      1.0  0.09132  0.96809  0.19936  1.0000
  C   C787      1.0  0.23133  0.94009  0.25288  1.0000
  H   H626      1.0  0.05067  0.95717  0.17627  1.0000
  C   C788      1.0  0.35924  0.68728  0.26446  1.0000
  C   C789      1.0  0.26036  0.97525  0.38307  1.0000
  H   H627      1.0  0.04079  0.98330  0.28451  1.0000
  H   H628      1.0  0.11351  0.69464  0.24130  1.0000
  C   C790      1.0  0.37127  0.89072  0.29337  1.0000
  C   C791      1.0  0.42216  0.85773  0.00215  1.0000
  C   C792      1.0  0.03167  0.68914  0.27196  1.0000
  C   C793      1.0  0.03851  0.67547  0.32905  1.0000
  H   H629      1.0  0.07695  0.69218  0.35259  1.0000
  H   H630      1.0  0.27880  0.89155  0.40081  1.0000
  C   C794      1.0  0.07472  0.70555  0.30147  1.0000
  C   C795      1.0  0.13026  0.72491  0.20572  1.0000
  H   H631      1.0  0.16420  0.74658  0.32672  1.0000
  C   C796      1.0  0.06467  0.69111  0.32983  1.0000
  C   C797      1.0  0.47446  0.78973  0.28127  1.0000
  H   H632      1.0  0.41012  0.70215  0.20606  1.0000
  C   C798      1.0  0.99500  0.92856  0.15260  1.0000
  C   C799      1.0  0.07014  0.94880  0.18776  1.0000
  H   H633      1.0  0.32208  0.92803  0.19038  1.0000
  H   H634      1.0  0.00866  0.88459  0.14332  1.0000
  H   H635      1.0  0.43112  0.77537  0.27044  1.0000
  C   C800      1.0  0.42234  0.68953  0.41002  1.0000
  C   C801      1.0  0.22873  0.75378  0.47119  1.0000
  C   C802      1.0  0.18726  0.70855  0.34274  1.0000
  P   P28       1.0  0.41442  0.73455  0.32313  1.0000
  C   C803      1.0  0.21639  0.93347  0.22380  1.0000
  S   S108      1.0  0.99933  0.88437  0.22641  1.0000
  H   H636      1.0  0.28420  0.85817  0.09096  1.0000
  C   C804      1.0  0.37184  0.70181  0.29119  1.0000
  C   C805      1.0  0.25215  0.77181  0.46219  1.0000
  H   H637      1.0  0.25190  0.92970  0.25826  1.0000
  H   H638      1.0  0.47104  0.73839  0.35712  1.0000
  C   C806      1.0  0.42669  0.67764  0.34253  1.0000
  C   C807      1.0  0.34362  0.76695  0.37274  1.0000
  H   H639      1.0  0.42831  0.67254  0.31651  1.0000
  H   H640      1.0  0.01893  0.68844  0.24946  1.0000
  H   H641      1.0  0.29819  0.66254  0.42798  1.0000
  C   C808      1.0  0.29814  0.96365  0.21195  1.0000
  C   C809      1.0  0.31081  0.97568  0.26837  1.0000
  P   P29       1.0  0.23453  0.72325  0.49843  1.0000
  H   H642      1.0  0.21906  0.96233  0.15078  1.0000
  H   H643      1.0  0.28495  0.96737  0.19024  1.0000
  H   H644      1.0  0.34366  0.98486  0.36407  1.0000
  H   H645      1.0  0.10301  0.81740  0.49796  1.0000
  H   H646      1.0  0.20903  0.66133  0.28297  1.0000
  C   C810      1.0  0.23529  0.97548  0.13836  1.0000
  H   H647      1.0  0.39265  0.98562  0.27316  1.0000
  C   C811      1.0  0.29409  0.98074  0.24013  1.0000
  H   H648      1.0  0.36077  0.98234  0.04562  1.0000
  C   C812      1.0  0.34213  0.98390  0.09482  1.0000
  C   C813      1.0  0.27953  0.97911  0.10558  1.0000
  C   C814      1.0  0.28572  0.98090  0.02528  1.0000
  H   H649      1.0  0.00211  0.66182  0.29910  1.0000
  C   C815      1.0  0.42904  0.65508  0.36551  1.0000
  Fe  Fe55      1.0  0.14066  0.79875  0.63794  1.0000
  S   S109      1.0  0.10806  0.83155  0.65586  1.0000
  S   S110      1.0  0.17001  0.80394  0.59221  1.0000
  Fe  Fe56      1.0  0.13644  0.76335  0.70368  1.0000
  S   S111      1.0  0.10425  0.79451  0.72603  1.0000
  S   S112      1.0  0.15931  0.72737  0.73284  1.0000
  Fe  Fe57      1.0  0.08363  0.79249  0.67559  1.0000
  S   S113      1.0  0.03445  0.79029  0.67270  1.0000
  Fe  Fe58      1.0  0.13111  0.83107  0.70486  1.0000
  S   S114      1.0  0.14959  0.87214  0.72997  1.0000
  S   S115      1.0  0.11459  0.75946  0.65409  1.0000
  S   S116      1.0  0.16505  0.79995  0.68604  1.0000
  C   C816      1.0  0.38681  0.68183  0.82480  1.0000
  S   S117      1.0  0.37320  0.69455  0.65371  1.0000
  C   C817      1.0  0.39686  0.90345  0.99651  1.0000
  Fe  Fe59      1.0  0.35776  0.69151  0.70668  1.0000
  S   S118      1.0  0.33854  0.72307  0.74445  1.0000
  H   H650      1.0  0.46197  0.73394  0.73642  1.0000
  Fe  Fe60      1.0  0.38689  0.89745  0.89724  1.0000
  S   S119      1.0  0.34832  0.87407  0.87538  1.0000
  S   S120      1.0  0.41321  0.87553  0.93807  1.0000
  Fe  Fe61      1.0  0.38443  0.94591  0.84412  1.0000
  S   S121      1.0  0.34591  0.92587  0.81893  1.0000
  H   H651      1.0  0.15464  0.96166  0.63674  1.0000
  Fe  Fe62      1.0  0.32950  0.91910  0.87060  1.0000
  S   S122      1.0  0.28299  0.92601  0.88599  1.0000
  Fe  Fe63      1.0  0.36833  0.88270  0.82577  1.0000
  S   S123      1.0  0.37453  0.85327  0.78084  1.0000
  S   S124      1.0  0.36659  0.94191  0.89586  1.0000
  S   S125      1.0  0.40830  0.90336  0.84759  1.0000
  H   H652      1.0  0.13880  0.70030  0.58372  1.0000
  H   H653      1.0  0.20457  0.82388  0.53735  1.0000
  H   H654      1.0  0.17180  0.66026  0.56729  1.0000
  H   H655      1.0  0.23345  0.96346  0.82000  1.0000
  H   H656      1.0  0.07272  0.85842  0.80921  1.0000
  C   C818      1.0  0.35086  0.75835  0.75554  1.0000
  C   C819      1.0  0.36728  0.77539  0.73393  1.0000
  C   C820      1.0  0.37437  0.80428  0.74235  1.0000
  C   C821      1.0  0.36555  0.81639  0.77259  1.0000
  C   C822      1.0  0.34987  0.79909  0.79474  1.0000
  C   C823      1.0  0.34254  0.77020  0.78616  1.0000
  H   H657      1.0  0.37413  0.76643  0.71052  1.0000
  H   H658      1.0  0.38687  0.81735  0.72528  1.0000
  H   H659      1.0  0.34302  0.80806  0.81817  1.0000
  H   H660      1.0  0.32989  0.75708  0.80309  1.0000
  H   H661      1.0  0.32045  0.75779  0.64917  1.0000
  C   C824      1.0  0.23817  0.96434  0.89163  1.0000
  C   C825      1.0  0.26717  0.96063  0.88195  1.0000
  H   H662      1.0  0.47345  0.93417  0.86298  1.0000
  C   C826      1.0  0.15663  0.70441  0.56679  1.0000
  H   H663      1.0  0.22643  0.94641  0.90273  1.0000
  H   H664      1.0  0.14727  0.75014  0.56274  1.0000
  C   C827      1.0  0.17658  0.96250  0.68366  1.0000
  C   C828      1.0  0.02079  0.70303  0.66490  1.0000
  C   C829      1.0  0.03453  0.73033  0.66694  1.0000
  C   C830      1.0  0.01818  0.75538  0.67305  1.0000
  C   C831      1.0  0.47261  0.70337  0.65562  1.0000
  C   C832      1.0  0.45614  0.72883  0.65787  1.0000
  H   H665      1.0  0.03352  0.68385  0.65949  1.0000
  H   H666      1.0  0.05769  0.73201  0.66314  1.0000
  H   H667      1.0  0.45708  0.77579  0.65763  1.0000
  H   H668      1.0  0.43282  0.72747  0.66072  1.0000
  C   C833      1.0  0.14390  0.69563  0.75125  1.0000
  C   C834      1.0  0.16117  0.67844  0.77228  1.0000
  C   C835      1.0  0.24581  0.96867  0.79809  1.0000
  C   C836      1.0  0.07201  0.89649  0.65783  1.0000
  C   C837      1.0  0.04550  0.87271  0.84928  1.0000
  C   C838      1.0  0.11566  0.68628  0.74400  1.0000
  H   H669      1.0  0.18317  0.68522  0.77776  1.0000
  H   H670      1.0  0.47941  0.95768  0.67631  1.0000
  P   P30       1.0  0.00836  0.88873  0.90053  1.0000
  H   H671      1.0  0.10211  0.69912  0.72778  1.0000
  C   C839      1.0  0.13372  0.89997  0.75468  1.0000
  C   C840      1.0  0.10505  0.89844  0.76600  1.0000
  C   C841      1.0  0.09364  0.92086  0.78604  1.0000
  C   C842      1.0  0.11068  0.94516  0.79481  1.0000
  C   C843      1.0  0.13923  0.94690  0.78302  1.0000
  C   C844      1.0  0.15070  0.92434  0.76332  1.0000
  H   H672      1.0  0.09174  0.87995  0.75932  1.0000
  H   H673      1.0  0.07151  0.91933  0.79492  1.0000
  H   H674      1.0  0.46181  0.94196  0.96032  1.0000
  H   H675      1.0  0.17291  0.92579  0.75482  1.0000
  C   C845      1.0  0.16031  0.81429  0.55122  1.0000
  C   C846      1.0  0.13167  0.81271  0.53981  1.0000
  C   C847      1.0  0.04058  0.91310  0.99067  1.0000
  H   H676      1.0  0.38178  0.82748  0.65621  1.0000
  C   C848      1.0  0.18231  0.82273  0.52892  1.0000
  H   H677      1.0  0.11451  0.80608  0.55649  1.0000
  C   C849      1.0  0.46561  0.75701  0.74037  1.0000
  H   H678      1.0  0.04496  0.93221  0.86594  1.0000
  C   C850      1.0  0.28223  0.98016  0.99095  1.0000
  C   C851      1.0  0.17909  0.65995  0.69303  1.0000
  H   H679      1.0  0.46479  0.66979  0.81767  1.0000
  H   H680      1.0  0.22215  0.74959  0.71247  1.0000
  H   H681      1.0  0.29262  0.82982  0.94308  1.0000
  C   C852      1.0  0.99063  0.70051  0.66919  1.0000
  P   P31       1.0  0.48049  0.85559  0.75343  1.0000
  H   H682      1.0  0.05232  0.85010  0.92905  1.0000
  C   C853      1.0  0.44328  0.77459  0.75246  1.0000
  C   C854      1.0  0.44776  0.80451  0.75667  1.0000
  H   H683      1.0  0.46631  0.79551  0.89314  1.0000
  C   C855      1.0  0.47625  0.67275  0.79464  1.0000
  H   H684      1.0  0.99483  0.72644  0.60367  1.0000
  C   C856      1.0  0.44806  0.87629  0.74538  1.0000
  C   C857      1.0  0.46454  0.96676  0.89980  1.0000
  H   H685      1.0  0.05595  0.80681  0.77761  1.0000
  H   H686      1.0  0.30968  0.95243  0.76028  1.0000
  C   C858      1.0  0.01168  0.80272  0.79414  1.0000
  C   C859      1.0  0.44179  0.90138  0.76385  1.0000
  C   C860      1.0  0.41738  0.91819  0.75638  1.0000
  C   C861      1.0  0.39958  0.91054  0.72982  1.0000
  C   C862      1.0  0.40630  0.88621  0.71058  1.0000
  C   C863      1.0  0.43037  0.86904  0.71841  1.0000
  H   H687      1.0  0.15264  0.96538  0.78958  1.0000
  H   H688      1.0  0.19890  0.87987  0.63884  1.0000
  C   C864      1.0  0.47124  0.85947  0.82115  1.0000
  C   C865      1.0  0.03412  0.81545  0.77590  1.0000
  H   H689      1.0  0.42246  0.76496  0.75847  1.0000
  H   H690      1.0  0.43047  0.81780  0.76670  1.0000
  C   C866      1.0  0.06851  0.85706  0.83544  1.0000
  H   H691      1.0  0.44829  0.85747  0.81545  1.0000
  H   H692      1.0  0.45562  0.90800  0.78407  1.0000
  H   H693      1.0  0.41218  0.93703  0.77138  1.0000
  H   H694      1.0  0.38043  0.92324  0.72436  1.0000
  H   H695      1.0  0.39269  0.88042  0.68987  1.0000
  H   H696      1.0  0.43522  0.85015  0.70341  1.0000
  C   C867      1.0  0.29796  0.96026  0.97198  1.0000
  S   S126      1.0  0.09556  0.97231  0.82109  1.0000
  H   H697      1.0  0.25579  0.80905  0.61565  1.0000
  C   C868      1.0  0.27822  0.98326  0.74211  1.0000
  H   H698      1.0  0.37031  0.97609  0.72431  1.0000
  H   H699      1.0  0.21821  0.68506  0.68691  1.0000
  Fe  Fe64      1.0  0.40878  0.66447  0.67089  1.0000
  H   H700      1.0  0.28054  0.93917  0.80971  1.0000
  H   H701      1.0  0.09307  0.82287  0.90436  1.0000
  H   H702      1.0  0.03395  0.98049  0.84315  1.0000
  C   C869      1.0  0.26540  0.75880  0.54162  1.0000
  C   C870      1.0  0.08004  0.83709  0.88906  1.0000
  C   C871      1.0  0.17523  0.68187  0.55742  1.0000
  H   H703      1.0  0.00762  0.86062  0.65390  1.0000
  H   H704      1.0  0.99510  0.93870  0.70136  1.0000
  C   C872      1.0  0.40611  0.68386  0.85138  1.0000
  C   C873      1.0  0.19846  0.68742  0.53595  1.0000
  H   H705      1.0  0.21585  0.72327  0.59764  1.0000
  H   H706      1.0  0.36893  0.77760  0.63809  1.0000
  H   H707      1.0  0.24682  0.67973  0.60722  1.0000
  C   C874      1.0  0.01668  0.96766  0.85423  1.0000
  H   H708      1.0  0.29653  0.83809  0.69732  1.0000
  H   H709      1.0  0.42377  0.97315  0.72071  1.0000
  H   H710      1.0  0.44246  0.95916  0.90362  1.0000
  C   C875      1.0  0.08572  0.83919  0.85524  1.0000
  H   H711      1.0  0.21320  0.66994  0.52959  1.0000
  C   C876      1.0  0.30454  0.71547  0.56032  1.0000
  C   C877      1.0  0.30728  0.74348  0.57326  1.0000
  C   C878      1.0  0.28755  0.76509  0.56418  1.0000
  C   C879      1.0  0.04924  0.87976  0.64504  1.0000
  S   S127      1.0  0.40886  0.98519  0.82351  1.0000
  H   H712      1.0  0.16506  0.67716  0.68409  1.0000
  C   C880      1.0  0.98810  0.75273  0.67819  1.0000
  H   H713      1.0  0.28453  0.68082  0.65068  1.0000
  H   H714      1.0  0.29243  0.72534  0.68377  1.0000
  C   C881      1.0  0.28246  0.98409  0.86836  1.0000
  H   H715      1.0  0.08820  0.91979  0.70013  1.0000
  C   C882      1.0  0.03995  0.87112  0.88334  1.0000
  C   C883      1.0  0.47986  0.86210  0.85413  1.0000
  H   H716      1.0  0.31960  0.69869  0.56792  1.0000
  H   H717      1.0  0.32462  0.74826  0.59048  1.0000
  H   H718      1.0  0.28944  0.78669  0.57464  1.0000
  C   C884      1.0  0.46220  0.77941  0.87412  1.0000
  H   H719      1.0  0.20293  0.86821  0.69828  1.0000
  H   H720      1.0  0.34545  0.85738  0.68643  1.0000
  H   H721      1.0  0.22354  0.76772  0.62964  1.0000
  H   H722      1.0  0.23186  0.82644  0.71684  1.0000
  C   C885      1.0  0.07028  0.90735  0.68995  1.0000
  C   C886      1.0  0.48207  0.96647  0.78505  1.0000
  C   C887      1.0  0.43027  0.75870  0.83290  1.0000
  S   S128      1.0  0.45625  0.66862  0.65728  1.0000
  H   H723      1.0  0.04597  0.84744  0.74005  1.0000
  C   C888      1.0  0.14195  0.89625  0.86085  1.0000
  C   C889      1.0  0.15095  0.92526  0.86053  1.0000
  C   C890      1.0  0.17956  0.93223  0.85223  1.0000
  C   C891      1.0  0.19944  0.91018  0.84490  1.0000
  C   C892      1.0  0.19057  0.88095  0.84499  1.0000
  C   C893      1.0  0.16165  0.87411  0.85317  1.0000
  P   P32       1.0  0.21648  0.85267  0.83534  1.0000
  C   C894      1.0  0.23923  0.84484  0.87058  1.0000
  C   C895      1.0  0.19653  0.82033  0.82375  1.0000
  C   C896      1.0  0.18833  0.80000  0.84800  1.0000
  C   C897      1.0  0.17196  0.77545  0.83944  1.0000
  C   C898      1.0  0.16331  0.77123  0.80677  1.0000
  C   C899      1.0  0.17098  0.79158  0.78269  1.0000
  C   C900      1.0  0.18746  0.81606  0.79103  1.0000
  C   C901      1.0  0.24265  0.86523  0.89607  1.0000
  C   C902      1.0  0.26176  0.85973  0.92214  1.0000
  C   C903      1.0  0.27743  0.83375  0.92314  1.0000
  C   C904      1.0  0.27385  0.81312  0.89812  1.0000
  C   C905      1.0  0.25485  0.81863  0.87193  1.0000
  C   C906      1.0  0.23885  0.86490  0.80122  1.0000
  C   C907      1.0  0.26889  0.85930  0.80054  1.0000
  C   C908      1.0  0.28603  0.86944  0.77440  1.0000
  C   C909      1.0  0.27342  0.88558  0.74897  1.0000
  C   C910      1.0  0.24365  0.89153  0.74961  1.0000
  C   C911      1.0  0.22639  0.88106  0.77546  1.0000
  H   H724      1.0  0.11956  0.89111  0.86670  1.0000
  H   H725      1.0  0.13559  0.94244  0.86614  1.0000
  H   H726      1.0  0.18614  0.95482  0.85131  1.0000
  H   H727      1.0  0.22178  0.91583  0.83932  1.0000
  H   H728      1.0  0.15414  0.85183  0.85345  1.0000
  H   H729      1.0  0.19423  0.80324  0.87360  1.0000
  H   H730      1.0  0.16581  0.75969  0.85810  1.0000
  H   H731      1.0  0.15068  0.75216  0.79997  1.0000
  H   H732      1.0  0.16429  0.78818  0.75740  1.0000
  H   H733      1.0  0.19269  0.83160  0.77187  1.0000
  H   H734      1.0  0.23138  0.88584  0.89551  1.0000
  H   H735      1.0  0.26502  0.87612  0.94104  1.0000
  H   H736      1.0  0.28034  0.68698  0.52873  1.0000
  H   H737      1.0  0.28615  0.79306  0.89878  1.0000
  H   H738      1.0  0.25273  0.80272  0.85241  1.0000
  H   H739      1.0  0.27938  0.84743  0.82020  1.0000
  H   H740      1.0  0.30920  0.86503  0.77414  1.0000
  H   H741      1.0  0.28676  0.89366  0.72892  1.0000
  H   H742      1.0  0.23386  0.90429  0.73010  1.0000
  H   H743      1.0  0.20329  0.88562  0.77543  1.0000
  C   C912      1.0  0.20909  0.66440  0.69464  1.0000
  H   H744      1.0  0.20098  0.96854  0.72796  1.0000
  H   H745      1.0  0.37594  0.70108  0.81543  1.0000
  H   H746      1.0  0.24995  0.77567  0.53524  1.0000
  C   C913      1.0  0.31716  0.94102  0.98724  1.0000
  C   C914      1.0  0.43550  0.77915  0.85772  1.0000
  H   H747      1.0  0.01616  0.78443  0.81020  1.0000
  C   C915      1.0  0.99987  0.84950  0.75158  1.0000
  C   C916      1.0  0.28239  0.70904  0.53783  1.0000
  H   H748      1.0  0.38774  0.92038  0.98119  1.0000
  H   H749      1.0  0.22540  0.85023  0.59760  1.0000
  H   H750      1.0  0.05094  0.87068  0.62043  1.0000
  C   C917      1.0  0.46075  0.95209  0.98436  1.0000
  H   H751      1.0  0.40966  0.75884  0.81988  1.0000
  C   C918      1.0  0.05710  0.85282  0.90305  1.0000
  C   C919      1.0  0.22990  0.75225  0.76449  1.0000
  C   C920      1.0  0.24704  0.76400  0.78959  1.0000
  C   C921      1.0  0.27071  0.78178  0.78167  1.0000
  C   C922      1.0  0.27757  0.78742  0.74863  1.0000
  C   C923      1.0  0.26045  0.77560  0.72325  1.0000
  C   C924      1.0  0.23623  0.75839  0.73148  1.0000
  P   P33       1.0  0.26762  0.78375  0.68041  1.0000
  C   C925      1.0  0.26019  0.75070  0.65748  1.0000
  C   C926      1.0  0.24543  0.81401  0.66745  1.0000
  C   C927      1.0  0.24430  0.82173  0.63394  1.0000
  C   C928      1.0  0.22754  0.84538  0.62366  1.0000
  C   C929      1.0  0.21257  0.86207  0.64687  1.0000
  C   C930      1.0  0.21471  0.85538  0.68039  1.0000
  C   C931      1.0  0.23102  0.83144  0.69075  1.0000
  C   C932      1.0  0.27611  0.72536  0.66441  1.0000
  C   C933      1.0  0.27149  0.70000  0.64603  1.0000
  C   C934      1.0  0.25014  0.69935  0.62156  1.0000
  C   C935      1.0  0.23297  0.72389  0.61593  1.0000
  C   C936      1.0  0.23776  0.74939  0.63396  1.0000
  C   C937      1.0  0.30453  0.79640  0.67416  1.0000
  C   C938      1.0  0.32526  0.77958  0.65730  1.0000
  C   C939      1.0  0.35291  0.79089  0.65065  1.0000
  C   C940      1.0  0.36017  0.81901  0.66086  1.0000
  C   C941      1.0  0.33977  0.83583  0.67783  1.0000
  C   C942      1.0  0.31208  0.82466  0.68430  1.0000
  H   H752      1.0  0.21147  0.73852  0.77055  1.0000
  H   H753      1.0  0.24192  0.75920  0.81510  1.0000
  H   H754      1.0  0.28411  0.79082  0.80107  1.0000
  H   H755      1.0  0.29641  0.80067  0.74319  1.0000
  H   H756      1.0  0.10324  0.82676  0.84426  1.0000
  H   H757      1.0  0.29523  0.95970  0.94542  1.0000
  H   H758      1.0  0.41011  0.70475  0.86289  1.0000
  C   C943      1.0  0.46991  0.75615  0.65602  1.0000
  C   C944      1.0  0.02465  0.87396  0.66429  1.0000
  C   C945      1.0  0.18461  0.73821  0.53362  1.0000
  H   H759      1.0  0.03175  0.88560  0.83328  1.0000
  C   C946      1.0  0.02279  0.94002  0.86690  1.0000
  C   C947      1.0  0.45735  0.98232  0.98779  1.0000
  C   C948      1.0  0.40975  0.87913  0.98172  1.0000
  C   C949      1.0  0.16134  0.73253  0.55490  1.0000
  H   H760      1.0  0.18843  0.76040  0.52571  1.0000
  H   H761      1.0  0.09130  0.90040  0.64310  1.0000
  C   C950      1.0  0.00054  0.92316  0.88115  1.0000
  C   C951      1.0  0.02832  0.83873  0.75467  1.0000
  C   C952      1.0  0.48374  0.75929  0.86563  1.0000
  C   C953      1.0  0.28879  0.96261  0.76444  1.0000
  C   C954      1.0  0.03850  0.90539  0.95731  1.0000
  C   C955      1.0  0.19656  0.97719  0.70369  1.0000
  H   H762      1.0  0.05774  0.90638  0.94192  1.0000
  H   H763      1.0  0.41896  0.79502  0.86401  1.0000
  C   C956      1.0  0.20293  0.71556  0.52334  1.0000
  H   H764      1.0  0.04485  0.90999  0.73425  1.0000
  C   C957      1.0  0.26322  0.73094  0.52752  1.0000
  C   C958      1.0  0.01162  0.89707  0.94389  1.0000
  H   H765      1.0  0.46362  0.86265  0.87359  1.0000
  H   H766      1.0  0.16605  0.94284  0.69259  1.0000
  C   C959      1.0  0.02266  0.88492  0.69656  1.0000
  C   C960      1.0  0.04572  0.90163  0.70925  1.0000
  C   C961      1.0  0.45179  0.73856  0.82429  1.0000
  C   C962      1.0  0.10510  0.65982  0.75709  1.0000
  H   H767      1.0  0.44744  0.72363  0.80426  1.0000
  C   C963      1.0  0.17008  0.97313  0.65224  1.0000
  C   C964      1.0  0.47434  0.81716  0.74762  1.0000
  C   C965      1.0  0.27246  0.95515  0.79230  1.0000
  H   H768      1.0  0.43578  0.66120  0.88298  1.0000
  H   H769      1.0  0.32928  0.92554  0.97243  1.0000
  C   C966      1.0  0.42027  0.65898  0.86307  1.0000
  H   H770      1.0  0.46997  0.96050  0.80698  1.0000
  C   C967      1.0  0.98858  0.97899  0.85651  1.0000
  S   S129      1.0  0.39523  0.66448  0.72414  1.0000
  P   P34       1.0  0.99122  0.87786  0.72224  1.0000
  H   H771      1.0  0.43235  0.83894  0.99104  1.0000
  C   C968      1.0  0.46902  0.65524  0.76766  1.0000
  C   C969      1.0  0.12522  0.81909  0.50651  1.0000
  C   C970      1.0  0.46947  0.98510  0.76191  1.0000
  H   H772      1.0  0.30490  0.98144  0.86095  1.0000
  C   C971      1.0  0.47869  0.73857  0.84074  1.0000
  C   C972      1.0  0.48208  0.95248  0.87673  1.0000
  H   H773      1.0  0.06136  0.91957  0.00092  1.0000
  C   C973      1.0  0.48156  0.97317  0.65630  1.0000
  C   C974      1.0  0.98883  0.90547  0.99721  1.0000
  C   C975      1.0  0.48410  0.65833  0.73795  1.0000
  C   C976      1.0  0.38154  0.65487  0.81005  1.0000
  C   C977      1.0  0.69885  0.24681  0.45310  1.0000
  Fe  Fe65      1.0  0.56000  0.10361  0.13283  1.0000
  S   S130      1.0  0.59259  0.13423  0.15591  1.0000
  S   S131      1.0  0.56329  0.07637  0.08518  1.0000
  Fe  Fe66      1.0  0.52075  0.10447  0.19580  1.0000
  S   S132      1.0  0.55122  0.13398  0.22357  1.0000
  C   C978      1.0  0.63231  0.24628  0.31016  1.0000
  Fe  Fe67      1.0  0.55316  0.15834  0.17532  1.0000
  S   S133      1.0  0.55028  0.20756  0.17750  1.0000
  Fe  Fe68      1.0  0.58811  0.10759  0.20233  1.0000
  S   S134      1.0  0.62716  0.08630  0.22793  1.0000
  S   S135      1.0  0.52107  0.13007  0.14847  1.0000
  S   S136      1.0  0.55728  0.07575  0.17850  1.0000
  Fe  Fe69      1.0  0.81410  0.12296  0.39272  1.0000
  S   S137      1.0  0.84340  0.08898  0.37056  1.0000
  S   S138      1.0  0.82849  0.15341  0.43465  1.0000
  Fe  Fe70      1.0  0.76970  0.11730  0.33477  1.0000
  S   S139      1.0  0.79614  0.08307  0.30901  1.0000
  S   S140      1.0  0.72978  0.14085  0.31437  1.0000
  Fe  Fe71      1.0  0.80140  0.06482  0.36035  1.0000
  S   S141      1.0  0.79852  0.01636  0.37019  1.0000
  Fe  Fe72      1.0  0.83598  0.11000  0.32107  1.0000
  S   S142      1.0  0.86931  0.12905  0.28439  1.0000
  S   S143      1.0  0.77253  0.09755  0.38567  1.0000
  S   S144      1.0  0.80885  0.14541  0.34373  1.0000
  H   H774      1.0  0.79786  0.29242  0.28378  1.0000
  Fe  Fe73      1.0  0.93002  0.31301  0.16983  1.0000
  S   S145      1.0  0.93330  0.26393  0.16813  1.0000
  H   H775      1.0  0.64852  0.16433  0.48721  1.0000
  C   C979      1.0  0.79814  0.31544  0.27827  1.0000
  H   H776      1.0  0.62955  0.04380  0.28974  1.0000
  H   H777      1.0  0.73698  0.19499  0.27349  1.0000
  C   C980      1.0  0.96827  0.24821  0.16653  1.0000
  C   C981      1.0  0.66469  0.19389  0.40287  1.0000
  C   C982      1.0  0.51318  0.25379  0.18745  1.0000
  C   C983      1.0  0.51558  0.22428  0.17872  1.0000
  C   C984      1.0  0.62122  0.02173  0.28857  1.0000
  C   C985      1.0  0.97094  0.21784  0.16786  1.0000
  C   C986      1.0  0.67871  0.16270  0.18604  1.0000
  H   H778      1.0  0.53241  0.26594  0.19419  1.0000
  H   H779      1.0  0.64421  0.02339  0.14908  1.0000
  H   H780      1.0  0.95172  0.20448  0.16853  1.0000
  C   C987      1.0  0.90315  0.11559  0.26888  1.0000
  C   C988      1.0  0.91152  0.08650  0.27238  1.0000
  C   C989      1.0  0.93760  0.07649  0.25783  1.0000
  C   C990      1.0  0.95581  0.09531  0.23966  1.0000
  C   C991      1.0  0.94787  0.12460  0.23698  1.0000
  C   C992      1.0  0.92172  0.13458  0.25141  1.0000
  H   H781      1.0  0.89774  0.07160  0.28593  1.0000
  H   H782      1.0  0.94371  0.05393  0.26068  1.0000
  H   H783      1.0  0.96154  0.13942  0.22316  1.0000
  H   H784      1.0  0.91575  0.15713  0.24864  1.0000
  C   C993      1.0  0.65497  0.10186  0.25277  1.0000
  C   C994      1.0  0.65507  0.13129  0.26153  1.0000
  C   C995      1.0  0.67802  0.14278  0.28064  1.0000
  C   C996      1.0  0.70115  0.12503  0.29106  1.0000
  C   C997      1.0  0.70088  0.09554  0.28265  1.0000
  C   C998      1.0  0.67786  0.08404  0.26371  1.0000
  H   H785      1.0  0.63745  0.14513  0.25355  1.0000
  H   H786      1.0  0.67781  0.16553  0.28746  1.0000
  H   H787      1.0  0.71842  0.08160  0.29068  1.0000
  H   H788      1.0  0.67788  0.06116  0.25741  1.0000
  C   C999      1.0  0.57807  0.08084  0.04478  1.0000
  C   C1000     1.0  0.59001  0.10716  0.03389  1.0000
  H   H789      1.0  0.82785  0.30849  0.11815  1.0000
  C   C1001     1.0  0.57722  0.05713  0.02272  1.0000
  H   H790      1.0  0.59075  0.12560  0.05046  1.0000
  H   H791      1.0  0.56803  0.03666  0.03083  1.0000
  C   C1002     1.0  0.73862  0.01424  0.36568  1.0000
  H   H792      1.0  0.85979  0.18690  0.48255  1.0000
  H   H793      1.0  0.69220  0.01161  0.35892  1.0000
  H   H794      1.0  0.73918  0.03776  0.36507  1.0000
  H   H795      1.0  0.66607  0.18902  0.10895  1.0000
  C   C1003     1.0  0.60075  0.10969  0.00134  1.0000
  H   H796      1.0  0.95300  0.23150  0.23716  1.0000
  C   C1004     1.0  0.70528  0.25420  0.42023  1.0000
  H   H797      1.0  0.73644  0.01425  0.29964  1.0000
  C   C1005     1.0  0.83148  0.14966  0.47831  1.0000
  C   C1006     1.0  0.66146  0.17496  0.37606  1.0000
  C   C1007     1.0  0.67646  0.14859  0.37546  1.0000
  C   C1008     1.0  0.69469  0.14108  0.40162  1.0000
  H   H798      1.0  0.85297  0.28618  0.44046  1.0000
  H   H799      1.0  0.80274  0.11291  0.48299  1.0000
  C   C1009     1.0  0.50812  0.19684  0.25677  1.0000
  C   C1010     1.0  0.78677  0.21279  0.21456  1.0000
  H   H800      1.0  0.64732  0.18057  0.35571  1.0000
  H   H801      1.0  0.67400  0.13390  0.35470  1.0000
  H   H802      1.0  0.70631  0.12059  0.40095  1.0000
  H   H803      1.0  0.56699  0.31772  0.15848  1.0000
  H   H804      1.0  0.65674  0.27371  0.27749  1.0000
  H   H805      1.0  0.79245  0.31007  0.39490  1.0000
  H   H806      1.0  0.78791  0.21747  0.18838  1.0000
  C   C1011     1.0  0.53382  0.21124  0.26536  1.0000
  C   C1012     1.0  0.56494  0.99670  0.16124  1.0000
  H   H807      1.0  0.89723  0.03475  0.22713  1.0000
  H   H808      1.0  0.56219  0.29226  0.33821  1.0000
  P   P35       1.0  0.51113  0.25468  0.34972  1.0000
  C   C1013     1.0  0.53495  0.22843  0.29382  1.0000
  H   H809      1.0  0.87493  0.31298  0.31606  1.0000
  C   C1014     1.0  0.81730  0.29323  0.16703  1.0000
  H   H810      1.0  0.95640  0.04647  0.15318  1.0000
  H   H811      1.0  0.68325  0.28938  0.17112  1.0000
  C   C1015     1.0  0.62667  0.29795  0.20264  1.0000
  S   S146      1.0  0.74710  0.31782  0.31410  1.0000
  H   H812      1.0  0.64448  0.25805  0.48089  1.0000
  H   H813      1.0  0.69510  0.00837  0.18695  1.0000
  H   H814      1.0  0.98058  0.19053  0.26161  1.0000
  C   C1016     1.0  0.62215  0.21101  0.25516  1.0000
  C   C1017     1.0  0.67288  0.18783  0.20433  1.0000
  C   C1018     1.0  0.52544  0.00368  0.23127  1.0000
  C   C1019     1.0  0.85734  0.31230  0.33379  1.0000
  C   C1020     1.0  0.54717  0.25560  0.36764  1.0000
  P   P36       1.0  0.68604  0.21091  0.46419  1.0000
  C   C1021     1.0  0.62581  0.00254  0.31480  1.0000
  C   C1022     1.0  0.60078  0.26128  0.40028  1.0000
  C   C1023     1.0  0.58173  0.23881  0.40892  1.0000
  C   C1024     1.0  0.55496  0.23602  0.39277  1.0000
  H   H815      1.0  0.55266  0.20949  0.24942  1.0000
  C   C1025     1.0  0.60997  0.20373  0.28572  1.0000
  C   C1026     1.0  0.64038  0.23544  0.25219  1.0000
  C   C1027     1.0  0.58541  0.27470  0.15942  1.0000
  H   H816      1.0  0.55479  0.24006  0.29952  1.0000
  C   C1028     1.0  0.76449  0.99860  0.36881  1.0000
  H   H817      1.0  0.60165  0.02806  0.24115  1.0000
  C   C1029     1.0  0.58560  0.99181  0.18610  1.0000
  C   C1030     1.0  0.69102  0.99466  0.23736  1.0000
  H   H818      1.0  0.63813  0.00944  0.33623  1.0000
  H   H819      1.0  0.97774  0.08589  0.12024  1.0000
  H   H820      1.0  0.73076  0.01854  0.45292  1.0000
  C   C1031     1.0  0.84776  0.17049  0.49594  1.0000
  C   C1032     1.0  0.62813  0.26844  0.19385  1.0000
  C   C1033     1.0  0.78472  0.25957  0.48807  1.0000
  C   C1034     1.0  0.77485  0.00315  0.45252  1.0000
  C   C1035     1.0  0.74486  1.00000  0.45663  1.0000
  H   H821      1.0  0.63072  0.99716  0.19981  1.0000
  H   H822      1.0  0.58739  0.22403  0.42873  1.0000
  H   H823      1.0  0.54024  0.21893  0.40044  1.0000
  H   H824      1.0  0.92641  0.15955  0.17207  1.0000
  C   C1036     1.0  0.56714  0.27723  0.35806  1.0000
  C   C1037     1.0  0.62215  0.01587  0.15241  1.0000
  H   H825      1.0  0.64174  0.30709  0.22043  1.0000
  H   H826      1.0  0.70201  0.23888  0.40042  1.0000
  C   C1038     1.0  0.90242  0.01692  0.21066  1.0000
  H   H827      1.0  0.52128  0.07546  0.00571  1.0000
  C   C1039     1.0  0.82747  0.28534  0.37284  1.0000
  C   C1040     1.0  0.85068  0.28635  0.35027  1.0000
  P   P37       1.0  0.81808  0.25213  0.39433  1.0000
  C   C1041     1.0  0.81297  0.26149  0.43732  1.0000
  C   C1042     1.0  0.78546  0.23601  0.37736  1.0000
  C   C1043     1.0  0.77747  0.20763  0.38645  1.0000
  C   C1044     1.0  0.75234  0.19489  0.37345  1.0000
  C   C1045     1.0  0.73499  0.21036  0.35130  1.0000
  C   C1046     1.0  0.74291  0.23855  0.34194  1.0000
  C   C1047     1.0  0.76818  0.25122  0.35473  1.0000
  C   C1048     1.0  0.78812  0.25242  0.45471  1.0000
  C   C1049     1.0  0.93093  0.01343  0.19932  1.0000
  H   H828      1.0  0.49182  0.18592  0.16441  1.0000
  C   C1050     1.0  0.72382  0.29983  0.19438  1.0000
  C   C1051     1.0  0.83385  0.27862  0.45356  1.0000
  C   C1052     1.0  0.84673  0.22554  0.38970  1.0000
  C   C1053     1.0  0.86599  0.21918  0.41559  1.0000
  C   C1054     1.0  0.88716  0.19763  0.41168  1.0000
  C   C1055     1.0  0.88915  0.18218  0.38206  1.0000
  C   C1056     1.0  0.87020  0.18850  0.35617  1.0000
  C   C1057     1.0  0.84913  0.21011  0.35992  1.0000
  H   H829      1.0  0.65258  0.21407  0.40325  1.0000
  H   H830      1.0  0.62107  0.26422  0.41352  1.0000
  H   H831      1.0  0.86362  0.26727  0.34515  1.0000
  H   H832      1.0  0.79085  0.19523  0.40334  1.0000
  H   H833      1.0  0.74672  0.17269  0.37989  1.0000
  H   H834      1.0  0.71574  0.20020  0.34098  1.0000
  H   H835      1.0  0.72969  0.25062  0.32458  1.0000
  H   H836      1.0  0.77420  0.27277  0.34672  1.0000
  H   H837      1.0  0.77127  0.24000  0.44266  1.0000
  C   C1058     1.0  0.71203  0.99937  0.36220  1.0000
  C   C1059     1.0  0.62148  0.31412  0.49521  1.0000
  H   H838      1.0  0.71933  0.31040  0.48986  1.0000
  H   H839      1.0  0.86421  0.22988  0.43921  1.0000
  H   H840      1.0  0.65611  0.23358  0.14098  1.0000
  H   H841      1.0  0.90478  0.16472  0.37948  1.0000
  H   H842      1.0  0.87129  0.17593  0.33355  1.0000
  H   H843      1.0  0.83420  0.21430  0.33991  1.0000
  C   C1060     1.0  0.81358  0.02720  0.12518  1.0000
  C   C1061     1.0  0.51034  0.23108  0.31407  1.0000
  C   C1062     1.0  0.63730  0.18470  0.49147  1.0000
  C   C1063     1.0  0.50744  0.31491  0.35795  1.0000
  C   C1064     1.0  0.77290  0.02816  0.16361  1.0000
  C   C1065     1.0  0.79074  0.04217  0.14031  1.0000
  P   P38       1.0  0.74490  0.04864  0.18462  1.0000
  C   C1066     1.0  0.71603  0.05970  0.15677  1.0000
  C   C1067     1.0  0.72888  0.02730  0.21743  1.0000
  C   C1068     1.0  0.70429  0.00986  0.21145  1.0000
  C   C1069     1.0  0.58436  0.30415  0.16784  1.0000
  H   H844      1.0  0.97455  0.28080  0.23555  1.0000
  C   C1070     1.0  0.72727  0.01314  0.27512  1.0000
  C   C1071     1.0  0.74058  0.02836  0.24940  1.0000
  C   C1072     1.0  0.68974  0.07042  0.16959  1.0000
  C   C1073     1.0  0.66728  0.07900  0.14852  1.0000
  C   C1074     1.0  0.67050  0.07633  0.11439  1.0000
  C   C1075     1.0  0.69628  0.06514  0.10133  1.0000
  C   C1076     1.0  0.71896  0.05684  0.12236  1.0000
  C   C1077     1.0  0.76219  0.07984  0.20377  1.0000
  C   C1078     1.0  0.79208  0.07931  0.21124  1.0000
  C   C1079     1.0  0.80503  0.10244  0.22821  1.0000
  C   C1080     1.0  0.78825  0.12603  0.23842  1.0000
  C   C1081     1.0  0.75856  0.12665  0.23135  1.0000
  C   C1082     1.0  0.74558  0.10374  0.21410  1.0000
  H   H845      1.0  0.82735  0.03815  0.10731  1.0000
  H   H846      1.0  0.81154  0.27354  0.21460  1.0000
  H   H847      1.0  0.83830  0.31326  0.25030  1.0000
  C   C1083     1.0  0.59347  0.28041  0.37485  1.0000
  H   H848      1.0  0.78724  0.06486  0.13423  1.0000
  P   P39       1.0  0.65517  0.24536  0.21249  1.0000
  C   C1084     1.0  0.74092  0.19318  0.48429  1.0000
  H   H849      1.0  0.51657  0.31148  0.38228  1.0000
  H   H850      1.0  0.94763  0.02847  0.20752  1.0000
  H   H851      1.0  0.75976  0.04120  0.25482  1.0000
  H   H852      1.0  0.68626  0.07178  0.19595  1.0000
  H   H853      1.0  0.64706  0.08716  0.15875  1.0000
  H   H854      1.0  0.65282  0.08261  0.09813  1.0000
  H   H855      1.0  0.69861  0.06284  0.07481  1.0000
  H   H856      1.0  0.73846  0.04800  0.11149  1.0000
  H   H857      1.0  0.80539  0.06071  0.20510  1.0000
  H   H858      1.0  0.82793  0.10167  0.23466  1.0000
  H   H859      1.0  0.79817  0.14331  0.25275  1.0000
  H   H860      1.0  0.74529  0.14432  0.24039  1.0000
  H   H861      1.0  0.72243  0.10441  0.21012  1.0000
  H   H862      1.0  0.87120  0.23053  0.14836  1.0000
  C   C1085     1.0  0.75976  0.20649  0.22875  1.0000
  C   C1086     1.0  0.85559  0.13880  0.17642  1.0000
  C   C1087     1.0  0.88542  0.13710  0.17028  1.0000
  C   C1088     1.0  0.90326  0.16105  0.17667  1.0000
  C   C1089     1.0  0.89141  0.18655  0.18983  1.0000
  C   C1090     1.0  0.86158  0.18819  0.19686  1.0000
  C   C1091     1.0  0.84364  0.16427  0.18957  1.0000
  P   P40       1.0  0.84688  0.22089  0.21511  1.0000
  C   C1092     1.0  0.87273  0.23329  0.24568  1.0000
  C   C1093     1.0  0.88212  0.26239  0.24646  1.0000
  C   C1094     1.0  0.90270  0.27140  0.26975  1.0000
  C   C1095     1.0  0.91429  0.25145  0.29215  1.0000
  C   C1096     1.0  0.90554  0.22235  0.29105  1.0000
  C   C1097     1.0  0.88488  0.21330  0.26792  1.0000
  C   C1098     1.0  0.81210  0.21279  0.23395  1.0000
  C   C1099     1.0  0.80995  0.20597  0.26762  1.0000
  C   C1100     1.0  0.78290  0.19983  0.28174  1.0000
  H   H863      1.0  0.84180  0.12022  0.17140  1.0000
  H   H864      1.0  0.89484  0.11718  0.16082  1.0000
  H   H865      1.0  0.82057  0.16498  0.19439  1.0000
  H   H866      1.0  0.53840  0.02256  0.22478  1.0000
  H   H867      1.0  0.87426  0.27804  0.22865  1.0000
  H   H868      1.0  0.91013  0.29375  0.26989  1.0000
  H   H869      1.0  0.93064  0.25834  0.30974  1.0000
  H   H870      1.0  0.91510  0.20662  0.30773  1.0000
  H   H871      1.0  0.87853  0.19059  0.26716  1.0000
  H   H872      1.0  0.82903  0.20488  0.28298  1.0000
  H   H873      1.0  0.78143  0.19418  0.30763  1.0000
  H   H874      1.0  0.59608  0.18472  0.28780  1.0000
  H   H875      1.0  0.60515  0.21608  0.33676  1.0000
  H   H876      1.0  0.90556  0.20490  0.19493  1.0000
  H   H877      1.0  0.56877  0.26532  0.14368  1.0000
  C   C1101     1.0  0.84118  0.24859  0.18421  1.0000
  H   H878      1.0  0.67528  0.18724  0.23086  1.0000
  C   C1102     1.0  0.85558  0.24746  0.15369  1.0000
  C   C1103     1.0  0.63525  0.23731  0.48808  1.0000
  H   H879      1.0  0.63580  0.26035  0.33119  1.0000
  H   H880      1.0  0.78394  0.02400  0.44526  1.0000
  H   H881      1.0  0.68016  0.14347  0.13757  1.0000
  C   C1104     1.0  0.71629  0.28179  0.41256  1.0000
  C   C1105     1.0  0.73480  0.27360  0.24458  1.0000
  H   H882      1.0  0.80326  0.31149  0.17256  1.0000
  C   C1106     1.0  0.88087  0.99705  0.20144  1.0000
  C   C1107     1.0  0.70425  0.26722  0.47816  1.0000
  C   C1108     1.0  0.61509  0.22135  0.31324  1.0000
  C   C1109     1.0  0.68920  0.26467  0.21614  1.0000
  C   C1110     1.0  0.60137  0.02118  0.12805  1.0000
  C   C1111     1.0  0.72138  0.30201  0.43764  1.0000
  C   C1112     1.0  0.61435  0.00113  0.18126  1.0000
  H   H883      1.0  0.74035  0.20641  0.21361  1.0000
  C   C1113     1.0  0.68345  0.18679  0.42902  1.0000
  C   C1114     1.0  0.75781  0.20023  0.26242  1.0000
  S   S147      1.0  0.66639  0.31834  0.34342  1.0000
  H   H884      1.0  0.76269  0.30620  0.22302  1.0000
  H   H885      1.0  0.60651  0.23380  0.16709  1.0000
  C   C1115     1.0  0.69801  0.15993  0.42847  1.0000
  H   H886      1.0  0.55994  0.31259  0.24074  1.0000
  H   H887      1.0  0.60717  0.03310  0.10590  1.0000
  C   C1116     1.0  0.83038  0.28575  0.48690  1.0000
  H   H888      1.0  0.60363  0.30307  0.48318  1.0000
  C   C1117     1.0  0.97551  0.04195  0.13864  1.0000
  C   C1118     1.0  0.74244  0.29429  0.22082  1.0000
  H   H889      1.0  0.68483  0.14281  0.19856  1.0000
  H   H890      1.0  0.61702  0.19773  0.23380  1.0000
  H   H891      1.0  0.86219  0.26823  0.10664  1.0000
  H   H892      1.0  0.71173  0.15313  0.44868  1.0000
  C   C1119     1.0  0.60699  0.25682  0.17267  1.0000
  H   H893      1.0  0.70289  0.24265  0.26075  1.0000
  C   C1120     1.0  0.82224  0.27182  0.19086  1.0000
  C   C1121     1.0  0.85047  0.26884  0.12985  1.0000
  C   C1122     1.0  0.64451  0.25361  0.27966  1.0000
  C   C1123     1.0  0.83116  0.29156  0.13638  1.0000
  C   C1124     1.0  0.71557  0.29464  0.47044  1.0000
  C   C1125     1.0  0.69736  0.28495  0.19188  1.0000
  H   H894      1.0  0.72073  0.28764  0.38709  1.0000
  C   C1126     1.0  0.66213  0.21387  0.15387  1.0000
  C   C1127     1.0  0.70834  0.25871  0.24221  1.0000
  H   H895      1.0  0.74931  0.26938  0.26509  1.0000
  C   C1128     1.0  0.66358  0.21332  0.18848  1.0000
  C   C1129     1.0  0.66805  0.18872  0.13560  1.0000
  C   C1130     1.0  0.67607  0.16307  0.15170  1.0000
  H   H896      1.0  0.90120  0.19197  0.43213  1.0000
  C   C1131     1.0  0.60559  0.01261  0.26083  1.0000
  C   C1132     1.0  0.81091  0.31054  0.37828  1.0000
  C   C1133     1.0  0.65029  0.21123  0.48250  1.0000
  H   H897      1.0  0.74736  0.19603  0.45877  1.0000
  C   C1134     1.0  0.97415  0.23536  0.24816  1.0000
  C   C1135     1.0  0.49612  0.00749  0.23929  1.0000
  C   C1136     1.0  0.77852  0.99901  0.17182  1.0000
  C   C1137     1.0  0.50188  0.29120  0.33691  1.0000
  C   C1138     1.0  0.81896  0.99820  0.13334  1.0000
  H   H898      1.0  0.55666  0.01601  0.11364  1.0000
  C   C1139     1.0  0.49037  0.20863  0.17106  1.0000
  H   H899      1.0  0.49357  0.19551  0.36870  1.0000
  H   H900      1.0  0.60807  0.29809  0.36844  1.0000
  C   C1140     1.0  0.57282  0.01149  0.13241  1.0000
  C   C1141     1.0  0.81570  0.12882  0.49609  1.0000
  H   H901      1.0  0.50728  0.18364  0.23461  1.0000
  C   C1142     1.0  0.71209  0.19802  0.49411  1.0000
  H   H902      1.0  0.78383  0.18060  0.49949  1.0000
  C   C1143     1.0  0.60503  0.31576  0.18942  1.0000
  C   C1144     1.0  0.93801  0.99045  0.17797  1.0000
  C   C1145     1.0  0.70227  0.99664  0.26929  1.0000
  C   C1146     1.0  0.49111  0.29649  0.30504  1.0000
  H   H903      1.0  0.72982  0.31585  0.17596  1.0000
  H   H904      1.0  0.85895  0.99944  0.21081  1.0000
  H   H905      1.0  0.54271  0.98929  0.16406  1.0000
  H   H906      1.0  0.84677  0.29867  0.49937  1.0000
  C   C1147     1.0  0.98757  0.06450  0.11985  1.0000
  S   S148      1.0  0.98701  0.08070  0.21921  1.0000
  C   C1148     1.0  0.98632  0.26322  0.24730  1.0000
  H   H907      1.0  0.96158  0.18857  0.74888  1.0000
  Fe  Fe74      1.0  0.62451  0.26494  0.69079  1.0000
  S   S149      1.0  0.59310  0.29094  0.72144  1.0000
  S   S150      1.0  0.64917  0.22498  0.70971  1.0000
  Fe  Fe75      1.0  0.56963  0.29614  0.67302  1.0000
  S   S151      1.0  0.52063  0.29313  0.67186  1.0000
  S   S152      1.0  0.59989  0.26817  0.64274  1.0000
  Fe  Fe76      1.0  0.60624  0.01552  0.83839  1.0000
  S   S153      1.0  0.63536  0.03631  0.80059  1.0000
  C   C1149     1.0  0.84009  0.15273  0.80800  1.0000
  Fe  Fe77      1.0  0.61799  0.06380  0.89081  1.0000
  S   S154      1.0  0.64843  0.08683  0.85571  1.0000
  S   S155      1.0  0.61305  0.09111  0.93822  1.0000
  Fe  Fe78      1.0  0.61537  0.07899  0.81615  1.0000
  S   S156      1.0  0.59526  0.11301  0.78158  1.0000
  Fe  Fe79      1.0  0.66560  0.04233  0.84372  1.0000
  S   S157      1.0  0.71428  0.03651  0.84038  1.0000
  S   S158      1.0  0.58379  0.05780  0.85151  1.0000
  S   S159      1.0  0.63773  0.01961  0.88114  1.0000
  Fe  Fe80      1.0  0.91385  0.16698  0.67130  1.0000
  S   S160      1.0  0.88064  0.20016  0.65495  1.0000
  S   S161      1.0  0.96300  0.16951  0.66955  1.0000
  Fe  Fe81      1.0  0.86914  0.12368  0.69720  1.0000
  S   S162      1.0  0.83277  0.15406  0.68384  1.0000
  S   S163      1.0  0.85782  0.07717  0.71267  1.0000
  Fe  Fe82      1.0  0.85577  0.16112  0.63534  1.0000
  S   S164      1.0  0.82445  0.15553  0.59160  1.0000
  Fe  Fe83      1.0  0.85993  0.19066  0.70424  1.0000
  S   S165      1.0  0.83772  0.22297  0.73951  1.0000
  S   S166      1.0  0.89079  0.12899  0.64786  1.0000
  S   S167      1.0  0.89456  0.15943  0.72165  1.0000
  C   C1150     1.0  0.86866  0.05433  0.74581  1.0000
  C   C1151     1.0  0.85797  0.02564  0.74687  1.0000
  C   C1152     1.0  0.86671  0.00618  0.77185  1.0000
  C   C1153     1.0  0.88628  0.01524  0.79617  1.0000
  C   C1154     1.0  0.89640  0.04411  0.79561  1.0000
  C   C1155     1.0  0.88777  0.06360  0.77053  1.0000
  H   H908      1.0  0.84302  0.01830  0.72801  1.0000
  H   H909      1.0  0.91089  0.05132  0.81484  1.0000
  H   H910      1.0  0.89617  0.08557  0.76996  1.0000
  C   C1156     1.0  0.84850  0.25945  0.74841  1.0000
  C   C1157     1.0  0.86749  0.27499  0.72794  1.0000
  H   H911      1.0  0.54202  0.18242  0.92091  1.0000
  H   H912      1.0  0.76981  0.17206  0.55774  1.0000
  C   C1158     1.0  0.84509  0.30229  0.78452  1.0000
  C   C1159     1.0  0.83731  0.27333  0.77668  1.0000
  H   H913      1.0  0.87616  0.26475  0.70602  1.0000
  C   C1160     1.0  0.51783  0.15663  0.88588  1.0000
  C   C1161     1.0  0.74577  0.19850  0.66620  1.0000
  H   H914      1.0  0.82276  0.26154  0.79284  1.0000
  C   C1162     1.0  0.84789  0.17090  0.53079  1.0000
  C   C1163     1.0  0.83119  0.15082  0.54859  1.0000
  C   C1164     1.0  0.81520  0.12974  0.53097  1.0000
  H   H915      1.0  0.73615  0.11723  0.69096  1.0000
  H   H916      1.0  0.85976  0.18765  0.54384  1.0000
  H   H917      1.0  0.80170  0.11448  0.54438  1.0000
  C   C1165     1.0  0.80589  0.27613  0.50420  1.0000
  H   H918      1.0  0.64671  0.31630  0.77449  1.0000
  H   H919      1.0  0.77348  0.01800  0.83771  1.0000
  H   H920      1.0  0.83087  0.04745  0.81180  1.0000
  C   C1166     1.0  0.50513  0.19926  0.76716  1.0000
  H   H921      1.0  0.96569  0.27489  0.64933  1.0000
  C   C1167     1.0  0.94332  0.25676  0.80195  1.0000
  H   H922      1.0  0.54146  0.15265  0.81734  1.0000
  C   C1168     1.0  0.51135  0.20553  0.68170  1.0000
  C   C1169     1.0  0.52371  0.23340  0.67832  1.0000
  H   H923      1.0  0.51908  0.12839  0.72208  1.0000
  H   H924      1.0  0.51766  0.08234  0.88430  1.0000
  C   C1170     1.0  0.96418  0.22855  0.65773  1.0000
  H   H925      1.0  0.52528  0.18662  0.68272  1.0000
  H   H926      1.0  0.54705  0.23584  0.67666  1.0000
  H   H927      1.0  0.94213  0.08988  0.66683  1.0000
  H   H928      1.0  0.94213  0.22621  0.64894  1.0000
  C   C1171     1.0  0.63357  0.19455  0.73052  1.0000
  C   C1172     1.0  0.65164  0.17617  0.74922  1.0000
  C   C1173     1.0  0.64044  0.15107  0.76491  1.0000
  C   C1174     1.0  0.61095  0.14398  0.76195  1.0000
  C   C1175     1.0  0.59293  0.16233  0.74317  1.0000
  C   C1176     1.0  0.60404  0.18761  0.72786  1.0000
  H   H929      1.0  0.67437  0.18153  0.75182  1.0000
  H   H930      1.0  0.65454  0.13724  0.77933  1.0000
  H   H931      1.0  0.57021  0.15684  0.74024  1.0000
  H   H932      1.0  0.58985  0.20132  0.71335  1.0000
  C   C1177     1.0  0.77028  0.07178  0.79120  1.0000
  C   C1178     1.0  0.76163  0.18421  0.50726  1.0000
  H   H933      1.0  0.65442  0.26294  0.56651  1.0000
  H   H934      1.0  0.91236  0.16869  0.80561  1.0000
  H   H935      1.0  0.66982  0.27699  0.74218  1.0000
  C   C1179     1.0  0.58786  0.05971  0.99011  1.0000
  C   C1180     1.0  0.97933  0.20421  0.66904  1.0000
  H   H936      1.0  0.98388  0.00049  0.84696  1.0000
  H   H937      1.0  0.55012  0.19436  0.78006  1.0000
  C   C1181     1.0  0.86852  0.11309  0.83047  1.0000
  C   C1182     1.0  0.98088  0.17649  0.75549  1.0000
  C   C1183     1.0  0.51840  0.03356  0.80247  1.0000
  H   H938      1.0  0.96851  0.03771  0.76972  1.0000
  H   H939      1.0  0.77689  0.23501  0.71707  1.0000
  H   H940      1.0  0.66293  0.26934  0.86390  1.0000
  C   C1184     1.0  0.51095  0.12842  0.87493  1.0000
  H   H941      1.0  0.95926  0.13527  0.75288  1.0000
  C   C1185     1.0  0.73902  0.13985  0.68425  1.0000
  H   H942      1.0  0.63488  0.14032  0.90078  1.0000
  H   H943      1.0  0.80523  0.26116  0.67362  1.0000
  C   C1186     1.0  0.81284  0.23420  0.58333  1.0000
  H   H944      1.0  0.71286  0.12429  0.88169  1.0000
  C   C1187     1.0  0.75375  0.17965  0.54015  1.0000
  H   H945      1.0  0.71929  0.18195  0.57603  1.0000
  C   C1188     1.0  0.76039  0.99896  0.84201  1.0000
  C   C1189     1.0  0.60787  0.23676  0.50320  1.0000
  C   C1190     1.0  0.75758  0.06224  0.76185  1.0000
  C   C1191     1.0  0.59527  0.21032  0.51249  1.0000
  H   H946      1.0  0.64834  0.22480  0.60934  1.0000
  C   C1192     1.0  0.72541  0.30169  0.71644  1.0000
  H   H947      1.0  0.92923  0.31719  0.81279  1.0000
  C   C1193     1.0  0.75384  0.11694  0.85754  1.0000
  C   C1194     1.0  0.73488  0.13224  0.87814  1.0000
  C   C1195     1.0  0.95935  0.27192  0.77791  1.0000
  C   C1196     1.0  0.73016  0.00167  0.84509  1.0000
  C   C1197     1.0  0.72579  0.19051  0.69087  1.0000
  H   H948      1.0  0.59105  0.14449  0.86577  1.0000
  H   H949      1.0  0.70631  0.15508  0.71792  1.0000
  H   H950      1.0  0.59636  0.25684  0.50795  1.0000
  H   H951      1.0  0.74152  0.31006  0.76541  1.0000
  C   C1198     1.0  0.76710  0.07340  0.73170  1.0000
  C   C1199     1.0  0.73322  0.24558  0.93726  1.0000
  C   C1200     1.0  0.95480  0.26571  0.74442  1.0000
  C   C1201     1.0  0.76101  0.27185  0.74424  1.0000
  H   H952      1.0  0.81989  0.11898  0.75893  1.0000
  H   H953      1.0  0.60682  0.30334  0.54465  1.0000
  C   C1202     1.0  0.70343  0.23977  0.93620  1.0000
  C   C1203     1.0  0.74446  0.15717  0.89459  1.0000
  C   C1204     1.0  0.78925  0.09420  0.73105  1.0000
  P   P41       1.0  0.80817  0.10463  0.82968  1.0000
  C   C1205     1.0  0.50583  0.25795  0.67683  1.0000
  C   C1206     1.0  0.50283  0.07285  0.98931  1.0000
  H   H954      1.0  0.83123  0.00235  0.90440  1.0000
  S   S168      1.0  0.89909  0.99126  0.82732  1.0000
  C   C1207     1.0  0.69209  0.22897  0.62758  1.0000
  C   C1208     1.0  0.66884  0.27548  0.76881  1.0000
  H   H955      1.0  0.95047  0.08034  0.80458  1.0000
  C   C1209     1.0  0.79217  0.15134  0.87015  1.0000
  C   C1210     1.0  0.72525  0.18507  0.55036  1.0000
  Fe  Fe84      1.0  0.62405  0.31028  0.63312  1.0000
  C   C1211     1.0  0.81597  0.07254  0.85374  1.0000
  H   H956      1.0  0.54689  0.09007  0.69283  1.0000
  H   H957      1.0  0.74187  0.27791  0.59896  1.0000
  H   H958      1.0  0.68844  0.21293  0.64667  1.0000
  S   S169      1.0  0.65111  0.30475  0.67893  1.0000
  C   C1212     1.0  0.49248  0.04503  0.98166  1.0000
  H   H959      1.0  0.70941  0.00419  0.77725  1.0000
  C   C1213     1.0  0.97661  0.07583  0.73959  1.0000
  C   C1214     1.0  0.51292  0.05776  0.69729  1.0000
  C   C1215     1.0  0.65576  0.29761  0.78704  1.0000
  C   C1216     1.0  0.97465  0.31591  0.82745  1.0000
  H   H960      1.0  0.66724  0.22680  0.90634  1.0000
  C   C1217     1.0  0.83341  0.25653  0.63211  1.0000
  C   C1218     1.0  0.81108  0.07210  0.88799  1.0000
  C   C1219     1.0  0.54090  0.10852  0.91882  1.0000
  H   H961      1.0  0.69422  0.15385  0.82026  1.0000
  C   C1220     1.0  0.53128  0.05879  0.79005  1.0000
  H   H962      1.0  0.79748  0.10201  0.70760  1.0000
  C   C1221     1.0  0.66514  0.27091  0.83740  1.0000
  C   C1222     1.0  0.96866  0.07914  0.82138  1.0000
  C   C1223     1.0  0.80667  0.25394  0.64829  1.0000
  C   C1224     1.0  0.71889  0.24347  0.62459  1.0000
  C   C1225     1.0  0.82727  0.02205  0.89045  1.0000
  C   C1226     1.0  0.50463  0.99900  0.91319  1.0000
  H   H963      1.0  0.57416  0.21004  0.52444  1.0000
  C   C1227     1.0  0.81662  0.04687  0.90621  1.0000
  C   C1228     1.0  0.53640  0.16065  0.91286  1.0000
  C   C1229     1.0  0.50985  0.10681  0.71898  1.0000
  H   H964      1.0  0.69959  0.26197  0.50369  1.0000
  H   H965      1.0  0.74319  0.25302  0.96000  1.0000
  C   C1230     1.0  0.91698  0.23133  0.75915  1.0000
  C   C1231     1.0  0.66912  0.23566  0.60635  1.0000
  C   C1232     1.0  0.72194  0.26547  0.60074  1.0000
  H   H966      1.0  0.77861  0.18204  0.63247  1.0000
  H   H967      1.0  0.58689  0.04132  0.97346  1.0000
  C   C1233     1.0  0.79217  0.09304  0.79099  1.0000
  C   C1234     1.0  0.74548  0.25934  0.68871  1.0000
  H   H968      1.0  0.87027  0.09159  0.84114  1.0000
  H   H969      1.0  0.81454  0.15850  0.86865  1.0000
  H   H970      1.0  0.76797  0.22199  0.58647  1.0000
  H   H971      1.0  0.70100  0.28956  0.56175  1.0000
  H   H972      1.0  0.71350  0.28844  0.66758  1.0000
  C   C1235     1.0  0.80197  0.10383  0.76049  1.0000
  C   C1236     1.0  0.76270  0.17680  0.65117  1.0000
  C   C1237     1.0  0.72225  0.16125  0.69954  1.0000
  H   H973      1.0  0.55003  0.05736  0.77388  1.0000
  H   H974      1.0  0.52752  0.01260  0.79629  1.0000
  H   H975      1.0  0.55003  0.08986  0.93143  1.0000
  C   C1238     1.0  0.97983  0.14614  0.75713  1.0000
  H   H976      1.0  0.56284  0.13955  0.94977  1.0000
  C   C1239     1.0  0.69892  0.27204  0.57949  1.0000
  C   C1240     1.0  0.84133  0.12483  0.82210  1.0000
  H   H977      1.0  0.92980  0.01835  0.73359  1.0000
  H   H978      1.0  0.74069  0.04580  0.76264  1.0000
  C   C1241     1.0  0.94131  0.03806  0.72674  1.0000
  C   C1242     1.0  0.93352  0.24556  0.73515  1.0000
  C   C1243     1.0  0.89256  0.15663  0.81055  1.0000
  C   C1244     1.0  0.96369  0.07300  0.85476  1.0000
  C   C1245     1.0  0.93354  0.05286  0.69796  1.0000
  C   C1246     1.0  0.77311  0.16666  0.89064  1.0000
  C   C1247     1.0  0.82695  0.04763  0.83818  1.0000
  H   H979      1.0  0.78081  0.18553  0.90405  1.0000
  H   H980      1.0  0.71234  0.20677  0.70280  1.0000
  C   C1248     1.0  0.83252  0.02251  0.85652  1.0000
  C   C1249     1.0  0.89401  0.12896  0.82466  1.0000
  C   C1250     1.0  0.96293  0.04936  0.74740  1.0000
  C   C1251     1.0  0.75935  0.14765  0.66021  1.0000
  P   P42       1.0  0.98660  0.29786  0.79034  1.0000
  H   H981      1.0  0.85196  0.26552  0.64511  1.0000
  H   H982      1.0  0.74596  0.09723  0.84610  1.0000
  H   H983      1.0  0.81940  0.16216  0.80112  1.0000
  C   C1252     1.0  0.78260  0.12656  0.85290  1.0000
  P   P43       1.0  0.74830  0.23602  0.65297  1.0000
  H   H984      1.0  0.52514  0.04143  0.68398  1.0000
  C   C1253     1.0  0.69049  0.23054  0.90676  1.0000
  H   H985      1.0  0.68274  0.19903  0.53621  1.0000
  H   H986      1.0  0.80275  0.09102  0.90070  1.0000
  H   H987      1.0  0.81239  0.04639  0.93249  1.0000
  C   C1254     1.0  0.72690  0.28353  0.68876  1.0000
  C   C1255     1.0  0.67834  0.24851  0.81920  1.0000
  C   C1256     1.0  0.67971  0.25081  0.78467  1.0000
  P   P44       1.0  0.69008  0.21575  0.83983  1.0000
  C   C1257     1.0  0.70734  0.22663  0.87812  1.0000
  C   C1258     1.0  0.65839  0.19366  0.84844  1.0000
  C   C1259     1.0  0.65885  0.17327  0.87427  1.0000
  C   C1260     1.0  0.63439  0.15616  0.88095  1.0000
  C   C1261     1.0  0.60955  0.15865  0.86137  1.0000
  C   C1262     1.0  0.60898  0.17874  0.83552  1.0000
  C   C1263     1.0  0.63324  0.19624  0.82905  1.0000
  C   C1264     1.0  0.73729  0.23264  0.87946  1.0000
  C   C1265     1.0  0.75011  0.24212  0.90888  1.0000
  H   H988      1.0  0.77263  0.13115  0.64842  1.0000
  C   C1266     1.0  0.76228  0.25346  0.71679  1.0000
  H   H989      1.0  0.77459  0.26756  0.76547  1.0000
  C   C1267     1.0  0.71534  0.19581  0.81401  1.0000
  C   C1268     1.0  0.73839  0.21039  0.79826  1.0000
  C   C1269     1.0  0.75806  0.19507  0.77853  1.0000
  C   C1270     1.0  0.75438  0.16526  0.77351  1.0000
  C   C1271     1.0  0.73130  0.15060  0.78859  1.0000
  C   C1272     1.0  0.71192  0.16575  0.80891  1.0000
  H   H990      1.0  0.94706  0.26056  0.82797  1.0000
  H   H991      1.0  0.91490  0.11965  0.83085  1.0000
  H   H992      1.0  0.86442  0.18996  0.79131  1.0000
  H   H993      1.0  0.76343  0.06205  0.81409  1.0000
  H   H994      1.0  0.68841  0.23339  0.76967  1.0000
  H   H995      1.0  0.67813  0.17039  0.88913  1.0000
  C   C1273     1.0  0.86560  0.16856  0.80240  1.0000
  H   H996      1.0  0.59008  0.18006  0.81972  1.0000
  H   H997      1.0  0.63248  0.21112  0.80834  1.0000
  H   H998      1.0  0.75097  0.23019  0.85802  1.0000
  H   H999      1.0  0.83638  0.31260  0.80639  1.0000
  H   H1000     1.0  0.72988  0.16878  0.91092  1.0000
  H   H1001     1.0  0.75786  0.06542  0.70884  1.0000
  H   H1002     1.0  0.74108  0.23366  0.80110  1.0000
  H   H1003     1.0  0.77612  0.20626  0.76686  1.0000
  H   H1004     1.0  0.76921  0.15369  0.75746  1.0000
  H   H1005     1.0  0.72840  0.12744  0.78455  1.0000
  C   C1274     1.0  0.52103  0.08605  0.79976  1.0000
  H   H1006     1.0  0.85763  0.24734  0.58777  1.0000
  C   C1275     1.0  0.78597  0.23205  0.59925  1.0000
  H   H1007     1.0  0.53219  0.10517  0.79076  1.0000
  C   C1276     1.0  0.83659  0.24641  0.59977  1.0000
  H   H1008     1.0  0.81552  0.22541  0.55867  1.0000
  C   C1277     1.0  0.74254  0.29591  0.74411  1.0000
  C   C1278     1.0  0.59973  0.08605  0.97920  1.0000
  C   C1279     1.0  0.54804  0.13659  0.92921  1.0000
  C   C1280     1.0  0.52243  0.10438  0.89189  1.0000
  C   C1281     1.0  0.78269  0.24152  0.63201  1.0000
  H   H1009     1.0  0.69026  0.24270  0.95815  1.0000
  H   H1010     1.0  0.51412  0.01657  0.92730  1.0000
  C   C1282     1.0  0.60992  0.18428  0.50648  1.0000
  C   C1283     1.0  0.52824  0.18627  0.78384  1.0000
  C   C1284     1.0  0.92192  0.23683  0.79254  1.0000
  H   H1011     1.0  0.80328  0.28155  0.53007  1.0000
  C   C1285     1.0  0.52534  0.08527  0.70221  1.0000
  H   H1012     1.0  0.49754  0.11888  0.98201  1.0000
  C   C1286     1.0  0.94805  0.07846  0.68923  1.0000
  H   H1013     1.0  0.91594  0.04474  0.68269  1.0000
  C   C1287     1.0  0.62319  0.31431  0.53002  1.0000
  H   H1014     1.0  0.77318  0.24696  0.90962  1.0000
  H   H1015     1.0  0.64339  0.31242  0.83538  1.0000
  H   H1016     1.0  0.84036  0.00311  0.84430  1.0000
  C   C1288     1.0  0.70451  0.19449  0.52753  1.0000
  C   C1289     1.0  0.97759  0.25605  0.65783  1.0000
  P   P45       1.0  0.48804  0.12321  0.83911  1.0000
  C   C1290     1.0  0.52319  0.16272  0.80496  1.0000
  C   C1291     1.0  0.87549  0.30383  0.73593  1.0000
  H   H1017     1.0  0.94184  0.06858  0.86347  1.0000
  C   C1292     1.0  0.67256  0.25709  0.58223  1.0000
  C   C1293     1.0  0.49477  0.15227  0.80993  1.0000
  C   C1294     1.0  0.65390  0.29535  0.82135  1.0000
  H   H1018     1.0  0.60015  0.16376  0.51370  1.0000
  H   H1019     1.0  0.90005  0.21635  0.75177  1.0000
  H   H1020     1.0  0.90889  0.22597  0.81110  1.0000
  H   H1021     1.0  0.89045  0.31544  0.72006  1.0000
  H   H1022     1.0  0.50345  0.02629  0.99200  1.0000
  H   H1023     1.0  0.60986  0.13019  0.99320  1.0000
  H   H1024     1.0  0.50909  0.17551  0.87340  1.0000
  C   C1295     1.0  0.49755  0.08830  0.82172  1.0000
  C   C1296     1.0  0.49447  0.03549  0.82362  1.0000
  H   H1025     1.0  0.92941  0.24126  0.70934  1.0000
  H   H1026     1.0  0.52591  0.98961  0.70759  1.0000
  H   H1027     1.0  0.50911  0.21733  0.75054  1.0000
  C   C1297     1.0  0.48938  0.09737  0.97601  1.0000
  C   C1298     1.0  0.96976  0.08973  0.70970  1.0000
  H   H1028     1.0  0.98074  0.10957  0.70231  1.0000
  C   C1299     1.0  0.86434  0.31771  0.76422  1.0000
  H   H1029     1.0  0.96755  0.27650  0.72550  1.0000
  H   H1030     1.0  0.71088  0.32023  0.71647  1.0000
  H   H1031     1.0  0.54425  0.99185  0.88580  1.0000
  H   H1032     1.0  0.76567  0.25221  0.50143  1.0000
  C   C1300     1.0  0.98695  0.07253  0.87696  1.0000
  H   H1033     1.0  0.98321  0.06775  0.90284  1.0000
  Fe  Fe85      1.0  0.66174  0.34737  0.38787  1.0000
  S   S170      1.0  0.63554  0.38065  0.35988  1.0000
  C   C1301     1.0  0.92282  0.64981  0.34123  1.0000
  Fe  Fe86      1.0  0.70716  0.34305  0.33102  1.0000
  S   S171      1.0  0.68320  0.37482  0.29912  1.0000
  H   H1034     1.0  0.65830  0.42120  0.23576  1.0000
  Fe  Fe87      1.0  0.67917  0.40010  0.34651  1.0000
  S   S172      1.0  0.68648  0.44876  0.34344  1.0000
  Fe  Fe88      1.0  0.64185  0.35249  0.31522  1.0000
  H   H1035     1.0  0.52402  0.57964  0.09940  1.0000
  S   S173      1.0  0.70502  0.36916  0.37808  1.0000
  Fe  Fe89      1.0  0.91597  0.36794  0.13083  1.0000
  S   S174      1.0  0.90272  0.39527  0.08595  1.0000
  Fe  Fe90      1.0  0.95728  0.36951  0.19167  1.0000
  C   C1302     1.0  0.63813  0.42473  0.22275  1.0000
  C   C1303     1.0  0.74213  0.45459  0.20063  1.0000
  Fe  Fe91      1.0  0.89095  0.35833  0.20128  1.0000
  S   S175      1.0  0.85076  0.37361  0.22989  1.0000
  S   S176      1.0  0.95825  0.34553  0.14302  1.0000
  S   S177      1.0  0.91702  0.39427  0.17770  1.0000
  C   C1304     1.0  0.89779  0.38740  0.04333  1.0000
  C   C1305     1.0  0.88661  0.40926  0.02261  1.0000
  H   H1036     1.0  0.95394  0.50253  0.30763  1.0000
  C   C1306     1.0  0.90565  0.36071  0.02940  1.0000
  H   H1037     1.0  0.88028  0.42991  0.03318  1.0000
  H   H1038     1.0  0.91421  0.34366  0.04500  1.0000
  C   C1307     1.0  0.72166  0.46286  0.35077  1.0000
  C   C1308     1.0  0.72772  0.49197  0.34281  1.0000
  C   C1309     1.0  0.77070  0.45815  0.37244  1.0000
  C   C1310     1.0  0.74341  0.44587  0.36517  1.0000
  H   H1039     1.0  0.78734  0.44494  0.38382  1.0000
  H   H1040     1.0  0.73910  0.42339  0.37120  1.0000
  C   C1311     1.0  0.52290  0.37680  0.24188  1.0000
  C   C1312     1.0  0.54121  0.39206  0.26368  1.0000
  C   C1313     1.0  0.56628  0.37890  0.27705  1.0000
  C   C1314     1.0  0.57356  0.35038  0.26835  1.0000
  H   H1041     1.0  0.77684  0.61173  0.21123  1.0000
  C   C1315     1.0  0.52970  0.34795  0.23401  1.0000
  H   H1042     1.0  0.53605  0.41428  0.26998  1.0000
  H   H1043     1.0  0.58033  0.39095  0.29353  1.0000
  H   H1044     1.0  0.65535  0.56793  0.13703  1.0000
  H   H1045     1.0  0.58518  0.54671  0.26086  1.0000
  C   C1316     1.0  0.66518  0.34306  0.49145  1.0000
  C   C1317     1.0  0.77669  0.36317  0.28353  1.0000
  C   C1318     1.0  0.79988  0.37488  0.26504  1.0000
  C   C1319     1.0  0.82213  0.35702  0.25265  1.0000
  H   H1046     1.0  0.56698  0.62271  0.40172  1.0000
  H   H1047     1.0  0.75971  0.37726  0.29275  1.0000
  H   H1048     1.0  0.80064  0.39800  0.26028  1.0000
  H   H1049     1.0  0.95413  0.49568  0.03055  1.0000
  H   H1050     1.0  0.96882  0.55567  0.29843  1.0000
  Fe  Fe92      1.0  0.57565  0.59441  0.13897  1.0000
  S   S178      1.0  0.60516  0.63144  0.15281  1.0000
  S   S179      1.0  0.58469  0.56637  0.09292  1.0000
  Fe  Fe93      1.0  0.54759  0.59476  0.20893  1.0000
  S   S180      1.0  0.57617  0.63109  0.22735  1.0000
  S   S181      1.0  0.51656  0.57039  0.24314  1.0000
  H   H1051     1.0  0.59978  0.47535  0.17932  1.0000
  Fe  Fe94      1.0  0.61291  0.60864  0.20106  1.0000
  S   S182      1.0  0.66021  0.59979  0.21507  1.0000
  S   S183      1.0  0.53537  0.61556  0.16053  1.0000
  S   S184      1.0  0.58514  0.57051  0.18632  1.0000
  Fe  Fe95      1.0  0.83716  0.60660  0.39865  1.0000
  S   S185      1.0  0.86069  0.57214  0.36944  1.0000
  S   S186      1.0  0.86460  0.62535  0.44089  1.0000
  Fe  Fe96      1.0  0.78534  0.60573  0.34964  1.0000
  S   S187      1.0  0.80588  0.57195  0.31719  1.0000
  S   S188      1.0  0.73952  0.62354  0.34171  1.0000
  Fe  Fe97      1.0  0.81697  0.55029  0.36518  1.0000
  S   S189      1.0  0.81100  0.50221  0.37479  1.0000
  Fe  Fe98      1.0  0.84782  0.59695  0.32425  1.0000
  S   S190      1.0  0.87720  0.60970  0.28093  1.0000
  S   S191      1.0  0.79440  0.58262  0.39776  1.0000
  S   S192      1.0  0.82629  0.63284  0.35334  1.0000
  H   H1052     1.0  0.64355  0.62897  0.37155  1.0000
  H   H1053     1.0  0.57658  0.38740  0.20287  1.0000
  C   C1320     1.0  0.97191  0.42499  0.06074  1.0000
  H   H1054     1.0  0.93514  0.54603  0.21580  1.0000
  C   C1321     1.0  0.91425  0.60066  0.27347  1.0000
  C   C1322     1.0  0.92909  0.58013  0.29255  1.0000
  C   C1323     1.0  0.95780  0.57218  0.28425  1.0000
  C   C1324     1.0  0.97223  0.58491  0.25723  1.0000
  C   C1325     1.0  0.95785  0.60633  0.23900  1.0000
  C   C1326     1.0  0.92897  0.61399  0.24697  1.0000
  H   H1055     1.0  0.91812  0.56978  0.31308  1.0000
  S   S193      1.0  0.49301  0.39524  0.22360  1.0000
  H   H1056     1.0  0.96860  0.61634  0.21810  1.0000
  H   H1057     1.0  0.91784  0.63006  0.23215  1.0000
  C   C1327     1.0  0.68161  0.60663  0.25067  1.0000
  C   C1328     1.0  0.63200  0.64697  0.36041  1.0000
  H   H1058     1.0  0.52715  0.53778  0.06197  1.0000
  C   C1329     1.0  0.71768  0.61630  0.30641  1.0000
  C   C1330     1.0  0.72766  0.59949  0.28000  1.0000
  C   C1331     1.0  0.70977  0.59484  0.25225  1.0000
  H   H1059     1.0  0.74926  0.59031  0.28078  1.0000
  H   H1060     1.0  0.71779  0.58193  0.23186  1.0000
  C   C1332     1.0  0.58142  0.57179  0.04943  1.0000
  C   C1333     1.0  0.56098  0.59076  0.03562  1.0000
  S   S194      1.0  0.64070  0.32420  0.43202  1.0000
  C   C1334     1.0  0.59840  0.55465  0.02803  1.0000
  H   H1061     1.0  0.54779  0.60420  0.05157  1.0000
  H   H1062     1.0  0.61415  0.53977  0.03828  1.0000
  C   C1335     1.0  0.75498  0.50431  0.35020  1.0000
  C   C1336     1.0  0.77653  0.48745  0.36522  1.0000
  H   H1063     1.0  0.71112  0.50518  0.33131  1.0000
  H   H1064     1.0  0.75929  0.52685  0.34426  1.0000
  H   H1065     1.0  0.62329  0.38108  0.23258  1.0000
  H   H1066     1.0  0.67270  0.55570  0.29649  1.0000
  H   H1067     1.0  0.68699  0.58801  0.36152  1.0000
  C   C1337     1.0  0.85617  0.63177  0.48311  1.0000
  H   H1068     1.0  0.77690  0.58219  0.48221  1.0000
  C   C1338     1.0  0.65233  0.52819  0.10895  1.0000
  H   H1069     1.0  0.93431  0.53701  0.40352  1.0000
  H   H1070     1.0  0.59526  0.57762  0.40952  1.0000
  C   C1339     1.0  0.94710  0.52118  0.35557  1.0000
  H   H1071     1.0  0.71988  0.55374  0.38980  1.0000
  C   C1340     1.0  0.50214  0.49265  0.18978  1.0000
  C   C1341     1.0  0.65433  0.48354  0.14070  1.0000
  C   C1342     1.0  0.94779  0.39864  0.32471  1.0000
  H   H1072     1.0  0.80983  0.63154  0.47710  1.0000
  H   H1073     1.0  0.94240  0.35349  0.31161  1.0000
  C   C1343     1.0  0.84082  0.33727  0.33947  1.0000
  H   H1074     1.0  0.68152  0.35405  0.47681  1.0000
  H   H1075     1.0  0.53606  0.62881  0.35199  1.0000
  H   H1076     1.0  0.53750  0.41566  0.01760  1.0000
  C   C1344     1.0  0.50471  0.56689  0.09431  1.0000
  C   C1345     1.0  0.82755  0.63425  0.49432  1.0000
  H   H1077     1.0  0.52790  0.46746  0.22377  1.0000
  H   H1078     1.0  0.79915  0.53216  0.46862  1.0000
  C   C1346     1.0  0.55973  0.50050  0.45772  1.0000
  H   H1079     1.0  0.93434  0.63017  0.33452  1.0000
  C   C1347     1.0  0.93889  0.50476  0.32801  1.0000
  H   H1080     1.0  0.83853  0.53466  0.42786  1.0000
  C   C1348     1.0  0.64265  0.32806  0.47570  1.0000
  C   C1349     1.0  0.65540  0.54434  0.13794  1.0000
  C   C1350     1.0  0.63826  0.53350  0.37747  1.0000
  C   C1351     1.0  0.97563  0.50523  0.03001  1.0000
  C   C1352     1.0  0.90890  0.65170  0.37179  1.0000
  C   C1353     1.0  0.56961  0.51671  0.43069  1.0000
  H   H1081     1.0  0.53440  0.59016  0.30944  1.0000
  C   C1354     1.0  0.92810  0.52406  0.38230  1.0000
  S   S195      1.0  0.88782  0.33350  0.15385  1.0000
  C   C1355     1.0  0.77569  0.33336  0.29032  1.0000
  H   H1082     1.0  0.55963  0.45866  0.48178  1.0000
  C   C1356     1.0  0.61831  0.40169  0.22083  1.0000
  C   C1357     1.0  0.54852  0.60908  0.35539  1.0000
  H   H1083     1.0  0.60772  0.46331  0.39132  1.0000
  H   H1084     1.0  0.65008  0.63282  0.27605  1.0000
  H   H1085     1.0  0.54605  0.51063  0.47620  1.0000
  C   C1358     1.0  0.56730  0.47120  0.46084  1.0000
  C   C1359     1.0  0.90478  0.51519  0.10757  1.0000
  H   H1086     1.0  0.75832  0.45298  0.18126  1.0000
  H   H1087     1.0  0.81783  0.61170  0.25104  1.0000
  H   H1088     1.0  0.65386  0.45999  0.14141  1.0000
  C   C1360     1.0  0.60755  0.53935  0.26143  1.0000
  H   H1089     1.0  0.97794  0.44039  0.26415  1.0000
  H   H1090     1.0  0.51937  0.49456  0.17166  1.0000
  H   H1091     1.0  0.95041  0.43347  0.05573  1.0000
  C   C1361     1.0  0.81405  0.45173  0.30216  1.0000
  C   C1362     1.0  0.80117  0.47573  0.28699  1.0000
  C   C1363     1.0  0.81852  0.49713  0.27245  1.0000
  C   C1364     1.0  0.84879  0.49458  0.27305  1.0000
  C   C1365     1.0  0.86201  0.47048  0.28815  1.0000
  C   C1366     1.0  0.84432  0.44932  0.30325  1.0000
  P   P46       1.0  0.90119  0.46906  0.29212  1.0000
  C   C1367     1.0  0.91374  0.43237  0.29948  1.0000
  C   C1368     1.0  0.91759  0.48232  0.25437  1.0000
  C   C1369     1.0  0.92800  0.46289  0.23034  1.0000
  C   C1370     1.0  0.94113  0.47336  0.20156  1.0000
  C   C1371     1.0  0.94362  0.50328  0.19624  1.0000
  C   C1372     1.0  0.93307  0.52278  0.21980  1.0000
  C   C1373     1.0  0.92007  0.51236  0.24870  1.0000
  C   C1374     1.0  0.93753  0.42702  0.32034  1.0000
  H   H1092     1.0  0.94857  0.44467  0.33278  1.0000
  H   H1093     1.0  0.68493  0.46041  0.27059  1.0000
  C   C1375     1.0  0.91041  0.38058  0.28808  1.0000
  C   C1376     1.0  0.90049  0.40896  0.28321  1.0000
  C   C1377     1.0  0.91147  0.49133  0.32690  1.0000
  C   C1378     1.0  0.89263  0.49412  0.35398  1.0000
  C   C1379     1.0  0.90098  0.51032  0.38158  1.0000
  H   H1094     1.0  0.94003  0.43924  0.11852  1.0000
  C   C1380     1.0  0.54751  0.58725  0.33147  1.0000
  C   C1381     1.0  0.50638  0.54302  0.07302  1.0000
  H   H1095     1.0  0.80056  0.43546  0.31404  1.0000
  H   H1096     1.0  0.77777  0.47820  0.28740  1.0000
  H   H1097     1.0  0.80851  0.51609  0.26141  1.0000
  H   H1098     1.0  0.86169  0.51186  0.26239  1.0000
  H   H1099     1.0  0.85374  0.43128  0.31657  1.0000
  H   H1100     1.0  0.92635  0.43961  0.23367  1.0000
  H   H1101     1.0  0.94954  0.45814  0.18350  1.0000
  H   H1102     1.0  0.95383  0.51139  0.17397  1.0000
  H   H1103     1.0  0.56218  0.54537  0.31658  1.0000
  H   H1104     1.0  0.91190  0.52777  0.26661  1.0000
  H   H1105     1.0  0.58763  0.47400  0.02979  1.0000
  H   H1106     1.0  0.59037  0.43522  0.43907  1.0000
  H   H1107     1.0  0.96224  0.38368  0.03832  1.0000
  H   H1108     1.0  0.89978  0.36272  0.27546  1.0000
  H   H1109     1.0  0.88268  0.41281  0.26638  1.0000
  H   H1110     1.0  0.87141  0.48383  0.35395  1.0000
  H   H1111     1.0  0.88611  0.51242  0.40217  1.0000
  H   H1112     1.0  0.96646  0.39468  0.34035  1.0000
  C   C1382     1.0  0.56582  0.60554  0.38343  1.0000
  H   H1113     1.0  0.90956  0.63351  0.38880  1.0000
  H   H1114     1.0  0.54939  0.49789  0.34006  1.0000
  C   C1383     1.0  0.61282  0.64202  0.33426  1.0000
  H   H1115     1.0  0.54351  0.46192  0.29541  1.0000
  H   H1116     1.0  0.68205  0.64190  0.32460  1.0000
  C   C1384     1.0  0.65661  0.49970  0.17004  1.0000
  C   C1385     1.0  0.88863  0.49208  0.12059  1.0000
  C   C1386     1.0  0.82114  0.32716  0.25929  1.0000
  C   C1387     1.0  0.78109  0.63081  0.22620  1.0000
  H   H1117     1.0  0.48859  0.46328  0.26526  1.0000
  C   C1388     1.0  0.67152  0.62330  0.27716  1.0000
  C   C1389     1.0  0.71467  0.46612  0.19370  1.0000
  C   C1390     1.0  0.60514  0.45499  0.19132  1.0000
  C   C1391     1.0  0.58533  0.43192  0.18960  1.0000
  C   C1392     1.0  0.66576  0.52198  0.26051  1.0000
  H   H1118     1.0  0.76993  0.43588  0.23767  1.0000
  H   H1119     1.0  0.56296  0.53913  0.42876  1.0000
  C   C1393     1.0  0.93425  0.37541  0.30856  1.0000
  C   C1394     1.0  0.63172  0.45167  0.20806  1.0000
  C   C1395     1.0  0.64554  0.50773  0.24008  1.0000
  C   C1396     1.0  0.69707  0.54829  0.38685  1.0000
  H   H1120     1.0  0.88901  0.44673  0.13431  1.0000
  C   C1397     1.0  0.56844  0.48149  0.01690  1.0000
  C   C1398     1.0  0.81753  0.33634  0.36158  1.0000
  H   H1121     1.0  0.73301  0.43974  0.28231  1.0000
  H   H1122     1.0  0.80407  0.35543  0.36505  1.0000
  C   C1399     1.0  0.65680  0.54439  0.28148  1.0000
  C   C1400     1.0  0.62781  0.55337  0.28155  1.0000
  H   H1123     1.0  0.71005  0.47328  0.16883  1.0000
  H   H1124     1.0  0.65000  0.49295  0.40147  1.0000
  C   C1401     1.0  0.49173  0.34839  0.31546  1.0000
  H   H1125     1.0  0.84548  0.35711  0.32593  1.0000
  H   H1126     1.0  0.64260  0.49234  0.32941  1.0000
  H   H1127     1.0  0.68865  0.51677  0.25949  1.0000
  H   H1128     1.0  0.60040  0.50693  0.22469  1.0000
  C   C1402     1.0  0.82021  0.54028  0.47630  1.0000
  H   H1129     1.0  0.66018  0.54315  0.19037  1.0000
  H   H1130     1.0  0.48837  0.37043  0.30670  1.0000
  C   C1403     1.0  0.58461  0.45801  0.43682  1.0000
  C   C1404     1.0  0.67849  0.56756  0.37075  1.0000
  C   C1405     1.0  0.68960  0.62827  0.30470  1.0000
  C   C1406     1.0  0.61634  0.51664  0.24082  1.0000
  H   H1131     1.0  0.74458  0.62444  0.47712  1.0000
  C   C1407     1.0  0.94641  0.48327  0.10076  1.0000
  C   C1408     1.0  0.90143  0.46475  0.12421  1.0000
  H   H1132     1.0  0.74541  0.65457  0.20604  1.0000
  C   C1409     1.0  0.74872  0.44497  0.23246  1.0000
  C   C1410     1.0  0.65786  0.53017  0.16830  1.0000
  H   H1133     1.0  0.49127  0.62856  0.23768  1.0000
  H   H1134     1.0  0.90128  0.63445  0.49724  1.0000
  C   C1411     1.0  0.54185  0.48333  0.03352  1.0000
  C   C1412     1.0  0.51698  0.49362  0.01718  1.0000
  S   S196      1.0  0.93144  0.33561  0.21918  1.0000
  C   C1413     1.0  0.72798  0.44717  0.25754  1.0000
  H   H1135     1.0  0.63622  0.45430  0.28759  1.0000
  C   C1414     1.0  0.59198  0.40525  0.20419  1.0000
  C   C1415     1.0  0.70062  0.45888  0.25076  1.0000
  C   C1416     1.0  0.69359  0.46819  0.21870  1.0000
  C   C1417     1.0  0.65210  0.49779  0.11027  1.0000
  H   H1136     1.0  0.64984  0.48536  0.08771  1.0000
  Fe  Fe99      1.0  0.56597  0.65080  0.17781  1.0000
  C   C1418     1.0  0.97863  0.39676  0.05050  1.0000
  H   H1137     1.0  0.54080  0.47701  0.05926  1.0000
  C   C1419     1.0  0.93031  0.46043  0.11472  1.0000
  H   H1138     1.0  0.89500  0.53651  0.10526  1.0000
  H   H1139     1.0  0.63550  0.57539  0.35303  1.0000
  C   C1420     1.0  0.68644  0.52162  0.39821  1.0000
  H   H1140     1.0  0.70111  0.50625  0.40973  1.0000
  H   H1141     1.0  0.56476  0.43462  0.17693  1.0000
  P   P47       1.0  0.65747  0.48154  0.20960  1.0000
  C   C1421     1.0  0.58170  0.57990  0.38782  1.0000
  H   H1142     1.0  0.51589  0.33586  0.21728  1.0000
  H   H1143     1.0  0.62120  0.57175  0.29634  1.0000
  C   C1422     1.0  0.93363  0.51086  0.09782  1.0000
  C   C1423     1.0  0.86973  0.55274  0.46177  1.0000
  C   C1424     1.0  0.84254  0.54168  0.45297  1.0000
  C   C1425     1.0  0.80403  0.63069  0.24874  1.0000
  C   C1426     1.0  0.56323  0.56155  0.33586  1.0000
  C   C1427     1.0  0.65726  0.51415  0.39340  1.0000
  H   H1144     1.0  0.58694  0.44009  0.26884  1.0000
  C   C1428     1.0  0.64925  0.56024  0.36602  1.0000
  H   H1145     1.0  0.88665  0.55498  0.44336  1.0000
  H   H1146     1.0  0.96813  0.53182  0.35609  1.0000
  C   C1429     1.0  0.59449  0.47413  0.40977  1.0000
  C   C1430     1.0  0.61729  0.46461  0.29818  1.0000
  C   C1431     1.0  0.58951  0.45634  0.28796  1.0000
  C   C1432     1.0  0.56510  0.46869  0.30285  1.0000
  C   C1433     1.0  0.56852  0.48935  0.32786  1.0000
  C   C1434     1.0  0.59640  0.49890  0.33708  1.0000
  C   C1435     1.0  0.62081  0.48613  0.32224  1.0000
  P   P48       1.0  0.60035  0.52401  0.37110  1.0000
  C   C1436     1.0  0.57997  0.55730  0.36451  1.0000
  C   C1437     1.0  0.58740  0.50377  0.40661  1.0000
  H   H1147     1.0  0.94604  0.52914  0.08845  1.0000
  H   H1148     1.0  0.64985  0.53938  0.08557  1.0000
  H   H1149     1.0  0.86627  0.49534  0.12810  1.0000
  H   H1150     1.0  0.60952  0.62017  0.32495  1.0000
  S   S197      1.0  0.60661  0.33392  0.28131  1.0000
  H   H1151     1.0  0.54015  0.36199  0.02359  1.0000
  H   H1152     1.0  0.72951  0.32350  0.43159  1.0000
  C   C1438     1.0  0.50225  0.34337  0.34727  1.0000
  C   C1439     1.0  0.50707  0.47764  0.21923  1.0000
  H   H1153     1.0  0.50711  0.36160  0.36331  1.0000
  P   P49       1.0  0.98421  0.47827  0.09067  1.0000
  C   C1440     1.0  0.87473  0.56208  0.49405  1.0000
  H   H1154     1.0  0.89557  0.57144  0.50062  1.0000
  C   C1441     1.0  0.55480  0.33483  0.24729  1.0000
  H   H1155     1.0  0.60365  0.33829  0.19696  1.0000
  H   H1156     1.0  0.98624  0.49244  0.25000  1.0000
  C   C1442     1.0  0.98421  0.52154  0.00251  1.0000
  H   H1157     1.0  0.91754  0.46514  0.00195  1.0000
  S   S198      1.0  0.59166  0.33846  0.65968  1.0000
  C   C1443     1.0  0.51086  0.39529  0.83346  1.0000
  Fe  Fe100     1.0  0.61756  0.33124  0.70583  1.0000
  S   S199      1.0  0.63671  0.36778  0.73783  1.0000
  H   H1158     1.0  0.54806  0.50882  0.94257  1.0000
  Fe  Fe101     1.0  0.86885  0.39697  0.88920  1.0000
  S   S200      1.0  0.83498  0.37274  0.85975  1.0000
  S   S201      1.0  0.89147  0.37218  0.93093  1.0000
  Fe  Fe102     1.0  0.86986  0.44782  0.83920  1.0000
  S   S202      1.0  0.83673  0.42676  0.80612  1.0000
  S   S203      1.0  0.89284  0.49139  0.83076  1.0000
  Fe  Fe103     1.0  0.81350  0.41657  0.85369  1.0000
  S   S204      1.0  0.76432  0.41951  0.85756  1.0000
  Fe  Fe104     1.0  0.86079  0.38458  0.81478  1.0000
  S   S205      1.0  0.87526  0.35417  0.77292  1.0000
  S   S206      1.0  0.84530  0.43989  0.88673  1.0000
  S   S207      1.0  0.89594  0.40671  0.84421  1.0000
  H   H1159     1.0  0.97050  0.64969  0.73447  1.0000
  H   H1160     1.0  0.75763  0.62081  0.72954  1.0000
  H   H1161     1.0  0.49767  0.38152  0.78483  1.0000
  H   H1162     1.0  0.74601  0.52566  0.72819  1.0000
  H   H1163     1.0  0.85145  0.48853  0.77628  1.0000
  C   C1444     1.0  0.70115  0.48102  0.86395  1.0000
  C   C1445     1.0  0.71597  0.45427  0.86202  1.0000
  C   C1446     1.0  0.74647  0.45347  0.86011  1.0000
  C   C1447     1.0  0.76205  0.47958  0.86012  1.0000
  H   H1164     1.0  0.67768  0.48139  0.86534  1.0000
  H   H1165     1.0  0.70381  0.43411  0.86195  1.0000
  H   H1166     1.0  0.78549  0.47912  0.85867  1.0000
  C   C1448     1.0  0.61937  0.39782  0.75736  1.0000
  C   C1449     1.0  0.58915  0.39962  0.76036  1.0000
  C   C1450     1.0  0.57634  0.42363  0.77647  1.0000
  C   C1451     1.0  0.59350  0.44587  0.79033  1.0000
  C   C1452     1.0  0.62376  0.44411  0.78730  1.0000
  C   C1453     1.0  0.63657  0.42017  0.77099  1.0000
  H   H1167     1.0  0.57570  0.38235  0.75054  1.0000
  H   H1168     1.0  0.55297  0.42497  0.77831  1.0000
  H   H1169     1.0  0.63729  0.46091  0.79799  1.0000
  H   H1170     1.0  0.65997  0.41894  0.76909  1.0000
  P   P50       1.0  0.52884  0.41273  0.89606  1.0000
  H   H1171     1.0  0.90958  0.45458  0.74320  1.0000
  C   C1454     1.0  0.55730  0.40568  0.67829  1.0000
  C   C1455     1.0  0.56646  0.41576  0.88341  1.0000
  H   H1172     1.0  0.95793  0.39153  0.82033  1.0000
  C   C1456     1.0  0.81589  0.57690  0.89025  1.0000
  Fe  Fe105     1.0  0.59736  0.51520  0.83411  1.0000
  S   S208      1.0  0.63123  0.54172  0.80790  1.0000
  S   S209      1.0  0.57609  0.47461  0.81217  1.0000
  Fe  Fe106     1.0  0.59359  0.55879  0.89290  1.0000
  S   S210      1.0  0.62789  0.58778  0.87060  1.0000
  S   S211      1.0  0.56585  0.57419  0.93661  1.0000
  Fe  Fe107     1.0  0.60524  0.58157  0.82192  1.0000
  S   S212      1.0  0.58845  0.61630  0.78582  1.0000
  Fe  Fe108     1.0  0.65071  0.54549  0.85872  1.0000
  S   S213      1.0  0.69920  0.54130  0.86611  1.0000
  S   S214      1.0  0.56961  0.55446  0.84466  1.0000
  S   S215      1.0  0.61807  0.51696  0.88452  1.0000
  Fe  Fe109     1.0  0.87794  0.62461  0.69948  1.0000
  H   H1173     1.0  0.85418  0.61047  0.84942  1.0000
  S   S216      1.0  0.85920  0.58089  0.71629  1.0000
  C   C1457     1.0  0.50694  0.59882  0.80867  1.0000
  H   H1174     1.0  0.68674  0.34790  0.80954  1.0000
  S   S217      1.0  0.89990  0.62619  0.64989  1.0000
  C   C1458     1.0  0.86933  0.55673  0.74854  1.0000
  C   C1459     1.0  0.85548  0.52945  0.75025  1.0000
  C   C1460     1.0  0.86218  0.50947  0.77546  1.0000
  C   C1461     1.0  0.88292  0.51653  0.79937  1.0000
  C   C1462     1.0  0.89651  0.54401  0.79798  1.0000
  C   C1463     1.0  0.88984  0.56400  0.77264  1.0000
  H   H1175     1.0  0.83947  0.52375  0.73190  1.0000
  H   H1176     1.0  0.91234  0.54989  0.81649  1.0000
  H   H1177     1.0  0.90047  0.58501  0.77182  1.0000
  H   H1178     1.0  0.75082  0.57742  0.87889  1.0000
  C   C1464     1.0  0.74885  0.60075  0.87601  1.0000
  C   C1465     1.0  0.76381  0.64627  0.85109  1.0000
  H   H1179     1.0  0.61678  0.38320  0.83372  1.0000
  C   C1466     1.0  0.91395  0.47639  0.91913  1.0000
  C   C1467     1.0  0.78056  0.61655  0.68376  1.0000
  C   C1468     1.0  0.71681  0.50716  0.86398  1.0000
  C   C1469     1.0  0.74729  0.50628  0.86226  1.0000
  H   H1180     1.0  0.75960  0.52630  0.86259  1.0000
  H   H1181     1.0  0.70496  0.33815  0.62076  1.0000
  H   H1182     1.0  0.72774  0.33434  0.84635  1.0000
  C   C1470     1.0  0.53249  0.40981  0.69764  1.0000
  C   C1471     1.0  0.69657  0.61337  0.74284  1.0000
  C   C1472     1.0  0.96800  0.59269  0.78818  1.0000
  H   H1183     1.0  0.57494  0.40512  0.62908  1.0000
  H   H1184     1.0  0.79529  0.60012  0.69307  1.0000
  C   C1473     1.0  0.53241  0.41431  0.96478  1.0000
  H   H1185     1.0  0.51744  0.51890  0.87807  1.0000
  C   C1474     1.0  0.54606  0.50098  0.96771  1.0000
  S   S218      1.0  0.65039  0.32861  0.58948  1.0000
  H   H1186     1.0  0.95035  0.52029  0.83929  1.0000
  P   P51       1.0  0.79602  0.54756  0.53903  1.0000
  H   H1187     1.0  0.57771  0.39969  0.68979  1.0000
  H   H1188     1.0  0.53389  0.40683  0.72408  1.0000
  C   C1475     1.0  0.59509  0.55636  0.99343  1.0000
  C   C1476     1.0  0.97604  0.38720  0.95627  1.0000
  H   H1189     1.0  0.88441  0.48480  0.95926  1.0000
  C   C1477     1.0  0.52947  0.41652  0.62920  1.0000
  C   C1478     1.0  0.77318  0.57933  0.53548  1.0000
  C   C1479     1.0  0.96653  0.51118  0.77370  1.0000
  C   C1480     1.0  0.87342  0.64274  0.53909  1.0000
  H   H1190     1.0  0.73289  0.53635  0.54275  1.0000
  H   H1191     1.0  0.52622  0.41119  0.82419  1.0000
  C   C1481     1.0  0.69392  0.36581  0.66172  1.0000
  C   C1482     1.0  0.71318  0.35061  0.64147  1.0000
  C   C1483     1.0  0.74292  0.35125  0.64816  1.0000
  C   C1484     1.0  0.75348  0.36726  0.67499  1.0000
  C   C1485     1.0  0.73432  0.38281  0.69548  1.0000
  C   C1486     1.0  0.70434  0.38150  0.68881  1.0000
  P   P52       1.0  0.74740  0.40281  0.73118  1.0000
  C   C1487     1.0  0.74213  0.37977  0.76687  1.0000
  C   C1488     1.0  0.78489  0.41417  0.72568  1.0000
  C   C1489     1.0  0.80741  0.39357  0.72471  1.0000
  C   C1490     1.0  0.83613  0.40238  0.71932  1.0000
  C   C1491     1.0  0.84278  0.43183  0.71551  1.0000
  C   C1492     1.0  0.82068  0.45254  0.71693  1.0000
  C   C1493     1.0  0.79186  0.44382  0.72193  1.0000
  C   C1494     1.0  0.76512  0.37260  0.78818  1.0000
  C   C1495     1.0  0.75996  0.35560  0.81623  1.0000
  C   C1496     1.0  0.73178  0.34650  0.82391  1.0000
  C   C1497     1.0  0.70875  0.35403  0.80323  1.0000
  C   C1498     1.0  0.71392  0.37033  0.77473  1.0000
  C   C1499     1.0  0.72515  0.43483  0.73685  1.0000
  C   C1500     1.0  0.71314  0.44928  0.70951  1.0000
  C   C1501     1.0  0.69500  0.47333  0.71412  1.0000
  C   C1502     1.0  0.68924  0.48349  0.74595  1.0000
  C   C1503     1.0  0.70207  0.46998  0.77311  1.0000
  C   C1504     1.0  0.72003  0.44578  0.76869  1.0000
  H   H1192     1.0  0.67077  0.36514  0.65661  1.0000
  C   C1505     1.0  0.50596  0.41750  0.68298  1.0000
  C   C1506     1.0  0.98511  0.57267  0.77063  1.0000
  H   H1193     1.0  0.77656  0.36723  0.67937  1.0000
  H   H1194     1.0  0.68881  0.39265  0.70442  1.0000
  H   H1195     1.0  0.80294  0.37063  0.72838  1.0000
  C   C1507     1.0  0.98080  0.36039  0.97166  1.0000
  H   H1196     1.0  0.86512  0.43858  0.71192  1.0000
  H   H1197     1.0  0.82593  0.47540  0.71450  1.0000
  H   H1198     1.0  0.77527  0.46039  0.72314  1.0000
  H   H1199     1.0  0.78682  0.38091  0.78427  1.0000
  H   H1200     1.0  0.77765  0.35079  0.83297  1.0000
  H   H1201     1.0  0.89941  0.48492  0.90048  1.0000
  H   H1202     1.0  0.79976  0.64379  0.53590  1.0000
  H   H1203     1.0  0.69567  0.37632  0.75944  1.0000
  H   H1204     1.0  0.71740  0.44171  0.68467  1.0000
  H   H1205     1.0  0.68505  0.48383  0.69305  1.0000
  H   H1206     1.0  0.67471  0.50175  0.74968  1.0000
  H   H1207     1.0  0.69775  0.47804  0.79770  1.0000
  H   H1208     1.0  0.72965  0.43551  0.79017  1.0000
  C   C1508     1.0  0.51070  0.44737  0.89920  1.0000
  H   H1209     1.0  0.50743  0.49376  0.81790  1.0000
  H   H1210     1.0  0.76358  0.58237  0.58782  1.0000
  H   H1211     1.0  0.83662  0.50074  0.85681  1.0000
  C   C1509     1.0  0.76716  0.59118  0.50428  1.0000
  C   C1510     1.0  0.57379  0.57430  0.97973  1.0000
  C   C1511     1.0  0.53090  0.39658  0.93657  1.0000
  C   C1512     1.0  0.53358  0.36632  0.94002  1.0000
  C   C1513     1.0  0.73974  0.46694  0.51513  1.0000
  H   H1212     1.0  0.71883  0.53329  0.78062  1.0000
  H   H1213     1.0  0.96939  0.52455  0.98204  1.0000
  C   C1514     1.0  0.75456  0.54016  0.74691  1.0000
  C   C1515     1.0  0.62569  0.41884  0.86669  1.0000
  C   C1516     1.0  0.61420  0.43786  0.89017  1.0000
  C   C1517     1.0  0.58474  0.43628  0.89864  1.0000
  C   C1518     1.0  0.57849  0.39599  0.86073  1.0000
  H   H1214     1.0  0.71442  0.60343  0.91183  1.0000
  H   H1215     1.0  0.53354  0.35233  0.91849  1.0000
  C   C1519     1.0  0.60789  0.39778  0.85216  1.0000
  H   H1216     1.0  0.64834  0.42056  0.85954  1.0000
  H   H1217     1.0  0.62815  0.45399  0.90157  1.0000
  H   H1218     1.0  0.57623  0.45113  0.91697  1.0000
  H   H1219     1.0  0.94091  0.44311  0.79086  1.0000
  C   C1520     1.0  0.76666  0.61589  0.85364  1.0000
  C   C1521     1.0  0.77714  0.57687  0.79618  1.0000
  C   C1522     1.0  0.60133  0.65142  0.77381  1.0000
  C   C1523     1.0  0.49450  0.37878  0.81114  1.0000
  C   C1524     1.0  0.69487  0.63021  0.80905  1.0000
  C   C1525     1.0  0.94366  0.46357  0.77800  1.0000
  C   C1526     1.0  0.74096  0.65067  0.69264  1.0000
  H   H1220     1.0  0.51718  0.57407  0.76513  1.0000
  C   C1527     1.0  0.90291  0.35626  0.99506  1.0000
  H   H1221     1.0  0.70318  0.49332  0.52925  1.0000
  H   H1222     1.0  0.68073  0.57190  0.76012  1.0000
  H   H1223     1.0  0.65549  0.64276  0.71166  1.0000
  H   H1224     1.0  0.50094  0.51117  0.97093  1.0000
  C   C1528     1.0  0.78698  0.49004  0.51928  1.0000
  C   C1529     1.0  0.95951  0.45315  0.93385  1.0000
  H   H1225     1.0  0.69699  0.60656  0.71725  1.0000
  H   H1226     1.0  0.94679  0.46506  0.88399  1.0000
  C   C1530     1.0  0.77390  0.51590  0.53023  1.0000
  H   H1227     1.0  0.78012  0.44602  0.50262  1.0000
  C   C1531     1.0  0.97344  0.41288  0.86436  1.0000
  C   C1532     1.0  0.95546  0.34343  0.88520  1.0000
  C   C1533     1.0  0.92853  0.49693  0.73521  1.0000
  H   H1228     1.0  0.54307  0.47222  0.87229  1.0000
  H   H1229     1.0  0.67995  0.58673  0.81893  1.0000
  C   C1534     1.0  0.85249  0.56066  0.51753  1.0000
  H   H1230     1.0  0.50587  0.57933  0.94933  1.0000
  H   H1231     1.0  0.75780  0.33918  0.63264  1.0000
  C   C1535     1.0  0.92588  0.47008  0.75111  1.0000
  C   C1536     1.0  0.96703  0.53642  0.88501  1.0000
  C   C1537     1.0  0.54401  0.64499  0.87466  1.0000
  C   C1538     1.0  0.50089  0.57869  0.78377  1.0000
  C   C1539     1.0  0.94883  0.51738  0.74635  1.0000
  C   C1540     1.0  0.51937  0.50266  0.98416  1.0000
  H   H1232     1.0  0.95502  0.40582  0.87903  1.0000
  H   H1233     1.0  0.94836  0.52897  0.89897  1.0000
  H   H1234     1.0  0.94969  0.63586  0.78879  1.0000
  C   C1541     1.0  0.75035  0.56292  0.80057  1.0000
  C   C1542     1.0  0.50733  0.39143  0.86759  1.0000
  C   C1543     1.0  0.94085  0.46484  0.90986  1.0000
  C   C1544     1.0  0.74356  0.51683  0.53410  1.0000
  C   C1545     1.0  0.52260  0.47277  0.88543  1.0000
  H   H1235     1.0  0.96552  0.44557  0.98617  1.0000
  H   H1236     1.0  0.79355  0.55056  0.71970  1.0000
  C   C1546     1.0  0.82472  0.51570  0.62787  1.0000
  C   C1547     1.0  0.83686  0.54027  0.64281  1.0000
  C   C1548     1.0  0.83608  0.56709  0.62667  1.0000
  C   C1549     1.0  0.82316  0.56942  0.59554  1.0000
  C   C1550     1.0  0.81101  0.54480  0.58021  1.0000
  C   C1551     1.0  0.81197  0.51788  0.59662  1.0000
  C   C1552     1.0  0.93549  0.33585  0.86074  1.0000
  H   H1237     1.0  0.88884  0.64728  0.82905  1.0000
  C   C1553     1.0  0.84793  0.62427  0.82902  1.0000
  H   H1238     1.0  0.52785  0.60976  0.80907  1.0000
  C   C1554     1.0  0.50789  0.49929  0.88832  1.0000
  H   H1239     1.0  0.55888  0.62752  0.86837  1.0000
  C   C1555     1.0  0.79261  0.57217  0.76681  1.0000
  H   H1240     1.0  0.85687  0.56881  0.54202  1.0000
  H   H1241     1.0  0.56538  0.37913  0.84953  1.0000
  C   C1556     1.0  0.89207  0.37826  0.97429  1.0000
  C   C1557     1.0  0.78123  0.55415  0.74213  1.0000
  H   H1242     1.0  0.82556  0.49489  0.64036  1.0000
  H   H1243     1.0  0.84718  0.53852  0.66677  1.0000
  H   H1244     1.0  0.84581  0.58607  0.63822  1.0000
  H   H1245     1.0  0.82308  0.59037  0.58321  1.0000
  H   H1246     1.0  0.80310  0.49846  0.58541  1.0000
  C   C1558     1.0  0.86770  0.64511  0.81755  1.0000
  H   H1247     1.0  0.80089  0.61820  0.63589  1.0000
  H   H1248     1.0  0.73826  0.56572  0.82307  1.0000
  H   H1249     1.0  0.96266  0.34845  0.98207  1.0000
  C   C1559     1.0  0.81096  0.57013  0.85690  1.0000
  H   H1250     1.0  0.81383  0.58182  0.76331  1.0000
  C   C1560     1.0  0.96398  0.48395  0.78923  1.0000
  H   H1251     1.0  0.91256  0.34038  0.86432  1.0000
  C   C1561     1.0  0.81333  0.63950  0.78740  1.0000
  C   C1562     1.0  0.68745  0.59366  0.76700  1.0000
  C   C1563     1.0  0.55577  0.40885  0.64406  1.0000
  C   C1564     1.0  0.78385  0.62676  0.65151  1.0000
  C   C1565     1.0  0.81905  0.54269  0.84488  1.0000
  C   C1566     1.0  0.75987  0.59144  0.56354  1.0000
  C   C1567     1.0  0.72834  0.61555  0.89510  1.0000
  H   H1252     1.0  0.85334  0.38633  0.71865  1.0000
  C   C1568     1.0  0.73589  0.62734  0.52933  1.0000
  H   H1253     1.0  0.81593  0.53692  0.81922  1.0000
  C   C1569     1.0  0.96837  0.53134  0.85099  1.0000
  C   C1570     1.0  0.92430  0.46552  0.97632  1.0000
  C   C1571     1.0  0.70352  0.65020  0.78493  1.0000
  H   H1254     1.0  0.68476  0.35447  0.53819  1.0000
  C   C1572     1.0  0.73921  0.54447  0.77624  1.0000
  C   C1573     1.0  0.74139  0.61541  0.56042  1.0000
  C   C1574     1.0  0.72580  0.64573  0.89257  1.0000
  P   P53       1.0  0.79382  0.59631  0.83007  1.0000
  H   H1255     1.0  0.53854  0.63076  0.92489  1.0000
  C   C1575     1.0  0.82811  0.55623  0.91141  1.0000
  C   C1576     1.0  0.57049  0.49014  0.98394  1.0000
  H   H1256     1.0  0.49088  0.62090  0.85162  1.0000
  C   C1577     1.0  0.97498  0.40481  0.83109  1.0000
  H   H1257     1.0  0.81012  0.59807  0.89996  1.0000
  H   H1258     1.0  0.60841  0.54308  0.97743  1.0000
  C   C1578     1.0  0.83100  0.52205  0.86616  1.0000
  C   C1579     1.0  0.75930  0.62852  0.70436  1.0000
  H   H1259     1.0  0.72176  0.64605  0.52697  1.0000
  H   H1260     1.0  0.83161  0.56143  0.93717  1.0000
  C   C1580     1.0  0.88354  0.40467  0.98833  1.0000
  H   H1261     1.0  0.87496  0.42166  0.97272  1.0000
  H   H1262     1.0  0.79233  0.63768  0.77556  1.0000
  H   H1263     1.0  0.73132  0.62476  0.58215  1.0000
  H   H1264     1.0  0.95399  0.39530  0.95460  1.0000
  H   H1265     1.0  0.81036  0.48874  0.51637  1.0000
  C   C1581     1.0  0.83552  0.52873  0.89938  1.0000
  H   H1266     1.0  0.52833  0.41887  0.60263  1.0000
  C   C1582     1.0  0.68680  0.60203  0.80012  1.0000
  C   C1583     1.0  0.66701  0.34315  0.52627  1.0000
  H   H1267     1.0  0.91431  0.50231  0.71483  1.0000
  C   C1584     1.0  0.82042  0.62162  0.81427  1.0000
  C   C1585     1.0  0.64614  0.32865  0.54577  1.0000
  H   H1268     1.0  0.90927  0.33562  0.98449  1.0000
  C   C1586     1.0  0.95131  0.45416  0.96724  1.0000
  H   H1269     1.0  0.54054  0.60582  0.99082  1.0000
  C   C1587     1.0  0.84478  0.64561  0.55016  1.0000
  H   H1270     1.0  0.59123  0.48939  0.97126  1.0000
  C   C1588     1.0  0.53652  0.35390  0.97136  1.0000
  C   C1589     1.0  0.90557  0.47652  0.95227  1.0000
  C   C1590     1.0  0.70434  0.64193  0.75157  1.0000
  H   H1271     1.0  0.84470  0.51251  0.91569  1.0000
  C   C1591     1.0  0.53592  0.40186  0.99601  1.0000
  H   H1272     1.0  0.95008  0.53819  0.73394  1.0000
  C   C1592     1.0  0.82194  0.64132  0.52761  1.0000
  C   C1593     1.0  0.82502  0.54961  0.50890  1.0000
  H   H1273     1.0  0.53135  0.50000  0.76387  1.0000
  H   H1274     1.0  0.53132  0.43775  0.96266  1.0000
  H   H1275     1.0  0.89123  0.64605  0.55612  1.0000
  C   C1594     1.0  0.50466  0.42098  0.64855  1.0000
  H   H1276     1.0  0.97737  0.47867  0.81036  1.0000
  C   C1595     1.0  0.87904  0.63608  0.50569  1.0000
  C   C1596     1.0  0.53245  0.64675  0.90647  1.0000
  H   H1277     1.0  0.49636  0.36217  0.70330  1.0000
  C   C1597     1.0  0.96266  0.62034  0.77512  1.0000
  C   C1598     1.0  0.50101  0.48013  0.79739  1.0000
  C   C1599     1.0  0.51442  0.48375  0.76677  1.0000
  C   C1600     1.0  0.72659  0.49242  0.52651  1.0000
  H   H1278     1.0  0.63817  0.65238  0.80620  1.0000
  H   H1279     1.0  0.69366  0.63671  0.83466  1.0000
  H   H1280     1.0  0.94602  0.32956  0.74804  1.0000
  H   H1281     1.0  0.53815  0.33049  0.97391  1.0000
  H   H1282     1.0  0.51714  0.46942  0.71663  1.0000
  C   C1601     1.0  0.76622  0.64917  0.63989  1.0000
  C   C1602     1.0  0.76993  0.46574  0.51160  1.0000
  C   C1603     1.0  0.50657  0.46603  0.74021  1.0000
  H   H1283     1.0  0.72653  0.44814  0.50896  1.0000
  H   H1284     1.0  0.95887  0.58710  0.81197  1.0000
  H   H1285     1.0  0.94782  0.35353  0.90772  1.0000
  C   C1604     1.0  0.97420  0.62812  0.74444  1.0000
  C   C1605     1.0  0.53765  0.37165  0.99935  1.0000
  C   C1606     1.0  0.98513  0.33868  0.88019  1.0000
  C   C1607     1.0  0.96772  0.33800  0.74364  1.0000
  H   H1286     1.0  0.95299  0.36909  0.70767  1.0000
  C   C1608     1.0  0.97155  0.36061  0.72095  1.0000
  C   C1609     1.0  0.94505  0.32251  0.83172  1.0000
  C   C1610     1.0  0.55688  0.59161  0.00106  1.0000
  C   C1611     1.0  0.74870  0.61516  0.50127  1.0000
  Fe  Fe110     1.0  0.65718  0.84713  0.38942  1.0000
  S   S219      1.0  0.63156  0.88004  0.36002  1.0000
  S   S220      1.0  0.63240  0.82975  0.43479  1.0000
  Fe  Fe111     1.0  0.70566  0.84567  0.33573  1.0000
  S   S221      1.0  0.68291  0.87820  0.30377  1.0000
  S   S222      1.0  0.74536  0.82119  0.31615  1.0000
  Fe  Fe112     1.0  0.67485  0.90186  0.35143  1.0000
  S   S223      1.0  0.67781  0.95108  0.35397  1.0000
  Fe  Fe113     1.0  0.64188  0.85340  0.31512  1.0000
  S   S224      1.0  0.61321  0.83629  0.27341  1.0000
  S   S225      1.0  0.69999  0.87078  0.38332  1.0000
  S   S226      1.0  0.66497  0.81917  0.34454  1.0000
  S   S227      1.0  0.55885  0.69940  0.17537  1.0000
  Fe  Fe114     1.0  0.91962  0.85977  0.14035  1.0000
  S   S228      1.0  0.89170  0.82523  0.16413  1.0000
  S   S229      1.0  0.90118  0.88601  0.09651  1.0000
  Fe  Fe115     1.0  0.96218  0.85993  0.20081  1.0000
  S   S230      1.0  0.93608  0.82628  0.22816  1.0000
  H   H1287     1.0  0.73346  0.67369  0.29762  1.0000
  Fe  Fe116     1.0  0.93441  0.80441  0.17841  1.0000
  S   S231      1.0  0.94030  0.75560  0.17440  1.0000
  Fe  Fe117     1.0  0.89588  0.85026  0.21165  1.0000
  S   S232      1.0  0.85939  0.86915  0.24406  1.0000
  S   S233      1.0  0.96223  0.83703  0.15143  1.0000
  S   S234      1.0  0.92224  0.88564  0.18753  1.0000
  C   C1612     1.0  0.90174  0.88334  0.05242  1.0000
  C   C1613     1.0  0.88385  0.90205  0.03385  1.0000
  H   H1288     1.0  0.70149  0.73284  0.37083  1.0000
  C   C1614     1.0  0.91979  0.86393  0.03544  1.0000
  H   H1289     1.0  0.86990  0.91728  0.04658  1.0000
  H   H1290     1.0  0.93377  0.84946  0.04920  1.0000
  H   H1291     1.0  0.72862  0.98047  0.10605  1.0000
  C   C1615     1.0  0.78794  0.94766  0.25500  1.0000
  C   C1616     1.0  0.49166  0.75644  0.17520  1.0000
  C   C1617     1.0  0.52333  0.71386  0.17515  1.0000
  C   C1618     1.0  0.97737  0.70907  0.17793  1.0000
  C   C1619     1.0  0.49803  0.78783  0.30283  1.0000
  H   H1292     1.0  0.55902  0.87548  0.17088  1.0000
  H   H1293     1.0  0.53851  0.75824  0.17689  1.0000
  H   H1294     1.0  0.51909  0.82772  0.21663  1.0000
  H   H1295     1.0  0.95780  0.69596  0.17829  1.0000
  C   C1620     1.0  0.66725  0.67777  0.20846  1.0000
  P   P54       1.0  0.74463  0.71117  0.24114  1.0000
  C   C1621     1.0  0.71116  0.96884  0.36183  1.0000
  C   C1622     1.0  0.75107  0.88559  0.44899  1.0000
  C   C1623     1.0  0.76345  0.96808  0.36994  1.0000
  C   C1624     1.0  0.73688  0.95321  0.36628  1.0000
  H   H1296     1.0  0.78342  0.95593  0.37256  1.0000
  H   H1297     1.0  0.73640  0.92969  0.36599  1.0000
  C   C1625     1.0  0.51838  0.86246  0.25226  1.0000
  C   C1626     1.0  0.53445  0.87695  0.27684  1.0000
  C   C1627     1.0  0.56332  0.86893  0.28393  1.0000
  C   C1628     1.0  0.57636  0.84607  0.26671  1.0000
  C   C1629     1.0  0.56003  0.83096  0.24281  1.0000
  C   C1630     1.0  0.53120  0.83915  0.23552  1.0000
  H   H1298     1.0  0.52464  0.89479  0.29019  1.0000
  H   H1299     1.0  0.57559  0.88071  0.30238  1.0000
  H   H1300     1.0  0.56989  0.81315  0.22943  1.0000
  C   C1631     1.0  0.98550  0.74645  0.26371  1.0000
  C   C1632     1.0  0.77550  0.83545  0.29388  1.0000
  C   C1633     1.0  0.78348  0.86477  0.29584  1.0000
  C   C1634     1.0  0.80917  0.87458  0.28037  1.0000
  C   C1635     1.0  0.82698  0.85541  0.26234  1.0000
  C   C1636     1.0  0.81851  0.82630  0.25954  1.0000
  C   C1637     1.0  0.79296  0.81637  0.27533  1.0000
  H   H1301     1.0  0.77035  0.87975  0.31003  1.0000
  H   H1302     1.0  0.81560  0.89712  0.28282  1.0000
  H   H1303     1.0  0.83219  0.81128  0.24616  1.0000
  H   H1304     1.0  0.78713  0.79360  0.27381  1.0000
  H   H1305     1.0  0.54584  0.74553  0.25905  1.0000
  C   C1638     1.0  0.59868  0.96522  0.28585  1.0000
  C   C1639     1.0  0.75117  0.94844  0.46791  1.0000
  C   C1640     1.0  0.69004  0.68682  0.22887  1.0000
  C   C1641     1.0  0.76619  0.89361  0.42021  1.0000
  H   H1306     1.0  0.51490  0.76785  0.34680  1.0000
  C   C1642     1.0  0.86784  0.67784  0.22341  1.0000
  C   C1643     1.0  0.57403  0.88877  0.18500  1.0000
  H   H1307     1.0  0.71448  0.68261  0.35342  1.0000
  H   H1308     1.0  0.78678  0.87875  0.37542  1.0000
  C   C1644     1.0  0.60005  0.87685  0.19642  1.0000
  C   C1645     1.0  0.73190  0.71874  0.28252  1.0000
  H   H1309     1.0  0.62722  0.93523  0.23737  1.0000
  C   C1646     1.0  0.49880  0.69584  0.17409  1.0000
  C   C1647     1.0  0.63766  0.90729  0.45729  1.0000
  C   C1648     1.0  0.87890  0.70515  0.48058  1.0000
  H   H1310     1.0  0.65103  0.95508  0.15784  1.0000
  C   C1649     1.0  0.70987  0.72884  0.34625  1.0000
  H   H1311     1.0  0.70980  0.97110  0.46805  1.0000
  C   C1650     1.0  0.76876  0.95026  0.28154  1.0000
  C   C1651     1.0  0.58544  0.93438  0.21250  1.0000
  H   H1312     1.0  0.79532  0.69803  0.28186  1.0000
  H   H1313     1.0  0.54115  0.68214  0.33751  1.0000
  H   H1314     1.0  0.49231  0.66737  0.31817  1.0000
  H   H1315     1.0  0.97461  0.94670  0.22239  1.0000
  H   H1316     1.0  0.87148  0.95760  0.17456  1.0000
  H   H1317     1.0  0.64920  0.66555  0.21871  1.0000
  C   C1652     1.0  0.86995  0.80808  0.31771  1.0000
  C   C1653     1.0  0.84223  0.80149  0.32968  1.0000
  C   C1654     1.0  0.83267  0.77262  0.33061  1.0000
  C   C1655     1.0  0.85124  0.75021  0.32063  1.0000
  C   C1656     1.0  0.87976  0.75652  0.31044  1.0000
  C   C1657     1.0  0.88862  0.78573  0.30790  1.0000
  P   P55       1.0  0.90346  0.72745  0.29732  1.0000
  C   C1658     1.0  0.94040  0.74050  0.29412  1.0000
  C   C1659     1.0  0.90546  0.69810  0.32691  1.0000
  C   C1660     1.0  0.89248  0.70030  0.35822  1.0000
  C   C1661     1.0  0.79133  0.67951  0.26593  1.0000
  C   C1662     1.0  0.80150  0.98415  0.15665  1.0000
  C   C1663     1.0  0.64006  0.82363  0.47748  1.0000
  H   H1318     1.0  0.64690  0.93056  0.41239  1.0000
  C   C1664     1.0  0.95680  0.73645  0.26526  1.0000
  C   C1665     1.0  0.64929  0.89511  0.48593  1.0000
  H   H1319     1.0  0.68929  0.68124  0.25478  1.0000
  C   C1666     1.0  0.69147  0.69909  0.16127  1.0000
  C   C1667     1.0  0.95340  0.75395  0.32157  1.0000
  C   C1668     1.0  0.88942  0.71530  0.25806  1.0000
  C   C1669     1.0  0.87851  0.68697  0.25402  1.0000
  H   H1320     1.0  0.59468  0.82036  0.49027  1.0000
  H   H1321     1.0  0.58964  0.94341  0.28546  1.0000
  C   C1670     1.0  0.87752  0.72555  0.20082  1.0000
  C   C1671     1.0  0.88837  0.73470  0.23137  1.0000
  H   H1322     1.0  0.87669  0.83061  0.31513  1.0000
  H   H1323     1.0  0.82767  0.81894  0.33677  1.0000
  H   H1324     1.0  0.81065  0.76776  0.33842  1.0000
  H   H1325     1.0  0.84341  0.72795  0.32088  1.0000
  H   H1326     1.0  0.90968  0.79146  0.29784  1.0000
  H   H1327     1.0  0.88126  0.71981  0.36577  1.0000
  C   C1672     1.0  0.98207  0.76403  0.31980  1.0000
  C   C1673     1.0  0.75451  0.83485  0.43229  1.0000
  H   H1328     1.0  0.80600  0.96173  0.16293  1.0000
  H   H1329     1.0  0.89411  0.69235  0.46621  1.0000
  H   H1330     1.0  0.94764  0.72569  0.24386  1.0000
  C   C1674     1.0  0.66840  0.82235  0.48993  1.0000
  H   H1331     1.0  0.63890  0.88416  0.22476  1.0000
  H   H1332     1.0  0.94123  0.75686  0.34422  1.0000
  H   H1333     1.0  0.84186  0.69167  0.45191  1.0000
  H   H1334     1.0  0.93185  0.67094  0.29510  1.0000
  H   H1335     1.0  0.61739  0.95972  0.33419  1.0000
  C   C1675     1.0  0.50422  0.68433  0.30536  1.0000
  H   H1336     1.0  0.89671  0.75669  0.23384  1.0000
  C   C1676     1.0  0.62129  0.73086  0.22049  1.0000
  C   C1677     1.0  0.64577  0.74806  0.22670  1.0000
  C   C1678     1.0  0.65140  0.75787  0.25872  1.0000
  C   C1679     1.0  0.63227  0.75096  0.28437  1.0000
  C   C1680     1.0  0.60733  0.73415  0.27817  1.0000
  C   C1681     1.0  0.60253  0.72331  0.24626  1.0000
  P   P56       1.0  0.58398  0.72382  0.31199  1.0000
  C   C1682     1.0  0.60244  0.69375  0.33137  1.0000
  C   C1683     1.0  0.57936  0.75428  0.33960  1.0000
  C   C1684     1.0  0.57514  0.74985  0.37358  1.0000
  C   C1685     1.0  0.57323  0.77368  0.39499  1.0000
  C   C1686     1.0  0.57478  0.80198  0.38252  1.0000
  C   C1687     1.0  0.57762  0.80651  0.34859  1.0000
  C   C1688     1.0  0.57966  0.78276  0.32715  1.0000
  H   H1337     1.0  0.74925  0.81216  0.43647  1.0000
  H   H1338     1.0  0.80090  0.80905  0.18244  1.0000
  C   C1689     1.0  0.62283  0.69873  0.35655  1.0000
  C   C1690     1.0  0.54780  0.71386  0.29872  1.0000
  C   C1691     1.0  0.53464  0.72819  0.27204  1.0000
  P   P57       1.0  0.73637  0.91276  0.47664  1.0000
  C   C1692     1.0  0.68801  0.97007  0.12985  1.0000
  H   H1339     1.0  0.61692  0.72299  0.19574  1.0000
  H   H1340     1.0  0.66048  0.75344  0.20672  1.0000
  H   H1341     1.0  0.67040  0.77105  0.26378  1.0000
  H   H1342     1.0  0.63696  0.75884  0.30902  1.0000
  H   H1343     1.0  0.58434  0.70905  0.24104  1.0000
  H   H1344     1.0  0.57388  0.72809  0.38366  1.0000
  H   H1345     1.0  0.57116  0.77035  0.42138  1.0000
  H   H1346     1.0  0.57416  0.82043  0.39923  1.0000
  H   H1347     1.0  0.57888  0.82846  0.33894  1.0000
  H   H1348     1.0  0.58199  0.78672  0.30092  1.0000
  P   P58       1.0  0.97533  0.98537  0.16516  1.0000
  H   H1349     1.0  0.62781  0.72065  0.36465  1.0000
  H   H1350     1.0  0.49683  0.73104  0.24091  1.0000
  C   C1693     1.0  0.68572  0.92328  0.44086  1.0000
  C   C1694     1.0  0.72498  0.74709  0.29272  1.0000
  C   C1695     1.0  0.71385  0.75198  0.32440  1.0000
  C   C1696     1.0  0.76288  0.74261  0.22378  1.0000
  C   C1697     1.0  0.79318  0.74291  0.21922  1.0000
  C   C1698     1.0  0.80673  0.76681  0.20431  1.0000
  C   C1699     1.0  0.79024  0.79051  0.19374  1.0000
  C   C1700     1.0  0.76014  0.79044  0.19816  1.0000
  C   C1701     1.0  0.74648  0.76660  0.21308  1.0000
  H   H1351     1.0  0.72821  0.76555  0.27663  1.0000
  H   H1352     1.0  0.70865  0.77386  0.33221  1.0000
  H   H1353     1.0  0.80654  0.72480  0.22679  1.0000
  C   C1702     1.0  0.56688  0.91754  0.19267  1.0000
  C   C1703     1.0  0.91626  0.97029  0.16924  1.0000
  H   H1354     1.0  0.74745  0.80888  0.19002  1.0000
  H   H1355     1.0  0.72309  0.76681  0.21606  1.0000
  H   H1356     1.0  0.95489  0.92327  0.06864  1.0000
  C   C1704     1.0  0.61206  0.92254  0.22290  1.0000
  C   C1705     1.0  0.74104  0.93790  0.27962  1.0000
  C   C1706     1.0  0.73243  0.92308  0.25115  1.0000
  C   C1707     1.0  0.75192  0.91942  0.22483  1.0000
  C   C1708     1.0  0.77956  0.93239  0.22671  1.0000
  P   P59       1.0  0.74007  0.90112  0.18770  1.0000
  C   C1709     1.0  0.77033  0.88653  0.16454  1.0000
  C   C1710     1.0  0.71698  0.87052  0.19767  1.0000
  C   C1711     1.0  0.69521  0.86165  0.17553  1.0000
  C   C1712     1.0  0.67541  0.83992  0.18454  1.0000
  C   C1713     1.0  0.67758  0.82654  0.21538  1.0000
  C   C1714     1.0  0.70034  0.83391  0.23664  1.0000
  C   C1715     1.0  0.72010  0.85573  0.22778  1.0000
  C   C1716     1.0  0.76940  0.88497  0.12991  1.0000
  C   C1717     1.0  0.79373  0.87548  0.11215  1.0000
  C   C1718     1.0  0.81891  0.86701  0.12884  1.0000
  C   C1719     1.0  0.81940  0.86714  0.16330  1.0000
  C   C1720     1.0  0.79505  0.87628  0.18110  1.0000
  C   C1721     1.0  0.71978  0.92814  0.16497  1.0000
  C   C1722     1.0  0.73367  0.94609  0.14175  1.0000
  H   H1357     1.0  0.87792  0.74034  0.17997  1.0000
  H   H1358     1.0  0.73254  0.84947  0.47605  1.0000
  C   C1723     1.0  0.67417  0.95280  0.15354  1.0000
  C   C1724     1.0  0.69007  0.93229  0.17147  1.0000
  C   C1725     1.0  0.71370  0.70225  0.21561  1.0000
  H   H1359     1.0  0.72603  0.94002  0.30008  1.0000
  H   H1360     1.0  0.71059  0.91437  0.24983  1.0000
  H   H1361     1.0  0.79490  0.93050  0.20666  1.0000
  H   H1362     1.0  0.69302  0.87201  0.15166  1.0000
  H   H1363     1.0  0.65798  0.83384  0.16790  1.0000
  H   H1364     1.0  0.66137  0.81078  0.22294  1.0000
  H   H1365     1.0  0.70227  0.82330  0.26045  1.0000
  H   H1366     1.0  0.73735  0.86141  0.24480  1.0000
  H   H1367     1.0  0.75007  0.89133  0.11653  1.0000
  H   H1368     1.0  0.79329  0.87491  0.08539  1.0000
  C   C1726     1.0  0.76976  0.84303  0.40389  1.0000
  H   H1369     1.0  0.83882  0.86041  0.17632  1.0000
  H   H1370     1.0  0.79588  0.87589  0.20779  1.0000
  H   H1371     1.0  0.77626  0.82674  0.38598  1.0000
  C   C1727     1.0  0.71713  0.70067  0.33648  1.0000
  H   H1372     1.0  0.88326  0.67836  0.40415  1.0000
  H   H1373     1.0  0.65017  0.67705  0.15901  1.0000
  H   H1374     1.0  0.67905  0.91948  0.19013  1.0000
  C   C1728     1.0  0.49661  0.76921  0.33005  1.0000
  H   H1375     1.0  0.50141  0.67248  0.17362  1.0000
  H   H1376     1.0  0.76994  0.91621  0.41423  1.0000
  H   H1377     1.0  0.83011  0.76713  0.20111  1.0000
  C   C1729     1.0  0.73305  0.97285  0.46473  1.0000
  H   H1378     1.0  0.85966  0.68991  0.17288  1.0000
  H   H1379     1.0  0.60503  0.85422  0.19157  1.0000
  C   C1730     1.0  0.53200  0.69252  0.31597  1.0000
  H   H1380     1.0  0.75669  0.94391  0.13697  1.0000
  C   C1731     1.0  0.74507  0.85604  0.45466  1.0000
  C   C1732     1.0  0.59823  0.66532  0.31962  1.0000
  H   H1381     1.0  0.92113  0.95144  0.15424  1.0000
  H   H1382     1.0  0.54660  0.92640  0.18360  1.0000
  C   C1733     1.0  0.61912  0.89376  0.21520  1.0000
  H   H1383     1.0  0.83808  0.86032  0.11511  1.0000
  H   H1384     1.0  0.68651  0.82521  0.47327  1.0000
  C   C1734     1.0  0.86742  0.69710  0.19677  1.0000
  H   H1385     1.0  0.69960  0.93363  0.42271  1.0000
  C   C1735     1.0  0.72806  0.69567  0.30480  1.0000
  H   H1386     1.0  0.73311  0.71845  0.17037  1.0000
  C   C1736     1.0  0.76839  0.67994  0.24311  1.0000
  C   C1737     1.0  0.71450  0.70782  0.18151  1.0000
  C   C1738     1.0  0.65586  0.92146  0.43484  1.0000
  C   C1739     1.0  0.52067  0.95197  0.24151  1.0000
  C   C1740     1.0  0.96531  0.95064  0.11016  1.0000
  H   H1387     1.0  0.87823  0.67174  0.27429  1.0000
  C   C1741     1.0  0.51964  0.74417  0.17591  1.0000
  C   C1742     1.0  0.92127  0.67295  0.31893  1.0000
  H   H1388     1.0  0.69214  0.70344  0.13499  1.0000
  C   C1743     1.0  0.69757  0.91138  0.46976  1.0000
  C   C1744     1.0  0.59511  0.98394  0.25879  1.0000
  C   C1745     1.0  0.77566  0.87238  0.39791  1.0000
  H   H1389     1.0  0.51736  0.80085  0.29841  1.0000
  H   H1390     1.0  0.83681  0.98664  0.12174  1.0000
  H   H1391     1.0  0.95277  0.96877  0.10083  1.0000
  C   C1746     1.0  0.71782  0.96696  0.12426  1.0000
  C   C1747     1.0  0.88785  0.97365  0.18090  1.0000
  C   C1748     1.0  0.63730  0.67535  0.37124  1.0000
  H   H1392     1.0  0.52978  0.93039  0.24323  1.0000
  H   H1393     1.0  0.77539  0.96197  0.30351  1.0000
  H   H1394     1.0  0.96942  0.90579  0.01240  1.0000
  P   P60       1.0  0.57597  0.97148  0.22258  1.0000
  C   C1749     1.0  0.66786  0.68409  0.17475  1.0000
  C   C1750     1.0  0.97518  0.73949  0.17576  1.0000
  H   H1395     1.0  0.91353  0.84106  0.49385  1.0000
  H   H1396     1.0  0.98280  0.88109  0.08954  1.0000
  H   H1397     1.0  0.79585  0.93376  0.46835  1.0000
  C   C1751     1.0  0.61421  0.97444  0.31360  1.0000
  C   C1752     1.0  0.50678  0.72011  0.26170  1.0000
  H   H1398     1.0  0.61466  0.90505  0.45210  1.0000
  H   H1399     1.0  0.80953  0.95705  0.25667  1.0000
  C   C1753     1.0  0.78140  0.95209  0.46515  1.0000
  C   C1754     1.0  0.96678  0.92503  0.09164  1.0000
  C   C1755     1.0  0.89395  0.67701  0.38037  1.0000
  C   C1756     1.0  0.98242  0.90122  0.10349  1.0000
  C   C1757     1.0  0.61671  0.81950  0.49951  1.0000
  C   C1758     1.0  0.53780  0.97577  0.23167  1.0000
  C   C1759     1.0  0.84942  0.70482  0.47244  1.0000
  H   H1400     1.0  0.65296  0.67931  0.39072  1.0000
  H   H1401     1.0  0.67187  0.98152  0.23294  1.0000
  H   H1402     1.0  0.86024  0.65566  0.22038  1.0000
  C   C1760     1.0  0.79312  0.97927  0.45703  1.0000
  H   H1403     1.0  0.81634  0.98182  0.45348  1.0000
  C   C1761     1.0  0.49176  0.69795  0.27803  1.0000
  H   H1404     1.0  0.58393  0.66117  0.29888  1.0000
  C   C1762     1.0  0.67915  0.89679  0.49201  1.0000
  H   H1405     1.0  0.80683  0.72074  0.48472  1.0000
  H   H1406     1.0  0.69182  0.98517  0.28951  1.0000
  C   C1763     1.0  0.97893  0.95241  0.14112  1.0000
  C   C1764     1.0  0.49128  0.95583  0.24916  1.0000
  C   C1765     1.0  0.76330  0.65530  0.22333  1.0000
  C   C1766     1.0  0.82969  0.72102  0.49108  1.0000
  H   H1407     1.0  0.67563  0.98583  0.11578  1.0000
  H   H1408     1.0  0.76548  0.98781  0.19012  1.0000
  H   H1409     1.0  0.48914  0.77980  0.17568  1.0000
  C   C1767     1.0  0.80915  0.65504  0.26853  1.0000
  H   H1410     1.0  0.82700  0.65484  0.28591  1.0000
  Fe  Fe118     1.0  0.62548  0.80254  0.63232  1.0000
  S   S235      1.0  0.59016  0.83515  0.64133  1.0000
  S   S236      1.0  0.65717  0.80452  0.58825  1.0000
  Fe  Fe119     1.0  0.61552  0.77382  0.70130  1.0000
  S   S237      1.0  0.57997  0.80539  0.71456  1.0000
  S   S238      1.0  0.63377  0.74217  0.73992  1.0000
  Fe  Fe120     1.0  0.56500  0.79730  0.66238  1.0000
  S   S239      1.0  0.51687  0.79282  0.65178  1.0000
  Fe  Fe121     1.0  0.60816  0.84052  0.69275  1.0000
  S   S240      1.0  0.61885  0.88688  0.71023  1.0000
  S   S241      1.0  0.59905  0.76395  0.65005  1.0000
  S   S242      1.0  0.64503  0.80963  0.68281  1.0000
  H   H1411     1.0  0.96571  0.80268  0.80432  1.0000
  S   S243      1.0  0.89416  0.69816  0.65278  1.0000
  C   C1768     1.0  0.94267  0.84290  0.85662  1.0000
  Fe  Fe122     1.0  0.87387  0.69223  0.70287  1.0000
  S   S244      1.0  0.85293  0.72670  0.73581  1.0000
  C   C1769     1.0  0.74488  0.66114  0.66034  1.0000
  Fe  Fe123     1.0  0.87805  0.89901  0.89344  1.0000
  S   S245      1.0  0.84799  0.87055  0.86319  1.0000
  S   S246      1.0  0.90360  0.88059  0.93781  1.0000
  Fe  Fe124     1.0  0.87759  0.94755  0.83947  1.0000
  S   S247      1.0  0.84788  0.92241  0.80604  1.0000
  H   H1412     1.0  0.69083  0.72186  0.74597  1.0000
  Fe  Fe125     1.0  0.82346  0.91213  0.85279  1.0000
  S   S248      1.0  0.77409  0.91226  0.85279  1.0000
  Fe  Fe126     1.0  0.87454  0.88290  0.81880  1.0000
  S   S249      1.0  0.89462  0.85379  0.77905  1.0000
  S   S250      1.0  0.85155  0.93986  0.88602  1.0000
  S   S251      1.0  0.90605  0.90889  0.84918  1.0000
  H   H1413     1.0  0.77553  0.68269  0.73628  1.0000
  H   H1414     1.0  0.69524  0.81550  0.53305  1.0000
  H   H1415     1.0  0.61685  0.98068  0.76790  1.0000
  C   C1770     1.0  0.96612  0.76193  0.59215  1.0000
  C   C1771     1.0  0.75673  0.74779  0.76961  1.0000
  C   C1772     1.0  0.86603  0.76133  0.74854  1.0000
  C   C1773     1.0  0.89116  0.77392  0.73524  1.0000
  C   C1774     1.0  0.89981  0.80207  0.74519  1.0000
  C   C1775     1.0  0.88363  0.81783  0.76863  1.0000
  C   C1776     1.0  0.85888  0.80496  0.78240  1.0000
  C   C1777     1.0  0.85003  0.77700  0.77219  1.0000
  H   H1416     1.0  0.90379  0.76212  0.71712  1.0000
  H   H1417     1.0  0.91918  0.81166  0.73471  1.0000
  H   H1418     1.0  0.84646  0.81656  0.80083  1.0000
  H   H1419     1.0  0.83067  0.76745  0.78281  1.0000
  H   H1420     1.0  0.76658  0.76662  0.78131  1.0000
  C   C1778     1.0  0.72694  0.94923  0.85281  1.0000
  C   C1779     1.0  0.75727  0.94669  0.84979  1.0000
  H   H1421     1.0  0.93405  0.84834  0.98774  1.0000
  C   C1780     1.0  0.91989  0.86337  0.00051  1.0000
  H   H1422     1.0  0.71389  0.92997  0.85694  1.0000
  H   H1423     1.0  0.98213  0.77842  0.59832  1.0000
  H   H1424     1.0  0.95538  0.92290  0.89632  1.0000
  C   C1781     1.0  0.50288  0.70544  0.65193  1.0000
  C   C1782     1.0  0.51673  0.73272  0.65117  1.0000
  H   H1425     1.0  0.91507  0.79020  0.51352  1.0000
  C   C1783     1.0  0.85892  0.81497  0.56075  1.0000
  C   C1784     1.0  0.97436  0.72539  0.67643  1.0000
  H   H1426     1.0  0.51570  0.68582  0.64984  1.0000
  H   H1427     1.0  0.54008  0.73403  0.64863  1.0000
  H   H1428     1.0  0.95779  0.68843  0.59315  1.0000
  H   H1429     1.0  0.95114  0.72369  0.68002  1.0000
  C   C1785     1.0  0.62051  0.70732  0.75243  1.0000
  C   C1786     1.0  0.63590  0.69163  0.77664  1.0000
  C   C1787     1.0  0.76367  0.88331  0.52875  1.0000
  H   H1430     1.0  0.93087  0.84351  0.83355  1.0000
  H   H1431     1.0  0.66894  0.96916  0.78125  1.0000
  C   C1788     1.0  0.59516  0.69501  0.73933  1.0000
  H   H1432     1.0  0.65531  0.70098  0.78732  1.0000
  C   C1789     1.0  0.85813  0.84373  0.54947  1.0000
  H   H1433     1.0  0.78248  0.85929  0.56912  1.0000
  H   H1434     1.0  0.58298  0.70676  0.72082  1.0000
  C   C1790     1.0  0.60903  0.90957  0.74409  1.0000
  C   C1791     1.0  0.59223  0.89977  0.77070  1.0000
  C   C1792     1.0  0.58433  0.91919  0.79628  1.0000
  C   C1793     1.0  0.59353  0.94846  0.79582  1.0000
  C   C1794     1.0  0.61019  0.95815  0.76912  1.0000
  C   C1795     1.0  0.61784  0.93888  0.74350  1.0000
  H   H1435     1.0  0.58543  0.87727  0.77149  1.0000
  H   H1436     1.0  0.57127  0.91151  0.81668  1.0000
  H   H1437     1.0  0.67441  0.86337  0.61145  1.0000
  H   H1438     1.0  0.63065  0.94681  0.72296  1.0000
  C   C1796     1.0  0.64982  0.81261  0.54588  1.0000
  C   C1797     1.0  0.62149  0.81425  0.53346  1.0000
  C   C1798     1.0  0.62630  0.66398  0.78739  1.0000
  C   C1799     1.0  0.95246  0.71113  0.58912  1.0000
  C   C1800     1.0  0.67322  0.81680  0.52385  1.0000
  H   H1439     1.0  0.60324  0.81101  0.54992  1.0000
  C   C1801     1.0  0.65773  0.66181  0.69632  1.0000
  H   H1440     1.0  0.61415  0.65727  0.67761  1.0000
  S   S252      1.0  0.58215  0.97272  0.82762  1.0000
  C   C1802     1.0  0.58579  0.66720  0.74983  1.0000
  H   H1441     1.0  0.56644  0.65772  0.73913  1.0000
  P   P61       1.0  0.71489  0.66764  0.71996  1.0000
  C   C1803     1.0  0.49258  0.76931  0.73285  1.0000
  H   H1442     1.0  0.95514  0.84327  0.76669  1.0000
  C   C1804     1.0  0.54206  0.89088  0.67286  1.0000
  C   C1805     1.0  0.54285  0.90282  0.70452  1.0000
  C   C1806     1.0  0.52459  0.89199  0.72931  1.0000
  H   H1443     1.0  0.55319  0.86363  0.84313  1.0000
  H   H1444     1.0  0.53810  0.85857  0.78495  1.0000
  C   C1807     1.0  0.72936  0.92086  0.54418  1.0000
  H   H1445     1.0  0.55700  0.89861  0.65409  1.0000
  H   H1446     1.0  0.55819  0.92005  0.70985  1.0000
  H   H1447     1.0  0.86981  0.91580  0.98516  1.0000
  C   C1808     1.0  0.98331  0.81303  0.79090  1.0000
  C   C1809     1.0  0.93527  0.82230  0.88052  1.0000
  H   H1448     1.0  0.84217  0.85873  0.55924  1.0000
  H   H1449     1.0  0.52185  0.85907  0.64117  1.0000
  H   H1450     1.0  0.88134  0.78614  0.62657  1.0000
  H   H1451     1.0  0.73192  0.67885  0.65094  1.0000
  H   H1452     1.0  0.97009  0.87903  0.84403  1.0000
  H   H1453     1.0  0.49093  0.93983  0.62045  1.0000
  H   H1454     1.0  0.82386  0.74989  0.53220  1.0000
  H   H1455     1.0  0.49087  0.70717  0.89777  1.0000
  H   H1456     1.0  0.51147  0.77392  0.80060  1.0000
  C   C1810     1.0  0.50545  0.86897  0.72253  1.0000
  C   C1811     1.0  0.82225  0.72594  0.62909  1.0000
  C   C1812     1.0  0.93706  0.82545  0.66836  1.0000
  C   C1813     1.0  0.97273  0.84149  0.91648  1.0000
  C   C1814     1.0  0.98170  0.91163  0.74253  1.0000
  H   H1457     1.0  0.98111  0.82403  0.68595  1.0000
  H   H1458     1.0  0.66666  0.81637  0.83219  1.0000
  C   C1815     1.0  0.96477  0.86311  0.86274  1.0000
  C   C1816     1.0  0.89921  0.80505  0.52386  1.0000
  H   H1459     1.0  0.79733  0.72529  0.76376  1.0000
  C   C1817     1.0  0.74352  0.66108  0.87057  1.0000
  C   C1818     1.0  0.90972  0.86860  0.68253  1.0000
  H   H1460     1.0  0.51784  0.80837  0.72992  1.0000
  C   C1819     1.0  0.68432  0.70415  0.67723  1.0000
  C   C1820     1.0  0.48787  0.96293  0.62459  1.0000
  H   H1461     1.0  0.50460  0.76027  0.87800  1.0000
  C   C1821     1.0  0.59054  0.74747  0.81339  1.0000
  C   C1822     1.0  0.58518  0.77485  0.79984  1.0000
  C   C1823     1.0  0.55662  0.78431  0.79560  1.0000
  C   C1824     1.0  0.53343  0.76631  0.80461  1.0000
  C   C1825     1.0  0.53859  0.73866  0.81820  1.0000
  C   C1826     1.0  0.56742  0.72929  0.82228  1.0000
  P   P62       1.0  0.50811  0.71509  0.82760  1.0000
  H   H1462     1.0  0.61678  0.70165  0.64312  1.0000
  H   H1463     1.0  0.51803  0.68118  0.71216  1.0000
  H   H1464     1.0  0.93809  0.80394  0.65745  1.0000
  H   H1465     1.0  0.94449  0.80569  0.92906  1.0000
  C   C1827     1.0  0.73147  0.69919  0.73879  1.0000
  C   C1828     1.0  0.97949  0.86298  0.89302  1.0000
  C   C1829     1.0  0.51335  0.69679  0.76198  1.0000
  C   C1830     1.0  0.75250  0.89177  0.58647  1.0000
  C   C1831     1.0  0.50579  0.69009  0.89089  1.0000
  H   H1466     1.0  0.74157  0.68452  0.86862  1.0000
  C   C1832     1.0  0.69443  0.85352  0.82417  1.0000
  C   C1833     1.0  0.49825  0.69384  0.79190  1.0000
  C   C1834     1.0  0.51766  0.68874  0.85896  1.0000
  H   H1467     1.0  0.88945  0.88052  0.68280  1.0000
  C   C1835     1.0  0.63539  0.69516  0.65771  1.0000
  H   H1468     1.0  0.94831  0.93799  0.81143  1.0000
  C   C1836     1.0  0.49695  0.79923  0.73647  1.0000
  H   H1469     1.0  0.80674  0.70819  0.63037  1.0000
  H   H1470     1.0  0.61273  0.73998  0.81601  1.0000
  H   H1471     1.0  0.60319  0.78841  0.79192  1.0000
  H   H1472     1.0  0.55250  0.80536  0.78466  1.0000
  C   C1837     1.0  0.63399  0.67001  0.67695  1.0000
  H   H1473     1.0  0.57239  0.70796  0.83181  1.0000
  H   H1474     1.0  0.83487  0.71586  0.57963  1.0000
  C   C1838     1.0  0.50391  0.85799  0.69024  1.0000
  C   C1839     1.0  0.91115  0.84124  0.66758  1.0000
  H   H1475     1.0  0.53087  0.71237  0.75927  1.0000
  H   H1476     1.0  0.68766  0.88597  0.51363  1.0000
  C   C1840     1.0  0.52167  0.86019  0.80395  1.0000
  Fe  Fe127     1.0  0.92521  0.66392  0.67097  1.0000
  C   C1841     1.0  0.98557  0.93819  0.72580  1.0000
  H   H1477     1.0  0.69607  0.85901  0.85014  1.0000
  H   H1478     1.0  0.87729  0.87545  0.51675  1.0000
  C   C1842     1.0  0.96349  0.96421  0.77129  1.0000
  C   C1843     1.0  0.73349  0.91407  0.57751  1.0000
  C   C1844     1.0  0.80839  0.86572  0.76507  1.0000
  C   C1845     1.0  0.82406  0.86873  0.73573  1.0000
  C   C1846     1.0  0.80986  0.87712  0.70683  1.0000
  C   C1847     1.0  0.77991  0.88224  0.70720  1.0000
  C   C1848     1.0  0.76381  0.87836  0.73640  1.0000
  C   C1849     1.0  0.77843  0.87066  0.76552  1.0000
  P   P63       1.0  0.72541  0.88661  0.73707  1.0000
  C   C1850     1.0  0.71008  0.88007  0.69656  1.0000
  C   C1851     1.0  0.70703  0.86388  0.76705  1.0000
  C   C1852     1.0  0.69030  0.83980  0.75710  1.0000
  C   C1853     1.0  0.67584  0.82271  0.78052  1.0000
  C   C1854     1.0  0.67794  0.82954  0.81406  1.0000
  C   C1855     1.0  0.83828  0.73044  0.60018  1.0000
  C   C1856     1.0  0.70882  0.87070  0.80080  1.0000
  C   C1857     1.0  0.68927  0.89901  0.68323  1.0000
  C   C1858     1.0  0.67672  0.89313  0.65250  1.0000
  C   C1859     1.0  0.68484  0.86839  0.63478  1.0000
  C   C1860     1.0  0.70560  0.84946  0.64775  1.0000
  C   C1861     1.0  0.71818  0.85522  0.67853  1.0000
  C   C1862     1.0  0.72054  0.92408  0.74927  1.0000
  H   H1479     1.0  0.54837  0.95801  0.74939  1.0000
  C   C1863     1.0  0.53027  0.86271  0.83696  1.0000
  C   C1864     1.0  0.72672  0.74676  0.76452  1.0000
  C   C1865     1.0  0.52240  0.86863  0.66565  1.0000
  C   C1866     1.0  0.69346  0.93336  0.76125  1.0000
  H   H1480     1.0  0.81959  0.86016  0.78771  1.0000
  H   H1481     1.0  0.84731  0.86508  0.73561  1.0000
  H   H1482     1.0  0.82219  0.88010  0.68432  1.0000
  H   H1483     1.0  0.76943  0.88961  0.68483  1.0000
  H   H1484     1.0  0.76706  0.86899  0.78882  1.0000
  H   H1485     1.0  0.68798  0.83427  0.73134  1.0000
  H   H1486     1.0  0.66280  0.80430  0.77252  1.0000
  H   H1487     1.0  0.96542  0.89305  0.95373  1.0000
  H   H1488     1.0  0.90841  0.70212  0.57486  1.0000
  H   H1489     1.0  0.91164  0.72130  0.51328  1.0000
  H   H1490     1.0  0.68181  0.91777  0.69690  1.0000
  C   C1867     1.0  0.92455  0.71900  0.57887  1.0000
  H   H1491     1.0  0.71106  0.82979  0.63434  1.0000
  H   H1492     1.0  0.73358  0.83987  0.68871  1.0000
  H   H1493     1.0  0.76505  0.93734  0.73948  1.0000
  H   H1494     1.0  0.52554  0.90154  0.75362  1.0000
  C   C1868     1.0  0.96796  0.91170  0.77348  1.0000
  H   H1495     1.0  0.72171  0.92589  0.59640  1.0000
  H   H1496     1.0  0.67542  0.91824  0.76320  1.0000
  C   C1869     1.0  0.71412  0.72247  0.74940  1.0000
  H   H1497     1.0  0.79720  0.96987  0.84175  1.0000
  Fe  Fe128     1.0  0.86713  0.65987  0.63562  1.0000
  H   H1498     1.0  0.48865  0.84088  0.68401  1.0000
  C   C1870     1.0  0.77410  0.72451  0.75958  1.0000
  C   C1871     1.0  0.96145  0.83691  0.68442  1.0000
  C   C1872     1.0  0.51319  0.66913  0.91451  1.0000
  C   C1873     1.0  0.73967  0.97288  0.75761  1.0000
  H   H1499     1.0  0.51604  0.86607  0.88757  1.0000
  C   C1874     1.0  0.87980  0.79555  0.54837  1.0000
  C   C1875     1.0  0.66049  0.71232  0.65798  1.0000
  C   C1876     1.0  0.52607  0.96498  0.75245  1.0000
  C   C1877     1.0  0.82706  0.74351  0.65669  1.0000
  H   H1500     1.0  0.91757  0.80722  0.87603  1.0000
  H   H1501     1.0  0.87524  0.67986  0.78277  1.0000
  H   H1502     1.0  0.96341  0.89166  0.78637  1.0000
  C   C1878     1.0  0.86439  0.76978  0.62676  1.0000
  H   H1503     1.0  0.49473  0.97444  0.57359  1.0000
  H   H1504     1.0  0.81507  0.73961  0.67933  1.0000
  C   C1879     1.0  0.93418  0.88027  0.69820  1.0000
  C   C1880     1.0  0.77390  0.97167  0.84434  1.0000
  C   C1881     1.0  0.85917  0.75271  0.59862  1.0000
  P   P64       1.0  0.88103  0.75824  0.56209  1.0000
  C   C1882     1.0  0.68956  0.96222  0.77113  1.0000
  C   C1883     1.0  0.91741  0.74842  0.57446  1.0000
  C   C1884     1.0  0.50026  0.75818  0.65292  1.0000
  H   H1505     1.0  0.75533  0.88630  0.61230  1.0000
  C   C1885     1.0  0.76774  0.87655  0.56212  1.0000
  C   C1886     1.0  0.50937  0.86395  0.86201  1.0000
  C   C1887     1.0  0.97680  0.96437  0.74030  1.0000
  S   S253      1.0  0.97375  0.66636  0.66337  1.0000
  C   C1888     1.0  0.52193  0.98494  0.88977  1.0000
  H   H1506     1.0  0.77579  0.87137  0.51032  1.0000
  C   C1889     1.0  0.96659  0.96272  0.87161  1.0000
  C   C1890     1.0  0.97255  0.93498  0.88402  1.0000
  H   H1507     1.0  0.52042  0.94213  0.79823  1.0000
  H   H1508     1.0  0.63526  0.88341  0.50289  1.0000
  C   C1891     1.0  0.97740  0.83618  0.76961  1.0000
  C   C1892     1.0  0.76161  0.70033  0.74408  1.0000
  C   C1893     1.0  0.68333  0.67859  0.69628  1.0000
  C   C1894     1.0  0.74372  0.94401  0.74772  1.0000
  H   H1509     1.0  0.66127  0.73225  0.64365  1.0000
  C   C1895     1.0  0.95910  0.93793  0.78776  1.0000
  C   C1896     1.0  0.50622  0.67905  0.73515  1.0000
  C   C1897     1.0  0.89834  0.83380  0.51261  1.0000
  H   H1510     1.0  0.70343  0.71794  0.67739  1.0000
  C   C1898     1.0  0.95044  0.82146  0.91037  1.0000
  H   H1511     1.0  0.84310  0.80797  0.57888  1.0000
  C   C1899     1.0  0.51330  0.98309  0.72894  1.0000
  H   H1512     1.0  0.50991  0.75581  0.72320  1.0000
  H   H1513     1.0  0.65976  0.90718  0.64309  1.0000
  C   C1900     1.0  0.84821  0.76535  0.65558  1.0000
  H   H1514     1.0  0.71313  0.76475  0.77228  1.0000
  C   C1901     1.0  0.87789  0.85317  0.52549  1.0000
  H   H1515     1.0  0.72134  0.88935  0.80915  1.0000
  C   C1902     1.0  0.88865  0.72121  0.50774  1.0000
  H   H1516     1.0  0.85258  0.77821  0.67748  1.0000
  C   C1903     1.0  0.49206  0.85943  0.79576  1.0000
  C   C1904     1.0  0.90181  0.88193  0.98194  1.0000
  C   C1905     1.0  0.51033  0.95625  0.78022  1.0000
  H   H1517     1.0  0.93297  0.79278  0.58032  1.0000
  H   H1518     1.0  0.77733  0.65878  0.83453  1.0000
  H   H1519     1.0  0.82752  0.67406  0.75544  1.0000
  C   C1906     1.0  0.86881  0.73672  0.52737  1.0000
  H   H1520     1.0  0.85853  0.98410  0.77206  1.0000
  H   H1521     1.0  0.52479  0.95012  0.85469  1.0000
  C   C1907     1.0  0.93822  0.76991  0.58190  1.0000
  S   S254      1.0  0.90616  0.65952  0.72195  1.0000
  H   H1522     1.0  0.50425  0.67037  0.93922  1.0000
  C   C1908     1.0  0.83938  0.73726  0.51815  1.0000
  C   C1909     1.0  0.74391  0.90508  0.51952  1.0000
  H   H1523     1.0  0.97532  0.77182  0.68347  1.0000
  H   H1524     1.0  0.54531  0.66360  0.82616  1.0000
  H   H1525     1.0  0.70907  0.67209  0.79246  1.0000
  H   H1526     1.0  0.71432  0.93801  0.53756  1.0000
  C   C1910     1.0  0.71340  0.97666  0.85061  1.0000
  H   H1527     1.0  0.89200  0.83204  0.65612  1.0000
  C   C1911     1.0  0.97332  0.73257  0.59532  1.0000
  H   H1528     1.0  0.70998  0.65717  0.90754  1.0000
  C   C1912     1.0  0.96032  0.86455  0.69914  1.0000
  H   H1529     1.0  0.94485  0.97161  0.87378  1.0000
  C   C1913     1.0  0.53639  0.66565  0.85087  1.0000
  C   C1914     1.0  0.51082  0.96146  0.87191  1.0000
  C   C1915     1.0  0.88372  0.90127  0.99893  1.0000
  S   S255      1.0  0.84405  0.65701  0.68439  1.0000
  H   H1530     1.0  0.69004  0.97839  0.85278  1.0000
  H   H1531     1.0  0.93221  0.90113  0.71037  1.0000
  C   C1916     1.0  0.48997  0.98241  0.59819  1.0000
  C   C1917     1.0  0.83314  0.66024  0.77604  1.0000
  C   C1918     1.0  0.86016  0.66332  0.79133  1.0000
  H   H1532     1.0  0.97999  0.98472  0.72731  1.0000
  H   H1533     1.0  0.98427  0.84042  0.93970  1.0000
  C   C1919     1.0  0.71251  0.98201  0.76898  1.0000
  C   C1920     1.0  0.98668  0.89792  0.96389  1.0000
  H   H1534     1.0  0.95604  0.98429  0.78247  1.0000
  H   H1535     1.0  0.76977  0.65773  0.61526  1.0000
  S   S256      1.0  0.83623  0.65490  0.59163  1.0000
  H   H1536     1.0  0.75777  0.98800  0.75727  1.0000
