data_image0
_chemical_formula_structural       CSCSCFeSFeHSPHSHCSHFeSFeS2C3HCH3CH3C2H4FeC6H4CH2CHFeCHC2H3SCHC2HSCPH2C9HC3H2FeHCH4C6PHCHCHC3H2C6H5C2SC2HC3HC2FeC4HCH4C2HCH3C7H2C3H2SH2CH4C4HCH2C6HCH2C3H3C2HC2HCHCSHFeS2HCHFeSCFeS2CH3C6H4SPHCHC2H2C2HCH4CHCHC4H3C2H2C4HCHCHC2H2SH5C7H2CHCH2CHC3HCFeC3H4C7PC14HSC2HCH9C2H2CHC2HC5HCHCPCH3C2SHSH3PC2HC2SH2CHSH2SFeSFeSH3C2H2C2H2C2H2SC3HCH2C6HCPC14HC8H10CHC3HC2HC2SHC7H2C3HC2H3CHCH6CH2C2HCH3C7HC2H4CPHCH2C2H2FeC3H2CHCHCH2S2H2CS2CPHSFeHSCH4FeS2FeHSH3S2C2FeCSH2C2HC6HPHFeHC2HCHC2H3C2HCH2C3HC4HC2HCH2SCHC4HC2HCH3CHCH4CSPCHCH2CHC6HC3H2FeC3H2CH2CH3C2HCH2SH3C3FeCH3C3HC2SCHC2SC2HSHC2PC5HCH3C2SH2FeS2FeCSFe2HS2CHCH2C4H3C3HCH3C2HSFeC6H4CHC7HC3HCH4C6H3C2H2C2HCH8C4SH3C3H4C6PC2HC3HCHCHPCPCHC2SH3SCHFeHSFeS2HSHSC2H6C4HCH2SC7H4CPSH2C3HC3HC3H3C4H3CH2CHSHC3HCH4CHCHCHFeCSCH3C8HCHC9H2C2H2C7HCPH5C2H2C4HCHC2HCHCHFeCH2C2H2C3HC3H3CHC3HFe2S2HFeCSFeS3C2H3C3H2CHC6H4C4HC2HC5H2C6PH2CHCHC3H3C2H3CH7CHC3HCHC4HC3H3CH3C3HC3HC2H2PFeH3CHCHC8H4C2HCHC4PCHC6H2S2HCHC2H3CSH2CHCHC2FeSHCFeS2FeS2FeHSH2FeS2HC2H2C3HC6H4C4SCHCHC2H3CHC2HCHCH3CH3C4PC3FeH2C3HPCHC2H3CHCSCHC10HCH3CHCHC5HC2H2CH2C3FeHC2HSH3CH4CFeS2CSFeCSFeS2Fe2CS2FeS2CH2C2H2FeC4HPH3C2H2CHSHCH2CH2C4HCH6CHCFeCHCH3C5H2C2H7C7PC9HC4HCHCH11SC2H2CHCHC2H2C2H3C2HSHC3HCSHC5FeHC2HCSHC3FeCSHC4FeCSFeS2FeCFeS2C3SHC2H5C4H2CHC2H2CHC2HCHCHCH2C4FeC2HC6PHCH2C2H2C2H2C3HC2HPCHC9HC2HCHFeHCH2CHC2H6CH3C3HCHC3PH4SCSHPC2H3C7H2C2HCH2SCSCH4CHC2HC4H2SHSC3H2CH2C3HC2HC3HCHCHC4H2C3H2CHFeS2H2SHFeSCFeS2FeSCSHC8HFeH3C4H4C6H4C3HCH3C3SCH2C4H2CH3C3HCH2CHCHCHCHC2HC7PC2H7CH3FeSC6PC3H2C13H5C2H4CH3CHC2H3CH3CPC4HCH2C2SCHPCH2CH3CH2SHCHCH2CHCHC3H3C2SHCH3C4FeCSFeCHC2HCS2HFeS2FeCSHFeS2HC2H2CH3CHC2SCH2C2FeC7H6C5HFeCHC3H2CH3CH2C3H4CHC2HCHC2HCHCH2CH2C2HCH2CHCH2C2HC2HCHC6HC5HCHCSHC2SCHPCHCH2C3SC3HCHCHCH2CHC2H2SCH3C2H3PCSCH8CSHP
_chemical_formula_sum              "C1080 S144 Fe72 H864 P36"
_cell_length_a       38.8176
_cell_length_b       39.0391
_cell_length_c       36.5446
_cell_angle_alpha    89.4472
_cell_angle_beta     90.1299
_cell_angle_gamma    119.157

_space_group_name_H-M_alt    "P 1"
_space_group_IT_number       1

loop_
  _space_group_symop_operation_xyz
  'x, y, z'

loop_
  _atom_site_type_symbol
  _atom_site_label
  _atom_site_symmetry_multiplicity
  _atom_site_fract_x
  _atom_site_fract_y
  _atom_site_fract_z
  _atom_site_occupancy
  C   C1        1.0  0.31006  0.06569  0.38937  1.0000
  S   S1        1.0  0.44369  0.11504  0.00864  1.0000
  C   C2        1.0  0.10736  0.24107  0.04589  1.0000
  S   S2        1.0  0.46196  0.09018  0.08850  1.0000
  C   C3        1.0  0.32072  0.35267  0.99786  1.0000
  Fe  Fe1       1.0  0.43029  0.12201  0.06735  1.0000
  S   S3        1.0  0.44111  0.18085  0.09058  1.0000
  Fe  Fe2       1.0  0.46859  0.07720  0.02958  1.0000
  H   H1        1.0  0.37714  0.12514  0.99138  1.0000
  S   S4        1.0  0.37050  0.06843  0.06779  1.0000
  P   P1        1.0  0.42208  0.18479  0.26632  1.0000
  H   H2        1.0  0.07610  0.22055  0.04429  1.0000
  S   S5        1.0  0.28008  0.28921  0.16479  1.0000
  H   H3        1.0  0.35456  0.19237  0.23711  1.0000
  C   C4        1.0  0.46175  0.29631  0.22574  1.0000
  S   S6        1.0  0.29861  0.27620  0.24933  1.0000
  H   H4        1.0  0.45021  0.27207  0.06022  1.0000
  Fe  Fe3       1.0  0.31618  0.26578  0.19327  1.0000
  S   S7        1.0  0.31147  0.20753  0.17509  1.0000
  Fe  Fe4       1.0  0.26892  0.30628  0.22069  1.0000
  S   S8        1.0  0.20912  0.29913  0.23779  1.0000
  S   S9        1.0  0.37265  0.32301  0.19160  1.0000
  C   C5        1.0  0.41536  0.28566  0.27440  1.0000
  C   C6        1.0  0.21438  0.29267  0.35769  1.0000
  C   C7        1.0  0.16600  0.32631  0.27566  1.0000
  H   H5        1.0  0.12730  0.29282  0.36698  1.0000
  C   C8        1.0  0.30031  0.32665  0.02665  1.0000
  H   H6        1.0  0.43029  0.31442  0.36394  1.0000
  H   H7        1.0  0.29616  0.31647  0.08508  1.0000
  H   H8        1.0  0.27513  0.29862  0.02065  1.0000
  C   C9        1.0  0.35035  0.32399  0.41113  1.0000
  H   H9        1.0  0.49879  0.14215  0.15778  1.0000
  H   H10       1.0  0.30555  0.24348  0.98700  1.0000
  H   H11       1.0  0.44484  0.33897  0.24265  1.0000
  C   C10       1.0  0.33864  0.31807  0.34522  1.0000
  C   C11       1.0  0.32569  0.30545  0.38126  1.0000
  H   H12       1.0  0.29019  0.09651  0.18123  1.0000
  H   H13       1.0  0.14111  0.29305  0.13258  1.0000
  H   H14       1.0  0.31914  0.30366  0.32262  1.0000
  H   H15       1.0  0.29635  0.28120  0.38600  1.0000
  Fe  Fe5       1.0  0.35284  0.33540  0.24558  1.0000
  C   C12       1.0  0.40488  0.18718  0.11513  1.0000
  C   C13       1.0  0.41629  0.22229  0.13411  1.0000
  C   C14       1.0  0.38821  0.22932  0.15218  1.0000
  C   C15       1.0  0.34827  0.20086  0.15209  1.0000
  C   C16       1.0  0.33699  0.16541  0.13381  1.0000
  C   C17       1.0  0.36505  0.15847  0.11567  1.0000
  H   H16       1.0  0.44708  0.24427  0.13470  1.0000
  H   H17       1.0  0.39749  0.25668  0.16625  1.0000
  H   H18       1.0  0.30617  0.14348  0.13297  1.0000
  H   H19       1.0  0.35564  0.13127  0.10134  1.0000
  C   C18       1.0  0.09620  0.31538  0.20040  1.0000
  H   H20       1.0  0.46962  0.31398  0.41732  1.0000
  H   H21       1.0  0.33992  0.19791  0.39133  1.0000
  C   C19       1.0  0.39117  0.22177  0.42663  1.0000
  H   H22       1.0  0.15995  0.26546  0.32763  1.0000
  Fe  Fe6       1.0  0.40259  0.03629  0.08572  1.0000
  C   C20       1.0  0.45268  0.20996  0.33705  1.0000
  H   H23       1.0  0.14054  0.29971  0.26668  1.0000
  C   C21       1.0  0.21661  0.33229  0.40953  1.0000
  C   C22       1.0  0.48574  0.17968  0.23702  1.0000
  H   H24       1.0  0.43466  0.18992  0.97664  1.0000
  H   H25       1.0  0.21345  0.20084  0.06783  1.0000
  H   H26       1.0  0.30200  0.05588  0.28269  1.0000
  S   S10       1.0  0.38860  0.03816  0.29669  1.0000
  C   C23       1.0  0.36882  0.22256  0.39666  1.0000
  H   H27       1.0  0.40333  0.08141  0.22959  1.0000
  C   C24       1.0  0.36178  0.13290  0.39592  1.0000
  C   C25       1.0  0.16061  0.35292  0.29757  1.0000
  H   H28       1.0  0.32264  0.18077  0.04916  1.0000
  S   S11       1.0  0.34090  0.04567  0.96462  1.0000
  C   C26       1.0  0.44189  0.28808  0.41112  1.0000
  P   P2        1.0  0.08720  0.29491  0.07561  1.0000
  H   H29       1.0  0.26764  0.04265  0.43310  1.0000
  H   H30       1.0  0.41427  0.13444  0.44750  1.0000
  C   C27       1.0  0.09145  0.30345  0.12443  1.0000
  C   C28       1.0  0.06661  0.31729  0.18022  1.0000
  C   C29       1.0  0.30306  0.13750  0.24783  1.0000
  C   C30       1.0  0.28786  0.09903  0.26079  1.0000
  C   C31       1.0  0.31344  0.08608  0.27379  1.0000
  C   C32       1.0  0.35401  0.11197  0.27505  1.0000
  C   C33       1.0  0.36949  0.15117  0.26366  1.0000
  C   C34       1.0  0.34370  0.16325  0.24861  1.0000
  C   C35       1.0  0.44056  0.18018  0.31076  1.0000
  H   H31       1.0  0.09838  0.32066  0.22961  1.0000
  C   C36       1.0  0.47079  0.17262  0.37863  1.0000
  C   C37       1.0  0.45906  0.14300  0.35267  1.0000
  C   C38       1.0  0.44456  0.14699  0.31878  1.0000
  H   H32       1.0  0.28350  0.14738  0.23649  1.0000
  H   H33       1.0  0.48107  0.31477  0.20409  1.0000
  Fe  Fe7       1.0  0.33600  0.34676  0.16532  1.0000
  H   H34       1.0  0.37305  0.10101  0.28469  1.0000
  C   C39       1.0  0.43070  0.23420  0.25903  1.0000
  H   H35       1.0  0.48236  0.16965  0.40477  1.0000
  H   H36       1.0  0.46133  0.11689  0.35859  1.0000
  H   H37       1.0  0.43706  0.12427  0.29864  1.0000
  H   H38       1.0  0.38913  0.22930  0.30081  1.0000
  C   C40       1.0  0.27251  0.22504  0.08866  1.0000
  C   C41       1.0  0.24449  0.21452  0.06088  1.0000
  C   C42       1.0  0.40359  0.33499  0.99213  1.0000
  C   C43       1.0  0.29672  0.23879  0.01550  1.0000
  C   C44       1.0  0.32505  0.24968  0.04331  1.0000
  C   C45       1.0  0.31260  0.24232  0.07995  1.0000
  P   P3        1.0  0.37555  0.26460  0.03167  1.0000
  H   H39       1.0  0.21411  0.35198  0.16821  1.0000
  C   C46       1.0  0.15704  0.29882  0.37309  1.0000
  H   H40       1.0  0.45101  0.23638  0.33183  1.0000
  C   C47       1.0  0.39606  0.05185  0.22263  1.0000
  H   H41       1.0  0.04571  0.32369  0.19390  1.0000
  C   C48       1.0  0.44129  0.30992  0.24729  1.0000
  C   C49       1.0  0.41015  0.18829  0.99214  1.0000
  C   C50       1.0  0.41054  0.22262  0.00335  1.0000
  H   H42       1.0  0.25640  0.07900  0.25985  1.0000
  H   H43       1.0  0.26527  0.32429  0.39161  1.0000
  C   C51       1.0  0.40919  0.29428  0.06714  1.0000
  C   C52       1.0  0.52635  0.04305  0.98202  1.0000
  C   C53       1.0  0.38300  0.25585  0.37414  1.0000
  C   C54       1.0  0.23486  0.31686  0.38697  1.0000
  C   C55       1.0  0.25658  0.22122  0.02427  1.0000
  C   C56       1.0  0.44411  0.29294  0.07401  1.0000
  H   H44       1.0  0.13120  0.34693  0.30479  1.0000
  H   H45       1.0  0.12347  0.20051  0.02212  1.0000
  H   H46       1.0  0.53636  0.09501  0.18848  1.0000
  H   H47       1.0  0.22905  0.28187  0.33969  1.0000
  H   H48       1.0  0.33368  0.24890  0.10183  1.0000
  C   C57       1.0  0.17542  0.28347  0.35088  1.0000
  C   C58       1.0  0.41000  0.24802  0.28020  1.0000
  S   S12       1.0  0.07662  0.35031  0.36483  1.0000
  C   C59       1.0  0.20401  0.33349  0.26590  1.0000
  C   C60       1.0  0.47154  0.31842  0.09933  1.0000
  H   H49       1.0  0.47710  0.22925  0.39081  1.0000
  C   C61       1.0  0.31135  0.10279  0.44263  1.0000
  C   C62       1.0  0.46437  0.34549  0.11787  1.0000
  C   C63       1.0  0.45650  0.25854  0.23151  1.0000
  H   H50       1.0  0.47197  0.24828  0.21401  1.0000
  C   C64       1.0  0.39504  0.04155  0.18568  1.0000
  C   C65       1.0  0.34427  0.09801  0.37616  1.0000
  Fe  Fe8       1.0  0.38552  0.05954  0.01023  1.0000
  C   C66       1.0  0.37800  0.15173  0.00075  1.0000
  C   C67       1.0  0.41967  0.28843  0.38113  1.0000
  C   C68       1.0  0.40212  0.32131  0.08620  1.0000
  C   C69       1.0  0.34719  0.18355  0.03299  1.0000
  H   H51       1.0  0.37563  0.32318  0.08120  1.0000
  C   C70       1.0  0.12283  0.30656  0.18290  1.0000
  H   H52       1.0  0.38838  0.15751  0.38544  1.0000
  H   H53       1.0  0.26789  0.35474  0.12967  1.0000
  H   H54       1.0  0.50154  0.19366  0.26175  1.0000
  H   H55       1.0  0.35762  0.09565  0.35102  1.0000
  C   C71       1.0  0.37858  0.22055  0.02314  1.0000
  C   C72       1.0  0.09818  0.33880  0.04963  1.0000
  H   H56       1.0  0.36500  0.25692  0.35191  1.0000
  C   C73       1.0  0.31209  0.33684  0.06314  1.0000
  H   H57       1.0  0.50788  0.04919  0.14228  1.0000
  H   H58       1.0  0.39875  0.29572  0.29054  1.0000
  H   H59       1.0  0.26322  0.21905  0.11705  1.0000
  C   C74       1.0  0.34566  0.13555  0.42947  1.0000
  C   C75       1.0  0.18854  0.29295  0.04928  1.0000
  C   C76       1.0  0.17472  0.25550  0.03498  1.0000
  C   C77       1.0  0.13417  0.22956  0.03328  1.0000
  C   C78       1.0  0.50444  0.16875  0.21054  1.0000
  C   C79       1.0  0.12108  0.27887  0.05996  1.0000
  C   C80       1.0  0.16184  0.30487  0.06113  1.0000
  H   H60       1.0  0.21999  0.31271  0.05119  1.0000
  H   H61       1.0  0.19550  0.24673  0.02511  1.0000
  C   C81       1.0  0.17756  0.32331  0.40224  1.0000
  C   C82       1.0  0.42750  0.15517  0.19887  1.0000
  C   C83       1.0  0.30796  0.05508  0.16351  1.0000
  H   H62       1.0  0.14546  0.30446  0.19861  1.0000
  H   H63       1.0  0.10636  0.31610  0.99841  1.0000
  S   S13       1.0  0.52504  0.08243  0.00487  1.0000
  H   H64       1.0  0.39786  0.14998  0.19360  1.0000
  H   H65       1.0  0.33895  0.07676  0.16155  1.0000
  C   C84       1.0  0.12038  0.30035  0.14514  1.0000
  H   H66       1.0  0.16304  0.33579  0.41822  1.0000
  H   H67       1.0  0.49829  0.31702  0.10455  1.0000
  H   H68       1.0  0.21927  0.04701  0.18574  1.0000
  H   H69       1.0  0.17293  0.33423  0.07154  1.0000
  C   C85       1.0  0.41638  0.35814  0.96038  1.0000
  C   C86       1.0  0.46782  0.20617  0.37073  1.0000
  C   C87       1.0  0.44686  0.17231  0.23158  1.0000
  C   C88       1.0  0.44623  0.14407  0.17268  1.0000
  H   H70       1.0  0.43083  0.13012  0.14780  1.0000
  C   C89       1.0  0.10600  0.34050  0.01192  1.0000
  H   H71       1.0  0.22865  0.33529  0.95862  1.0000
  H   H72       1.0  0.40118  0.06291  0.16420  1.0000
  C   C90       1.0  0.29350  0.06818  0.42243  1.0000
  C   C91       1.0  0.48457  0.15077  0.17841  1.0000
  C   C92       1.0  0.38508  0.27692  0.95597  1.0000
  C   C93       1.0  0.37662  0.34914  0.33861  1.0000
  C   C94       1.0  0.42768  0.25494  0.43392  1.0000
  C   C95       1.0  0.34690  0.14933  0.02167  1.0000
  H   H73       1.0  0.48555  0.03774  0.35674  1.0000
  C   C96       1.0  0.28047  0.06618  0.17463  1.0000
  H   H74       1.0  0.40533  0.34915  0.01786  1.0000
  H   H75       1.0  0.29678  0.03843  0.37440  1.0000
  C   C97       1.0  0.06408  0.31124  0.14244  1.0000
  C   C98       1.0  0.38872  0.29425  0.99033  1.0000
  C   C99       1.0  0.51746  0.03720  0.12055  1.0000
  H   H76       1.0  0.23498  0.21288  0.00261  1.0000
  H   H77       1.0  0.32254  0.12086  0.02905  1.0000
  H   H78       1.0  0.43523  0.25076  0.99572  1.0000
  C   C100      1.0  0.51019  0.03203  0.35504  1.0000
  C   C101      1.0  0.42970  0.34697  0.11120  1.0000
  H   H79       1.0  0.52742  0.08295  0.25494  1.0000
  C   C102      1.0  0.38835  0.35517  0.40466  1.0000
  C   C103      1.0  0.24051  0.03823  0.17718  1.0000
  H   H80       1.0  0.53422  0.17407  0.21496  1.0000
  C   C104      1.0  0.42593  0.20060  0.51337  1.0000
  H   H81       1.0  0.49337  0.17307  0.53878  1.0000
  C   C105      1.0  0.05746  0.34991  0.51434  1.0000
  S   S14       1.0  0.10504  0.29201  0.75314  1.0000
  H   H82       1.0  0.06850  0.24718  0.59308  1.0000
  Fe  Fe9       1.0  0.30389  0.05955  0.69576  1.0000
  S   S15       1.0  0.36012  0.05645  0.69454  1.0000
  S   S16       1.0  0.29756  0.11107  0.67301  1.0000
  H   H83       1.0  0.24760  0.33046  0.62650  1.0000
  C   C106      1.0  0.41069  0.17758  0.48198  1.0000
  H   H84       1.0  0.42738  0.04869  0.86509  1.0000
  Fe  Fe10      1.0  0.37420  0.33374  0.50380  1.0000
  S   S17       1.0  0.43191  0.33373  0.50587  1.0000
  C   C107      1.0  0.14671  0.33124  0.77454  1.0000
  Fe  Fe11      1.0  0.41551  0.31297  0.56434  1.0000
  S   S18       1.0  0.42687  0.26537  0.58936  1.0000
  S   S19       1.0  0.35587  0.30862  0.56080  1.0000
  C   C108      1.0  0.40407  0.06981  0.57280  1.0000
  H   H85       1.0  0.46720  0.13257  0.48320  1.0000
  H   H86       1.0  0.22843  0.34752  0.82391  1.0000
  H   H87       1.0  0.27256  0.19333  0.56351  1.0000
  C   C109      1.0  0.33400  0.15346  0.64950  1.0000
  C   C110      1.0  0.37177  0.15906  0.64207  1.0000
  C   C111      1.0  0.39982  0.19341  0.62373  1.0000
  C   C112      1.0  0.39041  0.22240  0.61225  1.0000
  C   C113      1.0  0.35262  0.21671  0.61966  1.0000
  C   C114      1.0  0.32479  0.18270  0.63851  1.0000
  H   H88       1.0  0.37942  0.13698  0.65050  1.0000
  H   H89       1.0  0.42896  0.19748  0.61839  1.0000
  H   H90       1.0  0.34483  0.23857  0.61096  1.0000
  H   H91       1.0  0.29582  0.17889  0.64436  1.0000
  S   S20       1.0  0.05527  0.33187  0.46968  1.0000
  P   P4        1.0  0.48348  0.03859  0.61407  1.0000
  H   H92       1.0  0.51696  0.33186  0.58293  1.0000
  C   C115      1.0  0.19799  0.16408  0.71559  1.0000
  H   H93       1.0  0.29002  0.35650  0.56981  1.0000
  C   C116      1.0  0.54051  0.04065  0.48608  1.0000
  C   C117      1.0  0.25100  0.33930  0.48384  1.0000
  H   H94       1.0  0.38318  0.07808  0.58354  1.0000
  H   H95       1.0  0.48002  0.08133  0.67837  1.0000
  C   C118      1.0  0.51353  0.04853  0.46717  1.0000
  C   C119      1.0  0.52279  0.13673  0.74615  1.0000
  H   H96       1.0  0.16882  0.15054  0.70354  1.0000
  C   C120      1.0  0.17427  0.32360  0.79275  1.0000
  H   H97       1.0  0.19533  0.21502  0.73414  1.0000
  H   H98       1.0  0.46693  0.21678  0.55801  1.0000
  H   H99       1.0  0.16962  0.29395  0.79376  1.0000
  H   H100      1.0  0.29380  0.23710  0.50857  1.0000
  C   C121      1.0  0.24304  0.27936  0.51225  1.0000
  H   H101      1.0  0.48836  0.08398  0.84003  1.0000
  C   C122      1.0  0.33894  0.04501  0.85334  1.0000
  H   H102      1.0  0.33548  0.23099  0.46200  1.0000
  C   C123      1.0  0.40023  0.04835  0.87187  1.0000
  C   C124      1.0  0.23426  0.35516  0.67356  1.0000
  C   C125      1.0  0.41437  0.34083  0.92660  1.0000
  C   C126      1.0  0.45623  0.04618  0.54527  1.0000
  H   H103      1.0  0.39632  0.28672  0.89810  1.0000
  H   H104      1.0  0.49113  0.16711  0.76111  1.0000
  H   H105      1.0  0.34739  0.13504  0.84704  1.0000
  C   C127      1.0  0.46171  0.05025  0.68373  1.0000
  C   C128      1.0  0.14034  0.30481  0.65271  1.0000
  H   H106      1.0  0.41131  0.05147  0.93012  1.0000
  H   H107      1.0  0.53475  0.10140  0.56328  1.0000
  C   C129      1.0  0.39107  0.04975  0.90889  1.0000
  C   C130      1.0  0.10580  0.27301  0.63975  1.0000
  C   C131      1.0  0.12188  0.29976  0.57826  1.0000
  C   C132      1.0  0.32636  0.21114  0.48529  1.0000
  H   H108      1.0  0.11423  0.29814  0.54954  1.0000
  C   C133      1.0  0.04705  0.32366  0.54396  1.0000
  H   H109      1.0  0.44489  0.25576  0.45753  1.0000
  C   C134      1.0  0.26146  0.30001  0.54394  1.0000
  H   H110      1.0  0.37238  0.11035  0.79730  1.0000
  C   C135      1.0  0.42757  0.06198  0.59680  1.0000
  C   C136      1.0  0.45570  0.19905  0.53367  1.0000
  H   H111      1.0  0.08589  0.25076  0.65885  1.0000
  H   H112      1.0  0.37810  0.33763  0.84677  1.0000
  S   S21       1.0  0.05347  0.35527  0.73409  1.0000
  H   H113      1.0  0.38663  0.06957  0.51676  1.0000
  H   H114      1.0  0.29402  0.14333  0.57122  1.0000
  H   H115      1.0  0.30317  0.04715  0.89723  1.0000
  H   H116      1.0  0.28383  0.30399  0.66173  1.0000
  H   H117      1.0  0.25976  0.34633  0.76113  1.0000
  C   C137      1.0  0.09615  0.27089  0.60269  1.0000
  C   C138      1.0  0.49971  0.14559  0.76935  1.0000
  C   C139      1.0  0.26910  0.35975  0.51591  1.0000
  C   C140      1.0  0.30245  0.21470  0.51183  1.0000
  C   C141      1.0  0.23798  0.29892  0.48219  1.0000
  C   C142      1.0  0.29057  0.19015  0.54267  1.0000
  C   C143      1.0  0.22078  0.14534  0.71379  1.0000
  H   H118      1.0  0.26197  0.24625  0.76108  1.0000
  H   H119      1.0  0.08668  0.35790  0.89347  1.0000
  C   C144      1.0  0.15704  0.33112  0.59100  1.0000
  H   H120      1.0  0.29056  0.31244  0.72910  1.0000
  C   C145      1.0  0.47059  0.17457  0.52278  1.0000
  H   H121      1.0  0.23347  0.24833  0.51058  1.0000
  H   H122      1.0  0.42437  0.06453  0.62586  1.0000
  C   C146      1.0  0.21293  0.20037  0.73282  1.0000
  H   H123      1.0  0.46920  0.13295  0.82113  1.0000
  C   C147      1.0  0.49815  0.09845  0.81376  1.0000
  C   C148      1.0  0.40605  0.06507  0.53516  1.0000
  C   C149      1.0  0.33881  0.18303  0.48955  1.0000
  H   H124      1.0  0.20955  0.11733  0.70022  1.0000
  C   C150      1.0  0.32710  0.15878  0.52086  1.0000
  Fe  Fe12      1.0  0.05295  0.29791  0.73113  1.0000
  C   C151      1.0  0.16602  0.33431  0.62851  1.0000
  C   C152      1.0  0.27012  0.31855  0.67583  1.0000
  C   C153      1.0  0.27470  0.34025  0.54568  1.0000
  H   H125      1.0  0.26614  0.28501  0.56689  1.0000
  H   H126      1.0  0.41468  0.21968  0.52236  1.0000
  H   H127      1.0  0.22444  0.28251  0.45768  1.0000
  H   H128      1.0  0.33713  0.13756  0.52526  1.0000
  C   C154      1.0  0.39844  0.30021  0.92437  1.0000
  C   C155      1.0  0.36489  0.14528  0.75544  1.0000
  C   C156      1.0  0.36318  0.13190  0.79130  1.0000
  C   C157      1.0  0.34908  0.14592  0.81931  1.0000
  C   C158      1.0  0.33692  0.17359  0.81151  1.0000
  C   C159      1.0  0.33898  0.18755  0.77552  1.0000
  C   C160      1.0  0.35284  0.17292  0.74758  1.0000
  P   P5        1.0  0.32332  0.22317  0.76438  1.0000
  C   C161      1.0  0.32413  0.24966  0.80486  1.0000
  C   C162      1.0  0.35674  0.25631  0.73008  1.0000
  C   C163      1.0  0.39708  0.26776  0.73173  1.0000
  C   C164      1.0  0.42259  0.29053  0.70364  1.0000
  C   C165      1.0  0.40813  0.30250  0.67401  1.0000
  C   C166      1.0  0.36834  0.29243  0.67280  1.0000
  C   C167      1.0  0.34264  0.26930  0.70062  1.0000
  C   C168      1.0  0.29366  0.23173  0.83085  1.0000
  C   C169      1.0  0.29401  0.25173  0.86250  1.0000
  C   C170      1.0  0.32461  0.28976  0.86830  1.0000
  C   C171      1.0  0.35474  0.30791  0.84242  1.0000
  C   C172      1.0  0.35458  0.28807  0.81073  1.0000
  C   C173      1.0  0.27375  0.19925  0.74643  1.0000
  C   C174      1.0  0.25846  0.16279  0.72923  1.0000
  H   H129      1.0  0.44278  0.05953  0.73638  1.0000
  S   S22       1.0  0.38722  0.04479  0.79760  1.0000
  C   C175      1.0  0.48754  0.12655  0.80321  1.0000
  C   C176      1.0  0.25067  0.21794  0.74817  1.0000
  H   H130      1.0  0.37500  0.13384  0.73352  1.0000
  C   C177      1.0  0.30271  0.16203  0.54705  1.0000
  H   H131      1.0  0.32612  0.18391  0.83367  1.0000
  H   H132      1.0  0.35406  0.18267  0.71955  1.0000
  H   H133      1.0  0.40867  0.25833  0.75432  1.0000
  H   H134      1.0  0.45344  0.29839  0.70453  1.0000
  H   H135      1.0  0.42767  0.31940  0.65183  1.0000
  H   H136      1.0  0.35739  0.30221  0.64993  1.0000
  H   H137      1.0  0.31183  0.26111  0.69855  1.0000
  H   H138      1.0  0.26969  0.20222  0.82667  1.0000
  H   H139      1.0  0.27048  0.23797  0.88250  1.0000
  C   C178      1.0  0.43222  0.05338  0.52139  1.0000
  C   C179      1.0  0.45350  0.04957  0.58325  1.0000
  H   H140      1.0  0.37804  0.30311  0.79092  1.0000
  H   H141      1.0  0.27557  0.14781  0.72739  1.0000
  C   C180      1.0  0.45582  0.15176  0.49143  1.0000
  H   H142      1.0  0.32491  0.30532  0.89275  1.0000
  C   C181      1.0  0.35547  0.04819  0.91833  1.0000
  C   C182      1.0  0.53138  0.08138  0.61934  1.0000
  H   H143      1.0  0.47630  0.03709  0.53417  1.0000
  C   C183      1.0  0.32995  0.04673  0.89034  1.0000
  C   C184      1.0  0.42580  0.15302  0.47118  1.0000
  C   C185      1.0  0.25681  0.34271  0.73174  1.0000
  C   C186      1.0  0.27377  0.32314  0.71374  1.0000
  C   C187      1.0  0.20775  0.35401  0.80984  1.0000
  H   H144      1.0  0.29849  0.10340  0.46861  1.0000
  C   C188      1.0  0.52014  0.08827  0.79016  1.0000
  H   H145      1.0  0.37225  0.24546  0.95348  1.0000
  C   C189      1.0  0.37417  0.04576  0.84390  1.0000
  P   P6        1.0  0.37153  0.17934  0.45665  1.0000
  C   C190      1.0  0.25003  0.33407  0.65588  1.0000
  H   H146      1.0  0.14665  0.30674  0.68179  1.0000
  H   H147      1.0  0.50273  0.33369  0.64850  1.0000
  H   H148      1.0  0.17880  0.34023  0.49620  1.0000
  C   C191      1.0  0.53304  0.10826  0.75648  1.0000
  C   C192      1.0  0.44054  0.03805  0.71656  1.0000
  S   S23       1.0  0.30629  0.33791  0.95238  1.0000
  H   H149      1.0  0.17667  0.35272  0.57153  1.0000
  S   S24       1.0  0.28944  0.03791  0.75436  1.0000
  H   H150      1.0  0.31868  0.04338  0.83221  1.0000
  H   H151      1.0  0.51792  0.07810  0.46656  1.0000
  H   H152      1.0  0.43326  0.04901  0.49227  1.0000
  P   P7        1.0  0.53116  0.04967  0.80309  1.0000
  C   C193      1.0  0.51777  0.36088  0.63302  1.0000
  C   C194      1.0  0.52601  0.35981  0.59599  1.0000
  H   H153      1.0  0.53242  0.15167  0.71995  1.0000
  C   C195      1.0  0.23670  0.35829  0.71185  1.0000
  C   C196      1.0  0.04606  0.33588  0.57970  1.0000
  S   S25       1.0  0.33252  0.30747  0.45599  1.0000
  H   H154      1.0  0.53975  0.06745  0.67501  1.0000
  H   H155      1.0  0.42478  0.35884  0.90210  1.0000
  C   C197      1.0  0.04819  0.39012  0.24068  1.0000
  H   H156      1.0  0.09158  0.55006  0.16893  1.0000
  S   S26       1.0  0.09334  0.43673  0.33331  1.0000
  H   H157      1.0  0.43074  0.39191  0.36380  1.0000
  H   H158      1.0  0.44141  0.46070  0.09306  1.0000
  S   S27       1.0  0.12112  0.42982  0.41566  1.0000
  Fe  Fe13      1.0  0.08022  0.44898  0.39030  1.0000
  S   S28       1.0  0.08202  0.50686  0.40394  1.0000
  Fe  Fe14      1.0  0.12822  0.41083  0.35928  1.0000
  S   S29       1.0  0.18796  0.42147  0.33798  1.0000
  H   H159      1.0  0.32928  0.45389  0.34738  1.0000
  H   H160      1.0  0.11834  0.53441  0.31008  1.0000
  H   H161      1.0  0.39051  0.43022  0.43348  1.0000
  C   C198      1.0  0.09796  0.37096  0.06622  1.0000
  C   C199      1.0  0.36414  0.39984  0.04225  1.0000
  H   H162      1.0  0.36820  0.41000  0.98378  1.0000
  H   H163      1.0  0.38886  0.42830  0.04809  1.0000
  C   C200      1.0  0.19327  0.38705  0.31023  1.0000
  C   C201      1.0  0.51783  0.46103  0.26205  1.0000
  H   H164      1.0  0.09760  0.69029  0.32280  1.0000
  H   H165      1.0  0.25677  0.42058  0.30990  1.0000
  C   C202      1.0  0.10350  0.40337  0.04519  1.0000
  C   C203      1.0  0.36405  0.44544  0.38886  1.0000
  H   H166      1.0  0.08848  0.42110  0.19644  1.0000
  H   H167      1.0  0.44617  0.46832  0.95653  1.0000
  S   S30       1.0  0.35886  0.38850  0.11652  1.0000
  C   C204      1.0  0.23055  0.36380  0.96129  1.0000
  C   C205      1.0  0.53028  0.55867  0.45216  1.0000
  C   C206      1.0  0.35244  0.38955  0.00576  1.0000
  H   H168      1.0  0.11277  0.42870  0.99101  1.0000
  C   C207      1.0  0.50352  0.49564  0.10463  1.0000
  H   H169      1.0  0.06755  0.64664  0.20020  1.0000
  H   H170      1.0  0.40766  0.36968  0.42748  1.0000
  C   C208      1.0  0.29199  0.39876  0.42504  1.0000
  C   C209      1.0  0.04568  0.50599  0.13634  1.0000
  C   C210      1.0  0.53292  0.50711  0.13132  1.0000
  C   C211      1.0  0.24671  0.41616  0.07931  1.0000
  C   C212      1.0  0.26463  0.39385  0.08960  1.0000
  C   C213      1.0  0.05820  0.40098  0.20378  1.0000
  H   H171      1.0  0.25130  0.37113  0.01645  1.0000
  C   C214      1.0  0.52321  0.49184  0.16714  1.0000
  P   P8        1.0  0.26513  0.44858  0.03978  1.0000
  C   C215      1.0  0.24996  0.48547  0.04305  1.0000
  C   C216      1.0  0.31848  0.47204  0.03911  1.0000
  C   C217      1.0  0.33996  0.47988  0.07189  1.0000
  C   C218      1.0  0.38112  0.49699  0.07107  1.0000
  C   C219      1.0  0.40119  0.50683  0.03760  1.0000
  C   C220      1.0  0.38009  0.49974  0.00497  1.0000
  C   C221      1.0  0.33896  0.48259  0.00568  1.0000
  C   C222      1.0  0.27623  0.52342  0.05524  1.0000
  C   C223      1.0  0.26384  0.55149  0.05807  1.0000
  C   C224      1.0  0.22518  0.54184  0.04890  1.0000
  C   C225      1.0  0.19882  0.50407  0.03693  1.0000
  C   C226      1.0  0.21114  0.47599  0.03405  1.0000
  C   C227      1.0  0.24673  0.42148  0.99772  1.0000
  C   C228      1.0  0.16277  0.67331  0.37336  1.0000
  H   H172      1.0  0.09275  0.37108  0.09520  1.0000
  C   C229      1.0  0.34417  0.37354  0.07106  1.0000
  C   C230      1.0  0.20365  0.39046  0.13258  1.0000
  C   C231      1.0  0.40136  0.36776  0.36853  1.0000
  C   C232      1.0  0.07563  0.66757  0.34022  1.0000
  C   C233      1.0  0.05034  0.64055  0.40046  1.0000
  C   C234      1.0  0.32746  0.40352  0.43997  1.0000
  C   C235      1.0  0.50436  0.42863  0.28566  1.0000
  C   C236      1.0  0.53580  0.53461  0.99207  1.0000
  H   H173      1.0  0.32502  0.47231  0.09813  1.0000
  H   H174      1.0  0.39736  0.50189  0.09642  1.0000
  H   H175      1.0  0.43302  0.51943  0.03683  1.0000
  H   H176      1.0  0.26611  0.37355  0.27156  1.0000
  H   H177      1.0  0.32330  0.47732  0.98005  1.0000
  H   H178      1.0  0.30621  0.53146  0.06267  1.0000
  H   H179      1.0  0.28422  0.58075  0.06747  1.0000
  H   H180      1.0  0.21561  0.56360  0.05114  1.0000
  H   H181      1.0  0.28871  0.39539  0.07361  1.0000
  H   H182      1.0  0.05943  0.68156  0.99291  1.0000
  C   C237      1.0  0.46424  0.46967  0.11365  1.0000
  H   H183      1.0  0.49786  0.47235  0.99928  1.0000
  C   C238      1.0  0.22256  0.36926  0.14307  1.0000
  C   C239      1.0  0.08084  0.63512  0.21945  1.0000
  C   C240      1.0  0.51924  0.40263  0.28272  1.0000
  H   H184      1.0  0.09733  0.60150  0.06000  1.0000
  C   C241      1.0  0.32887  0.44039  0.37354  1.0000
  C   C242      1.0  0.54015  0.56835  0.97407  1.0000
  H   H185      1.0  0.19041  0.44671  0.02503  1.0000
  C   C243      1.0  0.48351  0.46645  0.17605  1.0000
  C   C244      1.0  0.04851  0.54533  0.43987  1.0000
  S   S31       1.0  0.53615  0.60344  0.43348  1.0000
  H   H186      1.0  0.39180  0.46295  0.37468  1.0000
  C   C245      1.0  0.06173  0.60458  0.10368  1.0000
  C   C246      1.0  0.10974  0.40415  0.00747  1.0000
  C   C247      1.0  0.36333  0.42709  0.42208  1.0000
  C   C248      1.0  0.23128  0.39424  0.30047  1.0000
  C   C249      1.0  0.08630  0.57983  0.24447  1.0000
  C   C250      1.0  0.06804  0.58893  0.07178  1.0000
  C   C251      1.0  0.10958  0.66036  0.24381  1.0000
  H   H187      1.0  0.39556  0.50705  0.97900  1.0000
  H   H188      1.0  0.06683  0.66603  0.05742  1.0000
  C   C252      1.0  0.11161  0.37298  0.99095  1.0000
  C   C253      1.0  0.21552  0.41373  0.10077  1.0000
  C   C254      1.0  0.05066  0.69409  0.01487  1.0000
  H   H189      1.0  0.42772  0.38953  0.96205  1.0000
  C   C255      1.0  0.06915  0.59510  0.21985  1.0000
  C   C256      1.0  0.24311  0.38411  0.99426  1.0000
  H   H190      1.0  0.50843  0.37740  0.30092  1.0000
  H   H191      1.0  0.07082  0.40204  0.26139  1.0000
  H   H192      1.0  0.47457  0.45513  0.20350  1.0000
  C   C257      1.0  0.04593  0.50883  0.43247  1.0000
  H   H193      1.0  0.24342  0.46836  0.96824  1.0000
  C   C258      1.0  0.47232  0.49620  0.96108  1.0000
  H   H194      1.0  0.19353  0.64371  0.35366  1.0000
  H   H195      1.0  0.12818  0.59481  0.28893  1.0000
  H   H196      1.0  0.07256  0.57179  0.42834  1.0000
  H   H197      1.0  0.16596  0.48386  0.20938  1.0000
  H   H198      1.0  0.10165  0.42729  0.05819  1.0000
  H   H199      1.0  0.16880  0.49653  0.02998  1.0000
  C   C259      1.0  0.47122  0.65581  0.96237  1.0000
  H   H200      1.0  0.17343  0.52122  0.32052  1.0000
  H   H201      1.0  0.05209  0.64185  0.43001  1.0000
  C   C260      1.0  0.50165  0.49860  0.98546  1.0000
  C   C261      1.0  0.05481  0.68528  0.05154  1.0000
  H   H202      1.0  0.42384  0.43616  0.15693  1.0000
  C   C262      1.0  0.49794  0.69586  0.95802  1.0000
  H   H203      1.0  0.11211  0.49832  0.19763  1.0000
  H   H204      1.0  0.15704  0.67558  0.44817  1.0000
  H   H205      1.0  0.19677  0.49497  0.27080  1.0000
  C   C263      1.0  0.11214  0.51951  0.25244  1.0000
  C   C264      1.0  0.12573  0.50471  0.22432  1.0000
  C   C265      1.0  0.15639  0.49629  0.23086  1.0000
  C   C266      1.0  0.17387  0.50267  0.26538  1.0000
  C   C267      1.0  0.16079  0.51760  0.29340  1.0000
  C   C268      1.0  0.12967  0.52537  0.28720  1.0000
  C   C269      1.0  0.12651  0.64555  0.26870  1.0000
  H   H206      1.0  0.14856  0.66514  0.28780  1.0000
  C   C270      1.0  0.11492  0.60550  0.26912  1.0000
  C   C271      1.0  0.45430  0.45550  0.14946  1.0000
  H   H207      1.0  0.50536  0.48044  0.26445  1.0000
  H   H208      1.0  0.08601  0.62972  0.11647  1.0000
  H   H209      1.0  0.18012  0.38926  0.14945  1.0000
  H   H210      1.0  0.48181  0.42334  0.30588  1.0000
  C   C272      1.0  0.29298  0.41707  0.39146  1.0000
  P   P9        1.0  0.07043  0.52766  0.24548  1.0000
  H   H211      1.0  0.20070  0.43017  0.09367  1.0000
  C   C273      1.0  0.04582  0.50535  0.20295  1.0000
  H   H212      1.0  0.13684  0.64611  0.38122  1.0000
  H   H213      1.0  0.46053  0.60110  0.98712  1.0000
  C   C274      1.0  0.48079  0.63236  0.98460  1.0000
  C   C275      1.0  0.51684  0.64903  0.00299  1.0000
  H   H214      1.0  0.26583  0.41255  0.37868  1.0000
  H   H215      1.0  0.25218  0.44379  0.43164  1.0000
  Fe  Fe15      1.0  0.06718  0.37074  0.41956  1.0000
  C   C276      1.0  0.06359  0.52312  0.16945  1.0000
  C   C277      1.0  0.19484  0.67181  0.35768  1.0000
  C   C278      1.0  0.22860  0.42789  0.45106  1.0000
  H   H216      1.0  0.51119  0.50708  0.07695  1.0000
  H   H217      1.0  0.11625  0.37343  0.96168  1.0000
  C   C279      1.0  0.23890  0.43877  0.96713  1.0000
  H   H218      1.0  0.04673  0.57636  0.20082  1.0000
  C   C280      1.0  0.07922  0.67040  0.37848  1.0000
  H   H219      1.0  0.11852  0.69138  0.24348  1.0000
  C   C281      1.0  0.25282  0.37074  0.12139  1.0000
  H   H220      1.0  0.52451  0.63066  0.01979  1.0000
  H   H221      1.0  0.05976  0.51947  0.11062  1.0000
  S   S32       1.0  0.04835  0.68859  0.12626  1.0000
  S   S33       1.0  0.04384  0.39789  0.13009  1.0000
  H   H222      1.0  0.42416  0.36818  0.12518  1.0000
  H   H223      1.0  0.48565  0.36542  0.13728  1.0000
  C   C282      1.0  0.23666  0.36762  0.27856  1.0000
  S   S34       1.0  0.32257  0.36568  0.21898  1.0000
  S   S35       1.0  0.39456  0.36416  0.29339  1.0000
  C   C283      1.0  0.04314  0.63590  0.32422  1.0000
  P   P10       1.0  0.24486  0.36548  0.44561  1.0000
  H   H224      1.0  0.21392  0.47440  0.45380  1.0000
  S   S36       1.0  0.51482  0.44446  0.50579  1.0000
  Fe  Fe16      1.0  0.06530  0.64056  0.89241  1.0000
  H   H225      1.0  0.45646  0.58072  0.80466  1.0000
  S   S37       1.0  0.07270  0.58916  0.91285  1.0000
  C   C284      1.0  0.53393  0.54378  0.83552  1.0000
  H   H226      1.0  0.22035  0.61530  0.86394  1.0000
  H   H227      1.0  0.49124  0.43888  0.76958  1.0000
  H   H228      1.0  0.30885  0.48059  0.53553  1.0000
  H   H229      1.0  0.38033  0.49315  0.72904  1.0000
  Fe  Fe17      1.0  0.39004  0.47037  0.89126  1.0000
  S   S38       1.0  0.39637  0.41640  0.89119  1.0000
  S   S39       1.0  0.44008  0.52827  0.91253  1.0000
  Fe  Fe18      1.0  0.30830  0.42700  0.85263  1.0000
  H   H230      1.0  0.49362  0.44357  0.70210  1.0000
  S   S40       1.0  0.25641  0.43217  0.82911  1.0000
  H   H231      1.0  0.39244  0.54529  0.77374  1.0000
  H   H232      1.0  0.52046  0.39658  0.67815  1.0000
  H   H233      1.0  0.43304  0.47668  0.71539  1.0000
  S   S41       1.0  0.32718  0.43922  0.91172  1.0000
  S   S42       1.0  0.37077  0.46443  0.83226  1.0000
  C   C285      1.0  0.40880  0.50908  0.74228  1.0000
  C   C286      1.0  0.18657  0.40014  0.79074  1.0000
  Fe  Fe19      1.0  0.45589  0.39531  0.52688  1.0000
  C   C287      1.0  0.04761  0.67066  0.70050  1.0000
  S   S43       1.0  0.39873  0.39621  0.52163  1.0000
  H   H234      1.0  0.07869  0.68293  0.69444  1.0000
  H   H235      1.0  0.49706  0.51116  0.74681  1.0000
  C   C288      1.0  0.45211  0.55831  0.78526  1.0000
  C   C289      1.0  0.05662  0.37489  0.58659  1.0000
  H   H236      1.0  0.34778  0.41083  0.75340  1.0000
  C   C290      1.0  0.39286  0.39510  0.74301  1.0000
  C   C291      1.0  0.43839  0.49960  0.73476  1.0000
  C   C292      1.0  0.36347  0.40417  0.73269  1.0000
  C   C293      1.0  0.06717  0.47277  0.69540  1.0000
  C   C294      1.0  0.22225  0.38093  0.93123  1.0000
  C   C295      1.0  0.51953  0.45336  0.75559  1.0000
  H   H237      1.0  0.50637  0.46073  0.58478  1.0000
  P   P11       1.0  0.52974  0.57380  0.79977  1.0000
  H   H238      1.0  0.06574  0.47022  0.66584  1.0000
  Fe  Fe20      1.0  0.37358  0.40855  0.83342  1.0000
  H   H239      1.0  0.15820  0.43855  0.49711  1.0000
  C   C296      1.0  0.28094  0.41835  0.60889  1.0000
  C   C297      1.0  0.41569  0.53847  0.76744  1.0000
  H   H240      1.0  0.19100  0.42970  0.79002  1.0000
  C   C298      1.0  0.17429  0.45453  0.71224  1.0000
  H   H241      1.0  0.48474  0.45219  0.87358  1.0000
  C   C299      1.0  0.06241  0.60052  0.74680  1.0000
  C   C300      1.0  0.52254  0.49292  0.63577  1.0000
  H   H242      1.0  0.51465  0.59215  0.93574  1.0000
  H   H243      1.0  0.54001  0.48291  0.91777  1.0000
  H   H244      1.0  0.13262  0.37632  0.75944  1.0000
  C   C301      1.0  0.51914  0.48724  0.48377  1.0000
  C   C302      1.0  0.48936  0.49752  0.48606  1.0000
  H   H245      1.0  0.25292  0.44065  0.69672  1.0000
  C   C303      1.0  0.47223  0.48923  0.59374  1.0000
  H   H246      1.0  0.45540  0.47791  0.56883  1.0000
  H   H247      1.0  0.14071  0.37159  0.51795  1.0000
  C   C304      1.0  0.19482  0.40516  0.67364  1.0000
  C   C305      1.0  0.48192  0.54877  0.77797  1.0000
  C   C306      1.0  0.21886  0.38987  0.46275  1.0000
  H   H248      1.0  0.05915  0.54764  0.82886  1.0000
  C   C307      1.0  0.05026  0.44197  0.75541  1.0000
  C   C308      1.0  0.53875  0.49957  0.89439  1.0000
  C   C309      1.0  0.15646  0.40010  0.67116  1.0000
  C   C310      1.0  0.06999  0.59488  0.71066  1.0000
  H   H249      1.0  0.44334  0.64268  0.94791  1.0000
  C   C311      1.0  0.14639  0.42482  0.69031  1.0000
  C   C312      1.0  0.07283  0.47857  0.77191  1.0000
  H   H250      1.0  0.43565  0.37945  0.72364  1.0000
  C   C313      1.0  0.04387  0.51858  0.94972  1.0000
  H   H251      1.0  0.10240  0.42654  0.79644  1.0000
  H   H252      1.0  0.49231  0.59015  0.86133  1.0000
  S   S44       1.0  0.07855  0.66202  0.83386  1.0000
  C   C314      1.0  0.37405  0.39543  0.66828  1.0000
  H   H253      1.0  0.06199  0.39666  0.92677  1.0000
  C   C315      1.0  0.49491  0.53300  0.47031  1.0000
  C   C316      1.0  0.40401  0.38732  0.67867  1.0000
  C   C317      1.0  0.22664  0.42707  0.58744  1.0000
  C   C318      1.0  0.17562  0.42533  0.48811  1.0000
  H   H254      1.0  0.08482  0.62447  0.76245  1.0000
  C   C319      1.0  0.21428  0.39258  0.80868  1.0000
  C   C320      1.0  0.30515  0.44392  0.58147  1.0000
  H   H255      1.0  0.11360  0.68606  0.55292  1.0000
  C   C321      1.0  0.29010  0.46090  0.55687  1.0000
  H   H256      1.0  0.47978  0.49059  0.82226  1.0000
  H   H257      1.0  0.07131  0.51979  0.94208  1.0000
  H   H258      1.0  0.33565  0.45045  0.57944  1.0000
  C   C322      1.0  0.52096  0.45600  0.71738  1.0000
  H   H259      1.0  0.19643  0.42133  0.58980  1.0000
  C   C323      1.0  0.51538  0.51786  0.65816  1.0000
  H   H260      1.0  0.32772  0.38816  0.46464  1.0000
  H   H261      1.0  0.33127  0.41121  0.68768  1.0000
  H   H262      1.0  0.22320  0.37260  0.72659  1.0000
  H   H263      1.0  0.44196  0.52064  0.60931  1.0000
  C   C324      1.0  0.07813  0.44166  0.84311  1.0000
  S   S45       1.0  0.44557  0.37480  0.58573  1.0000
  P   P12       1.0  0.07655  0.48246  0.82109  1.0000
  C   C325      1.0  0.12199  0.52484  0.83438  1.0000
  H   H264      1.0  0.07669  0.43203  0.56211  1.0000
  C   C326      1.0  0.09078  0.51249  0.74979  1.0000
  H   H265      1.0  0.05750  0.45056  0.89542  1.0000
  H   H266      1.0  0.46219  0.47840  0.50022  1.0000
  C   C327      1.0  0.20703  0.44551  0.46375  1.0000
  H   H267      1.0  0.29368  0.40649  0.62808  1.0000
  C   C328      1.0  0.12318  0.54654  0.86513  1.0000
  C   C329      1.0  0.21261  0.46002  0.71454  1.0000
  C   C330      1.0  0.19306  0.58990  0.85584  1.0000
  C   C331      1.0  0.19250  0.56742  0.82604  1.0000
  C   C332      1.0  0.15712  0.53484  0.81544  1.0000
  C   C333      1.0  0.35432  0.40460  0.69540  1.0000
  H   H268      1.0  0.23422  0.48282  0.73178  1.0000
  C   C334      1.0  0.06843  0.38920  0.52100  1.0000
  C   C335      1.0  0.50495  0.50434  0.84033  1.0000
  C   C336      1.0  0.08840  0.50948  0.71165  1.0000
  H   H269      1.0  0.22144  0.43216  0.91028  1.0000
  H   H270      1.0  0.05633  0.67634  0.75898  1.0000
  Fe  Fe21      1.0  0.38669  0.37144  0.57908  1.0000
  C   C337      1.0  0.06811  0.43374  0.88035  1.0000
  C   C338      1.0  0.07126  0.40369  0.89844  1.0000
  C   C339      1.0  0.18737  0.36990  0.48741  1.0000
  H   H271      1.0  0.10660  0.54127  0.76195  1.0000
  H   H272      1.0  0.15241  0.66458  0.51483  1.0000
  C   C340      1.0  0.51583  0.61792  0.85115  1.0000
  H   H273      1.0  0.09691  0.53821  0.88121  1.0000
  H   H274      1.0  0.27965  0.39096  0.51749  1.0000
  C   C341      1.0  0.25094  0.45271  0.56005  1.0000
  H   H275      1.0  0.21951  0.57515  0.81124  1.0000
  H   H276      1.0  0.15718  0.51733  0.79265  1.0000
  H   H277      1.0  0.11683  0.42088  0.68807  1.0000
  C   C342      1.0  0.22654  0.41845  0.93412  1.0000
  C   C343      1.0  0.53916  0.61898  0.82140  1.0000
  H   H278      1.0  0.23941  0.46632  0.54135  1.0000
  C   C344      1.0  0.24116  0.40881  0.61147  1.0000
  H   H279      1.0  0.16612  0.47317  0.72745  1.0000
  H   H280      1.0  0.41991  0.38100  0.65809  1.0000
  S   S46       1.0  0.36008  0.39349  0.62186  1.0000
  H   H281      1.0  0.53613  0.60662  0.72668  1.0000
  H   H282      1.0  0.50432  0.65149  0.89079  1.0000
  H   H283      1.0  0.09828  0.61453  0.69831  1.0000
  C   C345      1.0  0.09308  0.42022  0.82473  1.0000
  C   C346      1.0  0.50756  0.48234  0.86958  1.0000
  C   C347      1.0  0.48657  0.52799  0.64859  1.0000
  Fe  Fe22      1.0  0.33267  0.38478  0.90820  1.0000
  C   C348      1.0  0.50118  0.47927  0.60311  1.0000
  H   H284      1.0  0.07651  0.40977  0.49836  1.0000
  H   H285      1.0  0.48089  0.54688  0.66617  1.0000
  H   H286      1.0  0.10287  0.53561  0.69465  1.0000
  C   C349      1.0  0.52276  0.65266  0.86809  1.0000
  C   C350      1.0  0.47464  0.51917  0.75265  1.0000
  C   C351      1.0  0.06840  0.40172  0.55712  1.0000
  H   H287      1.0  0.15852  0.59646  0.89872  1.0000
  C   C352      1.0  0.22299  0.43575  0.69499  1.0000
  C   C353      1.0  0.46473  0.51336  0.61655  1.0000
  S   S47       1.0  0.40592  0.39486  0.78930  1.0000
  C   C354      1.0  0.16580  0.38755  0.49991  1.0000
  H   H288      1.0  0.47176  0.54073  0.47237  1.0000
  C   C355      1.0  0.15839  0.57932  0.87546  1.0000
  C   C356      1.0  0.52775  0.39670  0.64963  1.0000
  S   S48       1.0  0.31028  0.37070  0.85030  1.0000
  C   C357      1.0  0.47676  0.52987  0.94293  1.0000
  C   C358      1.0  0.41306  0.38672  0.71587  1.0000
  H   H289      1.0  0.04729  0.56135  0.66203  1.0000
  S   S49       1.0  0.05459  0.39039  0.63157  1.0000
  H   H290      1.0  0.13421  0.37749  0.65420  1.0000
  C   C359      1.0  0.08516  0.38183  0.87971  1.0000
  C   C360      1.0  0.09600  0.39004  0.84292  1.0000
  P   P13       1.0  0.20938  0.37573  0.64671  1.0000
  C   C361      1.0  0.04740  0.43918  0.71726  1.0000
  C   C362      1.0  0.13809  0.67953  0.50215  1.0000
  C   C363      1.0  0.14055  0.68578  0.46424  1.0000
  C   C364      1.0  0.11638  0.69171  0.52364  1.0000
  C   C365      1.0  0.15324  0.36980  0.77350  1.0000
  H   H291      1.0  0.21374  0.36574  0.90529  1.0000
  C   C366      1.0  0.51077  0.56595  0.94969  1.0000
  H   H292      1.0  0.53193  0.52931  0.68314  1.0000
  H   H293      1.0  0.10626  0.37262  0.82847  1.0000
  H   H294      1.0  0.12975  0.77481  0.27154  1.0000
  C   C367      1.0  0.22790  0.99907  0.16838  1.0000
  C   C368      1.0  0.23013  0.74264  0.35256  1.0000
  S   S50       1.0  0.09949  0.82947  0.25616  1.0000
  H   H295      1.0  0.11971  0.78100  0.98266  1.0000
  H   H296      1.0  0.50685  0.84612  0.96970  1.0000
  Fe  Fe23      1.0  0.30380  0.90820  0.36117  1.0000
  S   S51       1.0  0.30085  0.96415  0.35985  1.0000
  S   S52       1.0  0.25448  0.85038  0.33866  1.0000
  Fe  Fe24      1.0  0.38609  0.94906  0.39900  1.0000
  C   C369      1.0  0.26616  0.94177  0.10163  1.0000
  S   S53       1.0  0.43518  0.94147  0.42563  1.0000
  Fe  Fe25      1.0  0.32521  0.97311  0.41719  1.0000
  Fe  Fe26      1.0  0.36412  0.99178  0.34145  1.0000
  H   H297      1.0  0.51966  0.87505  0.33559  1.0000
  S   S54       1.0  0.32370  0.91512  0.42006  1.0000
  S   S55       1.0  0.36651  0.93554  0.34013  1.0000
  C   C370      1.0  0.12118  0.70426  0.44756  1.0000
  H   H298      1.0  0.35068  0.87167  0.99850  1.0000
  C   C371      1.0  0.28731  0.97117  0.04118  1.0000
  H   H299      1.0  0.20032  0.77263  0.37193  1.0000
  H   H300      1.0  0.28808  0.85064  0.96552  1.0000
  C   C372      1.0  0.37787  0.98568  0.24139  1.0000
  C   C373      1.0  0.37677  0.97537  0.20439  1.0000
  C   C374      1.0  0.18023  0.82584  0.99083  1.0000
  C   C375      1.0  0.23429  0.87126  0.17751  1.0000
  H   H301      1.0  0.25602  0.76968  0.34425  1.0000
  H   H302      1.0  0.37139  0.96399  0.26267  1.0000
  H   H303      1.0  0.36903  0.94560  0.19744  1.0000
  C   C376      1.0  0.24055  0.85058  0.20581  1.0000
  C   C377      1.0  0.53336  0.80868  0.96835  1.0000
  C   C378      1.0  0.48092  0.01845  0.44897  1.0000
  H   H304      1.0  0.10137  0.86254  0.18476  1.0000
  C   C379      1.0  0.12829  0.83031  0.37571  1.0000
  H   H305      1.0  0.22678  0.81890  0.20490  1.0000
  H   H306      1.0  0.46530  0.00147  0.99057  1.0000
  H   H307      1.0  0.53585  0.80825  0.99785  1.0000
  C   C380      1.0  0.09979  0.79671  0.35826  1.0000
  C   C381      1.0  0.25536  0.98775  0.15693  1.0000
  H   H308      1.0  0.19001  0.78398  0.30385  1.0000
  S   S56       1.0  0.38284  0.98944  0.13016  1.0000
  Fe  Fe27      1.0  0.05013  0.77329  0.23108  1.0000
  C   C382      1.0  0.14322  0.83483  0.27745  1.0000
  C   C383      1.0  0.17077  0.87168  0.29127  1.0000
  C   C384      1.0  0.20489  0.87693  0.30990  1.0000
  C   C385      1.0  0.21197  0.84531  0.31497  1.0000
  C   C386      1.0  0.18475  0.80858  0.30059  1.0000
  C   C387      1.0  0.15060  0.80333  0.28196  1.0000
  H   H309      1.0  0.16550  0.89630  0.28785  1.0000
  H   H310      1.0  0.22559  0.90542  0.32043  1.0000
  H   H311      1.0  0.13083  0.85858  0.36925  1.0000
  H   H312      1.0  0.28877  0.90308  0.11851  1.0000
  C   C388      1.0  0.19824  0.74423  0.36848  1.0000
  H   H313      1.0  0.21558  0.85519  0.15479  1.0000
  C   C389      1.0  0.26377  0.87066  0.23578  1.0000
  C   C390      1.0  0.37854  0.93029  0.97611  1.0000
  C   C391      1.0  0.53832  0.99262  0.33196  1.0000
  C   C392      1.0  0.53958  0.96453  0.25741  1.0000
  C   C393      1.0  0.09775  0.76046  0.36498  1.0000
  C   C394      1.0  0.51798  0.98464  0.20266  1.0000
  C   C395      1.0  0.28047  0.91137  0.23764  1.0000
  H   H314      1.0  0.17299  0.90303  0.19414  1.0000
  C   C396      1.0  0.30808  0.92587  0.06434  1.0000
  C   C397      1.0  0.27460  0.93226  0.20924  1.0000
  C   C398      1.0  0.51529  0.97730  0.24037  1.0000
  H   H315      1.0  0.40617  0.93916  0.99016  1.0000
  C   C399      1.0  0.48211  0.91211  0.31134  1.0000
  H   H316      1.0  0.17244  0.78961  0.42686  1.0000
  H   H317      1.0  0.40591  0.84016  0.26371  1.0000
  H   H318      1.0  0.26828  0.85463  0.25794  1.0000
  H   H319      1.0  0.07411  0.84477  0.12216  1.0000
  C   C400      1.0  0.46329  0.90625  0.34541  1.0000
  C   C401      1.0  0.42390  0.87731  0.34973  1.0000
  C   C402      1.0  0.40315  0.85366  0.32027  1.0000
  C   C403      1.0  0.42198  0.85858  0.28653  1.0000
  C   C404      1.0  0.46140  0.88757  0.28207  1.0000
  C   C405      1.0  0.30801  0.95067  0.03653  1.0000
  H   H320      1.0  0.08007  0.79890  0.33845  1.0000
  H   H321      1.0  0.28808  0.99111  0.01994  1.0000
  H   H322      1.0  0.17718  0.85376  0.41317  1.0000
  C   C406      1.0  0.34715  0.89231  0.98101  1.0000
  C   C407      1.0  0.21575  0.85252  0.97385  1.0000
  H   H323      1.0  0.49860  0.99378  0.18975  1.0000
  H   H324      1.0  0.29760  0.92667  0.26142  1.0000
  C   C408      1.0  0.49516  0.97514  0.96195  1.0000
  C   C409      1.0  0.47482  0.98004  0.44953  1.0000
  H   H325      1.0  0.49350  0.98069  0.25595  1.0000
  C   C410      1.0  0.28724  0.92139  0.09687  1.0000
  H   H326      1.0  0.26728  0.95546  0.95615  1.0000
  H   H327      1.0  0.19044  0.90894  0.07688  1.0000
  H   H328      1.0  0.47875  0.92451  0.36854  1.0000
  H   H329      1.0  0.40929  0.87372  0.37588  1.0000
  H   H330      1.0  0.37242  0.83169  0.32359  1.0000
  H   H331      1.0  0.47544  0.89091  0.25571  1.0000
  H   H332      1.0  0.32482  0.95490  0.01174  1.0000
  H   H333      1.0  0.51665  0.89790  0.41302  1.0000
  C   C411      1.0  0.26663  0.96693  0.07363  1.0000
  C   C412      1.0  0.38528  0.00327  0.17642  1.0000
  C   C413      1.0  0.53447  0.71289  0.97615  1.0000
  C   C414      1.0  0.16427  0.70959  0.37902  1.0000
  S   S57       1.0  0.38810  0.00733  0.39862  1.0000
  H   H334      1.0  0.11890  0.86818  0.06845  1.0000
  H   H335      1.0  0.19683  0.97796  0.17025  1.0000
  H   H336      1.0  0.28793  0.96379  0.21141  1.0000
  C   C415      1.0  0.49285  0.00614  0.97917  1.0000
  C   C416      1.0  0.12097  0.87328  0.16128  1.0000
  C   C417      1.0  0.15434  0.82756  0.40046  1.0000
  H   H337      1.0  0.25129  0.98360  0.07706  1.0000
  H   H338      1.0  0.17783  0.82437  0.02040  1.0000
  H   H339      1.0  0.45787  0.99322  0.10801  1.0000
  H   H340      1.0  0.25332  0.70535  0.33495  1.0000
  C   C418      1.0  0.53962  0.00653  0.06206  1.0000
  C   C419      1.0  0.10560  0.86324  0.12600  1.0000
  C   C420      1.0  0.13089  0.87647  0.09577  1.0000
  C   C421      1.0  0.17159  0.89974  0.10076  1.0000
  C   C422      1.0  0.18734  0.90988  0.13621  1.0000
  C   C423      1.0  0.16164  0.89638  0.16645  1.0000
  P   P14       1.0  0.24002  0.93794  0.14363  1.0000
  C   C424      1.0  0.25136  0.91229  0.17894  1.0000
  C   C425      1.0  0.49992  0.98997  0.07189  1.0000
  H   H341      1.0  0.48006  0.98395  0.31860  1.0000
  C   C426      1.0  0.50725  0.00144  0.33334  1.0000
  C   C427      1.0  0.15186  0.79119  0.40778  1.0000
  C   C428      1.0  0.29548  0.01605  0.15462  1.0000
  H   H342      1.0  0.47768  0.96581  0.05632  1.0000
  C   C429      1.0  0.04333  0.70102  0.08047  1.0000
  H   H343      1.0  0.32533  0.91109  0.06122  1.0000
  C   C430      1.0  0.48882  0.00543  0.10100  1.0000
  H   H344      1.0  0.07575  0.73517  0.35068  1.0000
  P   P15       1.0  0.53241  0.95098  0.30548  1.0000
  C   C431      1.0  0.12395  0.75741  0.38960  1.0000
  P   P16       1.0  0.12216  0.71087  0.39851  1.0000
  C   C432      1.0  0.14742  0.80146  0.96964  1.0000
  H   H345      1.0  0.24027  0.87233  0.99067  1.0000
  C   C433      1.0  0.31153  0.88070  0.96273  1.0000
  C   C434      1.0  0.38726  0.02395  0.25063  1.0000
  S   S58       1.0  0.41095  0.02131  0.02817  1.0000
  H   H346      1.0  0.20789  0.95047  0.44023  1.0000
  H   H347      1.0  0.46911  0.94666  0.96014  1.0000
  H   H348      1.0  0.31712  0.00792  0.14571  1.0000
  S   S59       1.0  0.05070  0.71612  0.22987  1.0000
  C   C435      1.0  0.22850  0.70647  0.34721  1.0000
  H   H349      1.0  0.46082  0.02513  0.43420  1.0000
  Fe  Fe28      1.0  0.10990  0.72334  0.85642  1.0000
  H   H350      1.0  0.46404  0.93761  0.88939  1.0000
  S   S60       1.0  0.16817  0.76963  0.83128  1.0000
  Fe  Fe29      1.0  0.25744  0.97667  0.73170  1.0000
  S   S61       1.0  0.31053  0.96829  0.73121  1.0000
  S   S62       1.0  0.19887  0.93143  0.75730  1.0000
  H   H351      1.0  0.10420  0.82538  0.67818  1.0000
  S   S63       1.0  0.34107  0.96981  0.62819  1.0000
  H   H352      1.0  0.13170  0.94055  0.74200  1.0000
  S   S64       1.0  0.26585  0.99886  0.67329  1.0000
  C   C436      1.0  0.29941  0.90109  0.84535  1.0000
  C   C437      1.0  0.24355  0.89170  0.64551  1.0000
  H   H353      1.0  0.12441  0.78582  0.91504  1.0000
  H   H354      1.0  0.39699  0.92713  0.87541  1.0000
  H   H355      1.0  0.48307  0.98181  0.75608  1.0000
  H   H356      1.0  0.14267  0.87874  0.61331  1.0000
  H   H357      1.0  0.36186  0.94985  0.55925  1.0000
  H   H358      1.0  0.16451  0.89758  0.67731  1.0000
  C   C438      1.0  0.32972  0.97641  0.58259  1.0000
  C   C439      1.0  0.34416  0.96371  0.55350  1.0000
  C   C440      1.0  0.33634  0.96938  0.51693  1.0000
  C   C441      1.0  0.31343  0.98728  0.50921  1.0000
  H   H359      1.0  0.27051  0.79141  0.83638  1.0000
  C   C442      1.0  0.30697  0.99445  0.57480  1.0000
  H   H360      1.0  0.08278  0.72915  0.45700  1.0000
  H   H361      1.0  0.34810  0.95997  0.49479  1.0000
  S   S65       1.0  0.10279  0.70127  0.91472  1.0000
  C   C443      1.0  0.46594  0.93978  0.56013  1.0000
  C   C444      1.0  0.19057  0.88640  0.77759  1.0000
  C   C445      1.0  0.15617  0.86402  0.79844  1.0000
  C   C446      1.0  0.14866  0.82816  0.81490  1.0000
  C   C447      1.0  0.17532  0.81403  0.81032  1.0000
  C   C448      1.0  0.20927  0.83612  0.78900  1.0000
  C   C449      1.0  0.21720  0.87228  0.77316  1.0000
  H   H362      1.0  0.13540  0.87465  0.80228  1.0000
  H   H363      1.0  0.12237  0.81156  0.83123  1.0000
  H   H364      1.0  0.22937  0.82494  0.78436  1.0000
  H   H365      1.0  0.24383  0.88897  0.75736  1.0000
  C   C450      1.0  0.19501  0.91331  0.48791  1.0000
  P   P17       1.0  0.26293  0.89095  0.91295  1.0000
  S   S66       1.0  0.30239  0.99442  0.46371  1.0000
  H   H366      1.0  0.04259  0.79585  0.80658  1.0000
  H   H367      1.0  0.18701  0.83210  0.88497  1.0000
  C   C451      1.0  0.26513  0.83433  0.86873  1.0000
  C   C452      1.0  0.43253  0.98258  0.66460  1.0000
  C   C453      1.0  0.33854  0.94536  0.93503  1.0000
  H   H368      1.0  0.19601  0.89017  0.47269  1.0000
  C   C454      1.0  0.24056  0.98215  0.92354  1.0000
  C   C455      1.0  0.19459  0.97478  0.52611  1.0000
  C   C456      1.0  0.51247  0.99776  0.74461  1.0000
  H   H369      1.0  0.20311  0.76302  0.49360  1.0000
  C   C457      1.0  0.53092  0.98070  0.94706  1.0000
  C   C458      1.0  0.52706  0.81159  0.89229  1.0000
  C   C459      1.0  0.30672  0.90742  0.94024  1.0000
  H   H370      1.0  0.11431  0.87184  0.73239  1.0000
  H   H371      1.0  0.29583  0.00454  0.59688  1.0000
  H   H372      1.0  0.52576  0.81370  0.86276  1.0000
  C   C460      1.0  0.25090  0.92902  0.90267  1.0000
  C   C461      1.0  0.23337  0.92929  0.86911  1.0000
  C   C462      1.0  0.22041  0.95647  0.86251  1.0000
  C   C463      1.0  0.25430  0.95552  0.92991  1.0000
  H   H373      1.0  0.33131  0.90984  0.79487  1.0000
  H   H374      1.0  0.22906  0.90812  0.84819  1.0000
  H   H375      1.0  0.52525  0.74162  0.72865  1.0000
  C   C464      1.0  0.05047  0.76946  0.54025  1.0000
  H   H376      1.0  0.30813  0.93192  0.84775  1.0000
  H   H377      1.0  0.31356  0.83977  0.78947  1.0000
  C   C465      1.0  0.19539  0.87682  0.59711  1.0000
  H   H378      1.0  0.27284  0.80938  0.47729  1.0000
  S   S67       1.0  0.05595  0.73023  0.85734  1.0000
  H   H379      1.0  0.07915  0.71822  0.52367  1.0000
  C   C466      1.0  0.45052  0.00308  0.81688  1.0000
  C   C467      1.0  0.07856  0.79040  0.72701  1.0000
  C   C468      1.0  0.41763  0.97346  0.83494  1.0000
  H   H380      1.0  0.39774  0.98893  0.74818  1.0000
  C   C469      1.0  0.18567  0.83005  0.91451  1.0000
  H   H381      1.0  0.20700  0.00477  0.47404  1.0000
  H   H382      1.0  0.20734  0.95676  0.83631  1.0000
  H   H383      1.0  0.50701  0.91848  0.55117  1.0000
  H   H384      1.0  0.16610  0.76853  0.72238  1.0000
  C   C470      1.0  0.27173  0.85941  0.50023  1.0000
  H   H385      1.0  0.22848  0.90533  0.69786  1.0000
  C   C471      1.0  0.23197  0.88189  0.60918  1.0000
  H   H386      1.0  0.16298  0.78653  0.52558  1.0000
  C   C472      1.0  0.11104  0.80136  0.57513  1.0000
  H   H387      1.0  0.26196  0.90399  0.52411  1.0000
  Fe  Fe30      1.0  0.32165  0.99498  0.67452  1.0000
  C   C473      1.0  0.21907  0.89704  0.66995  1.0000
  S   S68       1.0  0.53214  0.94063  0.92545  1.0000
  C   C474      1.0  0.17080  0.88202  0.62204  1.0000
  H   H388      1.0  0.18407  0.93946  0.57411  1.0000
  H   H389      1.0  0.39053  0.93977  0.70207  1.0000
  H   H390      1.0  0.30231  0.87963  0.49368  1.0000
  C   C475      1.0  0.12914  0.82909  0.54680  1.0000
  C   C476      1.0  0.48866  0.01017  0.82551  1.0000
  C   C477      1.0  0.50227  0.94080  0.56386  1.0000
  C   C478      1.0  0.50145  0.97207  0.46893  1.0000
  C   C479      1.0  0.19317  0.80729  0.51848  1.0000
  C   C480      1.0  0.51358  0.83152  0.91458  1.0000
  C   C481      1.0  0.25516  0.81981  0.49125  1.0000
  C   C482      1.0  0.20949  0.84723  0.52698  1.0000
  H   H391      1.0  0.43170  0.96784  0.57271  1.0000
  C   C483      1.0  0.29886  0.99981  0.53828  1.0000
  H   H392      1.0  0.12735  0.80191  0.59941  1.0000
  C   C484      1.0  0.46003  0.96902  0.57588  1.0000
  C   C485      1.0  0.42245  0.94994  0.86121  1.0000
  C   C486      1.0  0.08135  0.76463  0.75233  1.0000
  C   C487      1.0  0.14151  0.77430  0.72323  1.0000
  C   C488      1.0  0.31314  0.88880  0.81563  1.0000
  C   C489      1.0  0.21590  0.79375  0.50040  1.0000
  C   C490      1.0  0.46023  0.95603  0.86925  1.0000
  C   C491      1.0  0.13829  0.79896  0.69719  1.0000
  C   C492      1.0  0.18828  0.94079  0.54484  1.0000
  H   H393      1.0  0.05213  0.79343  0.48669  1.0000
  H   H394      1.0  0.12118  0.84612  0.49210  1.0000
  C   C493      1.0  0.15009  0.80392  0.93150  1.0000
  C   C494      1.0  0.37437  0.95668  0.95287  1.0000
  H   H395      1.0  0.52233  0.99054  0.85871  1.0000
  H   H396      1.0  0.05811  0.75012  0.59363  1.0000
  C   C495      1.0  0.18289  0.89257  0.65821  1.0000
  C   C496      1.0  0.41122  0.97052  0.69738  1.0000
  C   C497      1.0  0.10766  0.82606  0.51485  1.0000
  C   C498      1.0  0.21894  0.85408  0.93548  1.0000
  C   C499      1.0  0.06849  0.79630  0.51164  1.0000
  C   C500      1.0  0.24889  0.87314  0.51766  1.0000
  C   C501      1.0  0.49330  0.98612  0.85165  1.0000
  H   H397      1.0  0.27209  0.89622  0.65451  1.0000
  C   C502      1.0  0.52711  0.00068  0.59863  1.0000
  P   P18       1.0  0.18065  0.86566  0.54978  1.0000
  H   H398      1.0  0.21391  0.00395  0.88457  1.0000
  H   H399      1.0  0.16017  0.81185  0.67570  1.0000
  H   H400      1.0  0.07948  0.95882  0.75060  1.0000
  H   H401      1.0  0.25212  0.87899  0.59079  1.0000
  H   H402      1.0  0.11523  0.73747  0.77045  1.0000
  C   C503      1.0  0.22389  0.98284  0.88975  1.0000
  C   C504      1.0  0.53431  0.00223  0.48684  1.0000
  H   H403      1.0  0.38852  0.96937  0.82893  1.0000
  H   H404      1.0  0.33593  0.96594  0.91668  1.0000
  C   C505      1.0  0.11288  0.75692  0.75050  1.0000
  C   C506      1.0  0.09085  0.87902  0.73525  1.0000
  C   C507      1.0  0.10091  0.91818  0.74099  1.0000
  C   C508      1.0  0.07147  0.92847  0.74594  1.0000
  H   H405      1.0  0.05904  0.74967  0.77307  1.0000
  C   C509      1.0  0.20120  0.97809  0.48837  1.0000
  H   H406      1.0  0.49794  0.95840  0.69905  1.0000
  C   C510      1.0  0.52069  0.98446  0.71208  1.0000
  C   C511      1.0  0.18833  0.90967  0.52588  1.0000
  H   H407      1.0  0.42779  0.96067  0.64443  1.0000
  C   C512      1.0  0.07176  0.77183  0.57193  1.0000
  H   H408      1.0  0.49679  0.94242  0.46994  1.0000
  C   C513      1.0  0.27913  0.82217  0.83912  1.0000
  H   H409      1.0  0.50181  0.84912  0.90242  1.0000
  Fe  Fe31      1.0  0.04643  0.70403  0.91420  1.0000
  C   C514      1.0  0.10679  0.80679  0.69890  1.0000
  H   H410      1.0  0.52613  0.76011  0.51318  1.0000
  H   H411      1.0  0.44250  0.91672  0.54449  1.0000
  C   C515      1.0  0.53277  0.97112  0.58327  1.0000
  C   C516      1.0  0.41517  0.99823  0.72330  1.0000
  H   H412      1.0  0.19522  0.99893  0.54103  1.0000
  H   H413      1.0  0.24663  0.81282  0.88902  1.0000
  C   C517      1.0  0.27488  0.87381  0.87186  1.0000
  C   C518      1.0  0.49067  0.99989  0.59504  1.0000
  C   C519      1.0  0.30325  0.84939  0.81265  1.0000
  H   H414      1.0  0.39897  0.98594  0.94863  1.0000
  C   C520      1.0  0.20139  0.94736  0.46929  1.0000
  C   C521      1.0  0.05105  0.84986  0.73410  1.0000
  C   C522      1.0  0.09920  0.71614  0.46934  1.0000
  H   H415      1.0  0.28142  0.01395  0.53255  1.0000
  H   H416      1.0  0.44619  0.02097  0.79668  1.0000
  H   H417      1.0  0.49023  0.71315  0.93990  1.0000
  C   C523      1.0  0.09707  0.71006  0.50719  1.0000
  H   H418      1.0  0.24389  0.00297  0.94453  1.0000
  C   C524      1.0  0.51657  0.82991  0.95258  1.0000
  C   C525      1.0  0.45807  0.02256  0.65753  1.0000
  C   C526      1.0  0.53599  0.75205  0.45674  1.0000
  H   H419      1.0  0.51412  0.72118  0.45661  1.0000
  Fe  Fe32      1.0  0.34296  0.03027  0.75142  1.0000
  Fe  Fe33      1.0  0.91318  0.31223  0.06726  1.0000
  S   S69       1.0  0.96967  0.30968  0.06686  1.0000
  S   S70       1.0  0.85586  0.26351  0.09213  1.0000
  H   H420      1.0  0.03175  0.22549  0.11755  1.0000
  Fe  Fe34      1.0  0.97762  0.33494  0.00966  1.0000
  C   C527      1.0  0.69915  0.07741  0.99512  1.0000
  S   S71       1.0  0.91911  0.33346  0.00866  1.0000
  Fe  Fe35      1.0  0.77981  0.06061  0.19701  1.0000
  S   S72       1.0  0.72333  0.06294  0.19585  1.0000
  S   S73       1.0  0.83677  0.10824  0.17124  1.0000
  S   S74       1.0  0.69105  0.06047  0.29881  1.0000
  C   C528      1.0  0.77424  0.08114  0.05119  1.0000
  C   C529      1.0  0.70165  0.05508  0.34506  1.0000
  H   H421      1.0  0.80116  0.29701  0.35385  1.0000
  H   H422      1.0  0.74564  0.07915  0.05399  1.0000
  H   H423      1.0  0.91215  0.29770  0.28634  1.0000
  C   C530      1.0  0.69346  0.06363  0.41012  1.0000
  C   C531      1.0  0.68623  0.06811  0.37305  1.0000
  C   C532      1.0  0.93847  0.23583  0.42593  1.0000
  H   H424      1.0  0.96242  0.17554  0.10740  1.0000
  H   H425      1.0  0.63464  0.10836  0.02083  1.0000
  C   C533      1.0  0.82694  0.07350  0.07871  1.0000
  H   H426      1.0  0.86420  0.22206  0.20428  1.0000
  C   C534      1.0  0.85097  0.22006  0.11316  1.0000
  C   C535      1.0  0.81621  0.19540  0.13256  1.0000
  C   C536      1.0  0.81117  0.16091  0.15016  1.0000
  C   C537      1.0  0.84090  0.15054  0.14837  1.0000
  C   C538      1.0  0.87543  0.17487  0.12847  1.0000
  C   C539      1.0  0.88048  0.20940  0.11091  1.0000
  H   H427      1.0  0.79321  0.20329  0.13430  1.0000
  H   H428      1.0  0.78454  0.14275  0.16555  1.0000
  H   H429      1.0  0.89857  0.16715  0.12704  1.0000
  H   H430      1.0  0.90736  0.22794  0.09600  1.0000
  C   C540      1.0  0.01698  0.22703  0.09291  1.0000
  C   C541      1.0  0.81998  0.16444  0.97594  1.0000
  C   C542      1.0  0.88990  0.22831  0.22041  1.0000
  C   C543      1.0  0.87077  0.22462  0.00308  1.0000
  H   H431      1.0  0.88413  0.24237  0.02702  1.0000
  C   C544      1.0  0.56988  0.19788  0.10934  1.0000
  C   C545      1.0  0.92234  0.23342  0.27838  1.0000
  H   H432      1.0  0.82522  0.17737  0.03400  1.0000
  C   C546      1.0  0.95939  0.24736  0.22190  1.0000
  C   C547      1.0  0.73297  0.14796  0.00293  1.0000
  C   C548      1.0  0.84831  0.08588  0.04601  1.0000
  C   C549      1.0  0.82006  0.26247  0.32271  1.0000
  C   C550      1.0  0.78999  0.07118  0.08128  1.0000
  H   H433      1.0  0.92176  0.23192  0.30792  1.0000
  H   H434      1.0  0.95098  0.23089  0.36943  1.0000
  C   C551      1.0  0.71005  0.15628  0.10318  1.0000
  C   C552      1.0  0.72078  0.12697  0.10201  1.0000
  C   C553      1.0  0.69336  0.08839  0.11139  1.0000
  C   C554      1.0  0.65514  0.07901  0.12190  1.0000
  C   C555      1.0  0.64379  0.10814  0.12259  1.0000
  C   C556      1.0  0.67170  0.14697  0.11335  1.0000
  P   P19       1.0  0.59416  0.09579  0.13616  1.0000
  H   H435      1.0  0.63690  0.07548  0.19252  1.0000
  H   H436      1.0  0.69950  0.05056  0.98839  1.0000
  C   C557      1.0  0.82532  0.29694  0.33912  1.0000
  H   H437      1.0  0.83086  0.16944  0.41245  1.0000
  C   C558      1.0  0.92637  0.28956  0.43983  1.0000
  H   H438      1.0  0.76679  0.14325  0.28164  1.0000
  C   C559      1.0  0.61293  0.07746  0.20538  1.0000
  C   C560      1.0  0.79582  0.09437  0.01843  1.0000
  C   C561      1.0  0.66238  0.10982  0.01338  1.0000
  H   H439      1.0  0.95034  0.32694  0.23010  1.0000
  H   H440      1.0  0.62761  0.06419  0.25869  1.0000
  H   H441      1.0  0.03128  0.28110  0.01500  1.0000
  C   C562      1.0  0.58552  0.13629  0.12545  1.0000
  C   C563      1.0  0.82314  0.11573  0.33705  1.0000
  H   H442      1.0  0.70934  0.16599  0.19218  1.0000
  H   H443      1.0  0.79173  0.23599  0.32494  1.0000
  H   H444      1.0  0.81626  0.10254  0.39488  1.0000
  C   C564      1.0  0.97766  0.19856  0.08721  1.0000
  H   H445      1.0  0.73150  0.18621  0.09589  1.0000
  H   H446      1.0  0.75039  0.13417  0.09384  1.0000
  H   H447      1.0  0.70169  0.06563  0.11068  1.0000
  H   H448      1.0  0.61058  0.16743  0.17581  1.0000
  H   H449      1.0  0.66407  0.17016  0.11373  1.0000
  H   H450      1.0  0.60126  0.06267  0.39099  1.0000
  H   H451      1.0  0.92712  0.17860  0.05172  1.0000
  C   C565      1.0  0.82287  0.12477  0.37394  1.0000
  H   H452      1.0  0.79151  0.04901  0.95723  1.0000
  C   C566      1.0  0.98048  0.34777  0.22295  1.0000
  C   C567      1.0  0.80050  0.22515  0.22750  1.0000
  C   C568      1.0  0.83062  0.14408  0.30994  1.0000
  H   H453      1.0  0.63441  0.04888  0.12929  1.0000
  C   C569      1.0  0.56013  0.16785  0.08417  1.0000
  H   H454      1.0  0.82558  0.25414  0.22337  1.0000
  C   C570      1.0  0.56831  0.03855  0.08131  1.0000
  C   C571      1.0  0.73422  0.11360  0.99440  1.0000
  C   C572      1.0  0.58731  0.08617  0.18501  1.0000
  C   C573      1.0  0.55761  0.05367  0.11137  1.0000
  H   H455      1.0  0.76741  0.23228  0.18356  1.0000
  C   C574      1.0  0.88766  0.29680  0.30112  1.0000
  C   C575      1.0  0.56209  0.04866  0.96707  1.0000
  C   C576      1.0  0.95781  0.24436  0.26002  1.0000
  H   H456      1.0  0.98432  0.25142  0.27540  1.0000
  H   H457      1.0  0.94630  0.28941  0.34927  1.0000
  H   H458      1.0  0.69618  0.17257  0.01877  1.0000
  C   C577      1.0  0.80144  0.20000  0.25478  1.0000
  H   H459      1.0  0.56024  0.11434  0.07221  1.0000
  H   H460      1.0  0.96234  0.23144  0.00544  1.0000
  H   H461      1.0  0.68131  0.07371  0.43138  1.0000
  C   C578      1.0  0.83081  0.16240  0.38380  1.0000
  C   C579      1.0  0.71637  0.04617  0.41951  1.0000
  C   C580      1.0  0.58827  0.19771  0.14225  1.0000
  H   H462      1.0  0.87717  0.08812  0.04419  1.0000
  C   C581      1.0  0.93167  0.30073  0.40289  1.0000
  C   C582      1.0  0.55645  0.08812  0.20329  1.0000
  C   C583      1.0  0.95785  0.20012  0.05578  1.0000
  H   H463      1.0  0.83923  0.06640  0.10240  1.0000
  C   C584      1.0  0.66343  0.07554  0.00476  1.0000
  C   C585      1.0  0.89285  0.33119  0.31751  1.0000
  H   H464      1.0  0.94020  0.21002  0.43419  1.0000
  H   H465      1.0  0.91337  0.26698  0.96558  1.0000
  P   P20       1.0  0.84441  0.21698  0.28388  1.0000
  Fe  Fe36      1.0  0.71378  0.03771  0.25308  1.0000
  H   H466      1.0  0.77384  0.06226  0.10691  1.0000
  H   H467      1.0  0.85047  0.10756  0.99132  1.0000
  H   H468      1.0  0.83044  0.13653  0.28141  1.0000
  C   C586      1.0  0.97760  0.22982  0.02977  1.0000
  H   H469      1.0  0.63654  0.04743  0.00542  1.0000
  C   C587      1.0  0.86176  0.33127  0.33663  1.0000
  H   H470      1.0  0.98693  0.25625  0.20766  1.0000
  C   C588      1.0  0.69707  0.14600  0.01224  1.0000
  C   C589      1.0  0.88824  0.22597  0.25882  1.0000
  C   C590      1.0  0.57726  0.07332  0.26105  1.0000
  C   C591      1.0  0.56810  0.13731  0.09208  1.0000
  C   C592      1.0  0.85140  0.26203  0.30400  1.0000
  C   C593      1.0  0.59622  0.16710  0.15027  1.0000
  C   C594      1.0  0.73493  0.15096  0.23764  1.0000
  C   C595      1.0  0.83723  0.18779  0.00685  1.0000
  H   H471      1.0  0.84438  0.21969  0.36525  1.0000
  H   H472      1.0  0.57356  0.06850  0.29036  1.0000
  H   H473      1.0  0.81691  0.08652  0.32940  1.0000
  H   H474      1.0  0.92690  0.24203  0.17262  1.0000
  C   C596      1.0  0.73477  0.17570  0.20987  1.0000
  C   C597      1.0  0.92547  0.23927  0.20214  1.0000
  H   H475      1.0  0.66869  0.08183  0.36600  1.0000
  C   C598      1.0  0.83295  0.09654  0.01605  1.0000
  H   H476      1.0  0.75948  0.17626  0.00236  1.0000
  C   C599      1.0  0.76799  0.16299  0.26010  1.0000
  C   C600      1.0  0.94111  0.27997  0.37764  1.0000
  C   C601      1.0  0.83809  0.19077  0.35676  1.0000
  C   C602      1.0  0.76742  0.21294  0.20503  1.0000
  P   P21       1.0  0.77984  0.11490  0.98193  1.0000
  C   C603      1.0  0.93133  0.25795  0.45190  1.0000
  H   H477      1.0  0.70941  0.12229  0.24188  1.0000
  C   C604      1.0  0.60783  0.07105  0.24319  1.0000
  C   C605      1.0  0.83705  0.18150  0.31951  1.0000
  C   C606      1.0  0.94400  0.24721  0.38906  1.0000
  C   C607      1.0  0.73238  0.03380  0.39151  1.0000
  C   C608      1.0  0.01694  0.25825  0.03536  1.0000
  C   C609      1.0  0.72486  0.03795  0.35446  1.0000
  H   H478      1.0  0.59620  0.22126  0.16155  1.0000
  H   H479      1.0  0.56310  0.22120  0.10327  1.0000
  S   S75       1.0  0.77251  0.03989  0.25581  1.0000
  S   S76       1.0  0.99561  0.34904  0.29668  1.0000
  H   H480      1.0  0.92907  0.32590  0.39389  1.0000
  C   C610      1.0  0.88726  0.23854  0.96853  1.0000
  H   H481      1.0  0.59847  0.05169  0.07192  1.0000
  C   C611      1.0  0.57528  0.04592  0.37436  1.0000
  C   C612      1.0  0.03682  0.25744  0.06721  1.0000
  H   H482      1.0  0.58810  0.07713  0.96882  1.0000
  H   H483      1.0  0.96824  0.34571  0.16496  1.0000
  H   H484      1.0  0.54592  0.16787  0.05855  1.0000
  C   C613      1.0  0.55142  0.08162  0.24109  1.0000
  S   S77       1.0  0.99894  0.31186  0.96310  1.0000
  H   H485      1.0  0.54614  0.07738  0.39306  1.0000
  H   H486      1.0  0.92117  0.35774  0.31533  1.0000
  C   C614      1.0  0.99055  0.35843  0.18597  1.0000
  H   H487      1.0  0.86590  0.35795  0.34941  1.0000
  C   C615      1.0  0.00924  0.36350  0.25049  1.0000
  H   H488      1.0  0.04094  0.31304  0.12726  1.0000
  C   C616      1.0  0.54419  0.05426  0.37555  1.0000
  C   C617      1.0  0.80439  0.17690  0.50626  1.0000
  Fe  Fe37      1.0  0.99013  0.31908  0.75126  1.0000
  S   S78       1.0  0.99006  0.26148  0.75103  1.0000
  H   H489      1.0  0.65695  0.10729  0.90648  1.0000
  C   C618      1.0  0.87508  0.20229  0.50198  1.0000
  Fe  Fe38      1.0  0.97106  0.25804  0.69188  1.0000
  S   S79       1.0  0.92644  0.20313  0.66118  1.0000
  S   S80       1.0  0.96706  0.31345  0.69354  1.0000
  Fe  Fe39      1.0  0.71483  0.11830  0.56883  1.0000
  S   S81       1.0  0.72181  0.06476  0.56869  1.0000
  S   S82       1.0  0.76249  0.17571  0.59323  1.0000
  Fe  Fe40      1.0  0.63216  0.07372  0.53262  1.0000
  H   H490      1.0  0.63911  0.16725  0.62693  1.0000
  S   S83       1.0  0.58082  0.07950  0.50892  1.0000
  H   H491      1.0  0.99840  0.24827  0.47089  1.0000
  H   H492      1.0  0.74438  0.12084  0.91373  1.0000
  Fe  Fe41      1.0  0.69700  0.05565  0.51155  1.0000
  S   S84       1.0  0.65260  0.08676  0.59128  1.0000
  S   S85       1.0  0.69360  0.11135  0.51037  1.0000
  H   H493      1.0  0.95689  0.09651  0.74277  1.0000
  C   C619      1.0  0.77554  0.14620  0.71741  1.0000
  C   C620      1.0  0.63211  0.07212  0.85851  1.0000
  H   H494      1.0  0.68806  0.05888  0.66789  1.0000
  H   H495      1.0  0.70453  0.07543  0.73355  1.0000
  C   C621      1.0  0.96682  0.33784  0.90897  1.0000
  C   C622      1.0  0.54960  0.10654  0.58940  1.0000
  C   C623      1.0  0.58743  0.03857  0.71291  1.0000
  H   H496      1.0  0.87436  0.12398  0.69041  1.0000
  C   C624      1.0  0.88126  0.19647  0.64211  1.0000
  C   C625      1.0  0.86613  0.22158  0.65004  1.0000
  C   C626      1.0  0.83016  0.21515  0.63441  1.0000
  C   C627      1.0  0.80846  0.18320  0.61115  1.0000
  C   C628      1.0  0.82363  0.15808  0.60316  1.0000
  C   C629      1.0  0.85982  0.16482  0.61847  1.0000
  H   H497      1.0  0.88206  0.24589  0.66834  1.0000
  H   H498      1.0  0.81878  0.23476  0.64086  1.0000
  H   H499      1.0  0.80758  0.13354  0.58514  1.0000
  H   H500      1.0  0.87149  0.14562  0.61173  1.0000
  C   C630      1.0  0.97351  0.32969  0.84354  1.0000
  C   C631      1.0  0.99365  0.30911  0.85197  1.0000
  C   C632      1.0  0.00023  0.30285  0.88875  1.0000
  C   C633      1.0  0.98746  0.31775  0.91736  1.0000
  S   S86       1.0  0.96563  0.33918  0.79767  1.0000
  C   C634      1.0  0.83917  0.06036  0.57927  1.0000
  H   H501      1.0  0.60010  0.03703  0.81294  1.0000
  C   C635      1.0  0.00658  0.19803  0.54364  1.0000
  H   H502      1.0  0.01612  0.28719  0.89497  1.0000
  C   C636      1.0  0.57178  0.06862  0.83516  1.0000
  C   C637      1.0  0.89887  0.04734  0.73378  1.0000
  H   H503      1.0  0.60416  0.12553  0.91139  1.0000
  H   H504      1.0  0.75049  0.03474  0.84634  1.0000
  H   H505      1.0  0.55053  0.10174  0.73785  1.0000
  C   C638      1.0  0.97442  0.19359  0.56439  1.0000
  H   H506      1.0  0.74949  0.13814  0.66401  1.0000
  C   C639      1.0  0.86844  0.16419  0.49511  1.0000
  C   C640      1.0  0.55252  0.08750  0.65212  1.0000
  H   H507      1.0  0.76988  0.16991  0.72437  1.0000
  C   C641      1.0  0.91696  0.30306  0.58804  1.0000
  H   H508      1.0  0.82508  0.16135  0.91695  1.0000
  C   C642      1.0  0.68352  0.04581  0.72596  1.0000
  H   H509      1.0  0.00450  0.29835  0.83016  1.0000
  H   H510      1.0  0.65496  0.06395  0.85648  1.0000
  H   H511      1.0  0.86656  0.08242  0.63096  1.0000
  C   C643      1.0  0.79382  0.13315  0.74259  1.0000
  H   H512      1.0  0.97749  0.32830  0.49806  1.0000
  H   H513      1.0  0.92525  0.20410  0.56739  1.0000
  H   H514      1.0  0.88913  0.24319  0.57080  1.0000
  C   C644      1.0  0.86101  0.03509  0.71994  1.0000
  C   C645      1.0  0.85172  0.06252  0.70419  1.0000
  C   C646      1.0  0.76428  0.12844  0.68325  1.0000
  C   C647      1.0  0.80364  0.04342  0.63723  1.0000
  P   P22       1.0  0.92438  0.24318  0.49959  1.0000
  C   C648      1.0  0.91854  0.11436  0.71628  1.0000
  C   C649      1.0  0.99042  0.23178  0.49632  1.0000
  C   C650      1.0  0.80136  0.10274  0.73336  1.0000
  Fe  Fe42      1.0  0.03071  0.34340  0.67621  1.0000
  H   H515      1.0  0.73259  0.08684  0.85456  1.0000
  H   H516      1.0  0.82474  0.10321  0.48910  1.0000
  C   C651      1.0  0.60109  0.05741  0.83336  1.0000
  C   C652      1.0  0.74592  0.07910  0.87697  1.0000
  C   C653      1.0  0.83002  0.13265  0.49430  1.0000
  H   H517      1.0  0.76846  0.11454  0.49945  1.0000
  P   P23       1.0  0.80299  0.04766  0.68649  1.0000
  C   C654      1.0  0.77962  0.05837  0.93490  1.0000
  H   H518      1.0  0.55026  0.10110  0.86678  1.0000
  C   C655      1.0  0.84274  0.20855  0.50685  1.0000
  C   C656      1.0  0.96577  0.35084  0.54692  1.0000
  H   H519      1.0  0.84705  0.23777  0.51129  1.0000
  H   H520      1.0  0.60745  0.12297  0.68013  1.0000
  H   H521      1.0  0.80230  0.14671  0.76920  1.0000
  C   C657      1.0  0.91019  0.27317  0.56348  1.0000
  H   H522      1.0  0.94065  0.14518  0.71476  1.0000
  C   C658      1.0  0.79122  0.08556  0.69859  1.0000
  S   S87       1.0  0.03412  0.28800  0.67212  1.0000
  C   C659      1.0  0.60886  0.14375  0.62510  1.0000
  H   H523      1.0  0.96861  0.17979  0.59125  1.0000
  C   C660      1.0  0.77229  0.09840  0.67369  1.0000
  C   C661      1.0  0.77262  0.03911  0.90135  1.0000
  C   C662      1.0  0.57946  0.05181  0.74552  1.0000
  C   C663      1.0  0.95956  0.34341  0.87222  1.0000
  C   C664      1.0  0.75252  0.09814  0.91053  1.0000
  C   C665      1.0  0.83904  0.06362  0.61736  1.0000
  C   C666      1.0  0.92761  0.08696  0.73197  1.0000
  C   C667      1.0  0.59101  0.11875  0.65504  1.0000
  C   C668      1.0  0.63339  0.09678  0.88652  1.0000
  C   C669      1.0  0.87025  0.21572  0.93765  1.0000
  H   H524      1.0  0.77954  0.18172  0.51107  1.0000
  C   C670      1.0  0.58818  0.13755  0.59229  1.0000
  H   H525      1.0  0.90110  0.29606  0.61378  1.0000
  H   H526      1.0  0.03650  0.31478  0.60174  1.0000
  H   H527      1.0  0.60253  0.07820  0.75782  1.0000
  C   C671      1.0  0.94987  0.20757  0.55082  1.0000
  H   H528      1.0  0.86645  0.07675  0.56409  1.0000
  C   C672      1.0  0.57313  0.09318  0.86365  1.0000
  H   H529      1.0  0.88340  0.22668  0.91095  1.0000
  C   C673      1.0  0.88079  0.10223  0.70249  1.0000
  C   C674      1.0  0.95950  0.32097  0.52255  1.0000
  C   C675      1.0  0.93106  0.28198  0.53026  1.0000
  C   C676      1.0  0.95730  0.22624  0.51643  1.0000
  C   C677      1.0  0.94470  0.34187  0.57977  1.0000
  H   H530      1.0  0.89289  0.15884  0.49014  1.0000
  C   C678      1.0  0.60378  0.10715  0.88917  1.0000
  C   C679      1.0  0.67441  0.03645  0.68879  1.0000
  H   H531      1.0  0.60249  0.15592  0.56858  1.0000
  H   H532      1.0  0.61631  0.05462  0.70041  1.0000
  C   C680      1.0  0.83686  0.17872  0.94127  1.0000
  H   H533      1.0  0.76380  0.08558  0.64685  1.0000
  H   H534      1.0  0.81558  0.09301  0.75321  1.0000
  C   C681      1.0  0.79809  0.13903  0.49999  1.0000
  C   C682      1.0  0.01475  0.21741  0.50977  1.0000
  C   C683      1.0  0.77003  0.08836  0.93956  1.0000
  Fe  Fe43      1.0  0.65890  0.03278  0.58796  1.0000
  H   H535      1.0  0.03887  0.29343  0.53935  1.0000
  C   C684      1.0  0.80414  0.03638  0.56077  1.0000
  C   C685      1.0  0.75611  0.04972  0.87231  1.0000
  H   H536      1.0  0.95679  0.34945  0.93072  1.0000
  S   S88       1.0  0.72524  0.03878  0.46577  1.0000
  H   H537      1.0  0.02559  0.18715  0.55414  1.0000
  H   H538      1.0  0.94338  0.35875  0.86601  1.0000
  H   H539      1.0  0.04046  0.22219  0.49419  1.0000
  C   C686      1.0  0.54199  0.03129  0.76188  1.0000
  H   H540      1.0  0.80404  0.03416  0.53121  1.0000
  H   H541      1.0  0.90345  0.35628  0.76046  1.0000
  H   H542      1.0  0.86549  0.36268  0.70853  1.0000
  H   H543      1.0  0.91850  0.30574  0.45879  1.0000
  C   C687      1.0  0.86891  0.67450  0.14422  1.0000
  Fe  Fe44      1.0  0.65896  0.67470  0.35091  1.0000
  S   S89       1.0  0.59969  0.67139  0.34874  1.0000
  S   S90       1.0  0.68272  0.65554  0.30323  1.0000
  C   C688      1.0  0.97316  0.51509  0.97042  1.0000
  S   S91       1.0  0.65011  0.64882  0.40793  1.0000
  Fe  Fe45      1.0  0.71222  0.62963  0.07212  1.0000
  C   C689      1.0  0.93218  0.63001  0.06546  1.0000
  S   S92       1.0  0.76264  0.61992  0.09216  1.0000
  Fe  Fe46      1.0  0.62685  0.59172  0.04097  1.0000
  S   S93       1.0  0.62797  0.64955  0.03864  1.0000
  S   S94       1.0  0.57218  0.53580  0.02266  1.0000
  Fe  Fe47      1.0  0.68873  0.67195  0.01512  1.0000
  Fe  Fe48      1.0  0.65762  0.66066  0.09388  1.0000
  C   C690      1.0  0.81587  0.66999  0.26206  1.0000
  S   S95       1.0  0.68673  0.61365  0.01522  1.0000
  S   S96       1.0  0.65186  0.60081  0.09827  1.0000
  Fe  Fe49      1.0  0.95328  0.39492  0.03033  1.0000
  S   S97       1.0  0.01198  0.39728  0.02845  1.0000
  S   S98       1.0  0.94513  0.44543  0.00861  1.0000
  C   C691      1.0  0.03863  0.50477  0.28459  1.0000
  H   H544      1.0  0.70529  0.58918  0.18808  1.0000
  H   H545      1.0  0.01911  0.60333  0.14157  1.0000
  C   C692      1.0  0.95825  0.64489  0.40474  1.0000
  C   C693      1.0  0.95021  0.63304  0.36805  1.0000
  H   H546      1.0  0.94573  0.62339  0.42651  1.0000
  H   H547      1.0  0.93155  0.60236  0.36184  1.0000
  Fe  Fe50      1.0  0.99757  0.37213  0.08564  1.0000
  C   C694      1.0  0.98261  0.68441  0.41307  1.0000
  C   C695      1.0  0.02951  0.38509  0.17627  1.0000
  C   C696      1.0  0.00536  0.50859  0.33946  1.0000
  C   C697      1.0  0.00454  0.44795  0.32478  1.0000
  H   H548      1.0  0.94590  0.51405  0.97860  1.0000
  P   P24       1.0  0.56052  0.50751  0.20235  1.0000
  H   H549      1.0  0.99810  0.52541  0.35824  1.0000
  H   H550      1.0  0.02206  0.46314  0.97844  1.0000
  H   H551      1.0  0.98875  0.58253  0.33388  1.0000
  C   C698      1.0  0.54766  0.40903  0.25614  1.0000
  C   C699      1.0  0.98051  0.48454  0.98113  1.0000
  H   H552      1.0  0.89670  0.65987  0.24587  1.0000
  H   H553      1.0  0.99563  0.45474  0.22758  1.0000
  C   C700      1.0  0.64713  0.50905  0.13719  1.0000
  H   H554      1.0  0.56633  0.59622  0.97861  1.0000
  S   S99       1.0  0.95948  0.64394  0.29374  1.0000
  H   H555      1.0  0.70941  0.55054  0.13671  1.0000
  C   C701      1.0  0.80460  0.65553  0.11635  1.0000
  H   H556      1.0  0.58704  0.56728  0.43524  1.0000
  H   H557      1.0  0.79595  0.63595  0.42243  1.0000
  C   C702      1.0  0.83479  0.64699  0.12568  1.0000
  H   H558      1.0  0.83261  0.64486  0.21787  1.0000
  H   H559      1.0  0.83185  0.61894  0.11840  1.0000
  C   C703      1.0  0.64241  0.55286  0.19517  1.0000
  C   C704      1.0  0.67285  0.66618  0.25838  1.0000
  C   C705      1.0  0.68574  0.65361  0.22806  1.0000
  C   C706      1.0  0.67680  0.66022  0.19215  1.0000
  H   H560      1.0  0.78453  0.56891  0.43624  1.0000
  C   C707      1.0  0.01600  0.48639  0.97053  1.0000
  H   H561      1.0  0.54737  0.62712  0.20817  1.0000
  H   H562      1.0  0.70238  0.63837  0.23238  1.0000
  H   H563      1.0  0.68661  0.65007  0.16904  1.0000
  H   H564      1.0  0.01231  0.44665  0.44244  1.0000
  H   H565      1.0  0.86851  0.60798  0.41245  1.0000
  H   H566      1.0  0.98215  0.53076  0.24340  1.0000
  C   C708      1.0  0.69169  0.58783  0.37938  1.0000
  H   H567      1.0  0.03662  0.55668  0.30222  1.0000
  C   C709      1.0  0.72508  0.60828  0.35731  1.0000
  Fe  Fe51      1.0  0.59314  0.65052  0.40742  1.0000
  C   C710      1.0  0.99382  0.46949  0.34787  1.0000
  H   H568      1.0  0.78783  0.66335  0.24983  1.0000
  C   C711      1.0  0.56099  0.44128  0.23224  1.0000
  H   H569      1.0  0.85118  0.38044  0.07826  1.0000
  H   H570      1.0  0.66936  0.56798  0.43342  1.0000
  H   H571      1.0  0.91710  0.69480  0.30443  1.0000
  C   C712      1.0  0.69577  0.58385  0.41701  1.0000
  C   C713      1.0  0.76677  0.62202  0.41057  1.0000
  C   C714      1.0  0.76261  0.62514  0.37289  1.0000
  C   C715      1.0  0.96741  0.66043  0.33943  1.0000
  C   C716      1.0  0.01462  0.47488  0.44762  1.0000
  H   H572      1.0  0.58266  0.44541  0.21164  1.0000
  H   H573      1.0  0.97759  0.45626  0.37287  1.0000
  C   C717      1.0  0.02749  0.52621  0.30781  1.0000
  C   C718      1.0  0.61062  0.49832  0.15345  1.0000
  H   H574      1.0  0.04103  0.54589  0.02943  1.0000
  H   H575      1.0  0.99585  0.58582  0.40144  1.0000
  H   H576      1.0  0.99624  0.41784  0.33157  1.0000
  H   H577      1.0  0.64122  0.57047  0.21730  1.0000
  H   H578      1.0  0.78845  0.64086  0.35581  1.0000
  H   H579      1.0  0.66256  0.57551  0.36730  1.0000
  H   H580      1.0  0.58468  0.59532  0.30739  1.0000
  C   C719      1.0  0.89140  0.61521  0.06399  1.0000
  C   C720      1.0  0.87285  0.44041  0.06118  1.0000
  C   C721      1.0  0.86711  0.41094  0.08632  1.0000
  C   C722      1.0  0.88301  0.42088  0.12143  1.0000
  C   C723      1.0  0.90492  0.46031  0.13133  1.0000
  C   C724      1.0  0.91111  0.49022  0.10609  1.0000
  C   C725      1.0  0.89499  0.47986  0.07085  1.0000
  P   P25       1.0  0.94201  0.54146  0.11720  1.0000
  C   C726      1.0  0.92231  0.57000  0.09542  1.0000
  C   C727      1.0  0.94363  0.54865  0.16615  1.0000
  C   C728      1.0  0.92526  0.56816  0.18227  1.0000
  C   C729      1.0  0.92750  0.57409  0.22007  1.0000
  C   C730      1.0  0.94791  0.56057  0.24209  1.0000
  C   C731      1.0  0.96627  0.54117  0.22633  1.0000
  C   C732      1.0  0.96456  0.53567  0.18846  1.0000
  C   C733      1.0  0.94764  0.60760  0.08120  1.0000
  C   C734      1.0  0.68122  0.54165  0.14985  1.0000
  H   H581      1.0  0.95150  0.66274  0.95785  1.0000
  C   C735      1.0  0.86598  0.57782  0.07807  1.0000
  C   C736      1.0  0.88132  0.55531  0.09384  1.0000
  C   C737      1.0  0.99154  0.55817  0.10063  1.0000
  C   C738      1.0  0.99820  0.54224  0.06888  1.0000
  H   H582      1.0  0.55918  0.38884  0.25390  1.0000
  C   C739      1.0  0.02729  0.46563  0.29360  1.0000
  H   H583      1.0  0.73895  0.58291  0.97889  1.0000
  C   C740      1.0  0.55416  0.60713  0.22323  1.0000
  H   H584      1.0  0.86183  0.43275  0.03349  1.0000
  H   H585      1.0  0.89195  0.66750  0.15072  1.0000
  H   H586      1.0  0.87898  0.39794  0.14069  1.0000
  H   H587      1.0  0.91711  0.46700  0.15851  1.0000
  H   H588      1.0  0.90056  0.50222  0.05036  1.0000
  H   H589      1.0  0.90972  0.57947  0.16589  1.0000
  H   H590      1.0  0.91385  0.58974  0.23235  1.0000
  H   H591      1.0  0.94975  0.56562  0.27133  1.0000
  H   H592      1.0  0.97967  0.52143  0.17640  1.0000
  H   H593      1.0  0.81698  0.53014  0.45142  1.0000
  H   H594      1.0  0.97934  0.61998  0.08248  1.0000
  S   S100      1.0  0.96282  0.67724  0.19174  1.0000
  C   C741      1.0  0.67888  0.56347  0.17886  1.0000
  C   C742      1.0  0.87365  0.65989  0.38604  1.0000
  H   H595      1.0  0.86125  0.52666  0.10517  1.0000
  H   H596      1.0  0.97408  0.51853  0.05458  1.0000
  C   C743      1.0  0.87071  0.63645  0.41639  1.0000
  H   H597      1.0  0.96520  0.42484  0.16910  1.0000
  C   C744      1.0  0.57525  0.58923  0.27913  1.0000
  H   H598      1.0  0.87351  0.64886  0.35898  1.0000
  C   C745      1.0  0.84099  0.65941  0.24410  1.0000
  C   C746      1.0  0.56294  0.54963  0.22475  1.0000
  H   H599      1.0  0.87952  0.63291  0.05230  1.0000
  H   H600      1.0  0.83435  0.56656  0.07713  1.0000
  C   C747      1.0  0.73350  0.60086  0.43289  1.0000
  C   C748      1.0  0.82720  0.68972  0.29541  1.0000
  H   H601      1.0  0.72175  0.61139  0.32819  1.0000
  H   H602      1.0  0.64895  0.49265  0.11424  1.0000
  H   H603      1.0  0.54577  0.57089  0.17682  1.0000
  C   C749      1.0  0.01837  0.60846  0.38432  1.0000
  C   C750      1.0  0.55981  0.54808  0.44935  1.0000
  H   H604      1.0  0.58442  0.47325  0.14301  1.0000
  S   S101      1.0  0.02570  0.39050  0.39698  1.0000
  H   H605      1.0  0.95195  0.65907  0.05471  1.0000
  C   C751      1.0  0.80865  0.69184  0.12645  1.0000
  C   C752      1.0  0.60793  0.52036  0.18240  1.0000
  C   C753      1.0  0.00997  0.47093  0.13624  1.0000
  H   H606      1.0  0.03946  0.63475  0.29477  1.0000
  C   C754      1.0  0.01456  0.60637  0.34626  1.0000
  S   S102      1.0  0.64247  0.68789  0.14157  1.0000
  H   H607      1.0  0.56304  0.52804  0.12387  1.0000
  C   C755      1.0  0.87718  0.66804  0.25975  1.0000
  C   C756      1.0  0.99225  0.45273  0.16931  1.0000
  C   C757      1.0  0.57470  0.55736  0.26149  1.0000
  C   C758      1.0  0.65511  0.67977  0.18628  1.0000
  C   C759      1.0  0.54605  0.46750  0.23490  1.0000
  Fe  Fe52      1.0  0.04139  0.37706  0.34149  1.0000
  H   H608      1.0  0.56539  0.63876  0.27370  1.0000
  C   C760      1.0  0.64327  0.69337  0.21662  1.0000
  C   C761      1.0  0.54348  0.68908  0.99893  1.0000
  H   H609      1.0  0.99650  0.45750  0.11046  1.0000
  C   C762      1.0  0.01000  0.46979  0.20257  1.0000
  S   S103      1.0  0.94084  0.37386  0.08909  1.0000
  H   H610      1.0  0.58362  0.53895  0.27653  1.0000
  C   C763      1.0  0.02364  0.58942  0.11795  1.0000
  C   C764      1.0  0.56450  0.61379  0.26014  1.0000
  C   C765      1.0  0.65221  0.68676  0.25245  1.0000
  Fe  Fe53      1.0  0.98771  0.68952  0.24876  1.0000
  C   C766      1.0  0.03630  0.55769  0.05449  1.0000
  S   S104      1.0  0.71863  0.68977  0.06991  1.0000
  H   H611      1.0  0.03653  0.44883  0.27677  1.0000
  C   C767      1.0  0.55345  0.57523  0.20551  1.0000
  C   C768      1.0  0.88868  0.68793  0.29297  1.0000
  C   C769      1.0  0.87188  0.65016  0.45180  1.0000
  C   C770      1.0  0.56188  0.68298  0.56146  1.0000
  Fe  Fe54      1.0  0.90773  0.60815  0.55975  1.0000
  C   C771      1.0  0.99519  0.65215  0.74548  1.0000
  S   S105      1.0  0.84892  0.59828  0.58241  1.0000
  Fe  Fe55      1.0  0.95482  0.57174  0.52479  1.0000
  S   S106      1.0  0.01067  0.62934  0.52359  1.0000
  S   S107      1.0  0.95153  0.51525  0.50438  1.0000
  Fe  Fe56      1.0  0.99319  0.63831  0.57995  1.0000
  C   C772      1.0  0.92727  0.66200  0.94235  1.0000
  Fe  Fe57      1.0  0.97213  0.65345  0.50300  1.0000
  S   S108      1.0  0.94028  0.57860  0.58315  1.0000
  S   S109      1.0  0.91659  0.59528  0.50143  1.0000
  C   C773      1.0  0.96771  0.63987  0.71677  1.0000
  C   C774      1.0  0.98007  0.64237  0.68008  1.0000
  C   C775      1.0  0.81093  0.64670  0.76386  1.0000
  S   S110      1.0  0.00838  0.64225  0.89467  1.0000
  H   H612      1.0  0.88100  0.61869  0.77262  1.0000
  C   C776      1.0  0.98860  0.51382  0.47692  1.0000
  C   C777      1.0  0.74102  0.58691  0.94941  1.0000
  H   H613      1.0  0.95037  0.36486  0.59912  1.0000
  H   H614      1.0  0.80111  0.63288  0.95095  1.0000
  H   H615      1.0  0.79414  0.65204  0.74302  1.0000
  H   H616      1.0  0.96193  0.45090  0.48095  1.0000
  H   H617      1.0  0.90601  0.46956  0.62156  1.0000
  C   C778      1.0  0.98607  0.47738  0.46952  1.0000
  C   C779      1.0  0.03657  0.54918  0.93905  1.0000
  C   C780      1.0  0.67642  0.63348  0.88340  1.0000
  C   C781      1.0  0.68149  0.65006  0.91832  1.0000
  H   H618      1.0  0.95861  0.63270  0.65823  1.0000
  H   H619      1.0  0.65986  0.60202  0.88044  1.0000
  C   C782      1.0  0.91463  0.38384  0.74554  1.0000
  H   H620      1.0  0.93678  0.62839  0.72294  1.0000
  C   C783      1.0  0.81016  0.62816  0.62307  1.0000
  C   C784      1.0  0.84692  0.63189  0.61356  1.0000
  H   H621      1.0  0.02259  0.57610  0.46769  1.0000
  H   H622      1.0  0.78352  0.60454  0.61171  1.0000
  C   C785      1.0  0.55740  0.47472  0.69898  1.0000
  H   H623      1.0  0.54325  0.65162  0.56520  1.0000
  C   C786      1.0  0.69299  0.65738  0.85240  1.0000
  C   C787      1.0  0.00944  0.45556  0.60214  1.0000
  H   H624      1.0  0.56835  0.45698  0.57560  1.0000
  C   C788      1.0  0.01159  0.51385  0.57634  1.0000
  H   H625      1.0  0.79846  0.62597  0.54146  1.0000
  C   C789      1.0  0.77628  0.61522  0.93340  1.0000
  H   H626      1.0  0.01846  0.53435  0.55371  1.0000
  C   C790      1.0  0.90834  0.42295  0.69682  1.0000
  H   H627      1.0  0.98781  0.38083  0.54075  1.0000
  H   H628      1.0  0.64232  0.68205  0.50260  1.0000
  C   C791      1.0  0.74604  0.59821  0.87348  1.0000
  C   C792      1.0  0.55367  0.68861  0.85605  1.0000
  C   C793      1.0  0.69206  0.57732  0.50329  1.0000
  C   C794      1.0  0.77270  0.64541  0.49878  1.0000
  Fe  Fe58      1.0  0.02407  0.66797  0.83754  1.0000
  C   C795      1.0  0.76051  0.56498  0.49071  1.0000
  C   C796      1.0  0.02017  0.54786  0.46216  1.0000
  H   H629      1.0  0.74255  0.55556  0.54766  1.0000
  C   C797      1.0  0.66817  0.53655  0.50762  1.0000
  C   C798      1.0  0.63011  0.52101  0.52205  1.0000
  C   C799      1.0  0.61534  0.54592  0.53169  1.0000
  C   C800      1.0  0.63861  0.58641  0.52681  1.0000
  C   C801      1.0  0.67695  0.60219  0.51290  1.0000
  C   C802      1.0  0.71092  0.56968  0.88958  1.0000
  P   P26       1.0  0.82475  0.65847  0.87511  1.0000
  H   H630      1.0  0.77487  0.51619  0.56195  1.0000
  C   C803      1.0  0.92788  0.69701  0.93268  1.0000
  H   H631      1.0  0.67843  0.51663  0.49894  1.0000
  H   H632      1.0  0.61136  0.48953  0.52435  1.0000
  C   C804      1.0  0.78167  0.55747  0.46371  1.0000
  C   C805      1.0  0.89338  0.38750  0.71631  1.0000
  H   H633      1.0  0.69420  0.63365  0.50887  1.0000
  H   H634      1.0  0.66875  0.63129  0.94199  1.0000
  C   C806      1.0  0.03510  0.66731  0.73712  1.0000
  C   C807      1.0  0.56055  0.60087  0.73036  1.0000
  H   H635      1.0  0.59179  0.65662  0.78975  1.0000
  H   H636      1.0  0.84131  0.69176  0.56543  1.0000
  C   C808      1.0  0.80005  0.53520  0.47212  1.0000
  C   C809      1.0  0.96618  0.45183  0.85943  1.0000
  C   C810      1.0  0.75771  0.54934  0.52607  1.0000
  H   H637      1.0  0.90943  0.66510  0.62214  1.0000
  C   C811      1.0  0.96710  0.48794  0.86216  1.0000
  C   C812      1.0  0.99328  0.46063  0.63449  1.0000
  H   H638      1.0  0.88667  0.56835  0.68940  1.0000
  P   P27       1.0  0.73979  0.59694  0.48154  1.0000
  C   C813      1.0  0.80770  0.65522  0.64672  1.0000
  H   H639      1.0  0.98671  0.43977  0.65668  1.0000
  C   C814      1.0  0.65370  0.58144  0.61514  1.0000
  C   C815      1.0  0.68327  0.57113  0.61156  1.0000
  C   C816      1.0  0.67492  0.53270  0.61916  1.0000
  C   C817      1.0  0.63697  0.50458  0.63033  1.0000
  C   C818      1.0  0.60696  0.51467  0.63368  1.0000
  C   C819      1.0  0.61568  0.55343  0.62618  1.0000
  C   C820      1.0  0.86459  0.62520  0.91157  1.0000
  C   C821      1.0  0.00354  0.53976  0.70554  1.0000
  C   C822      1.0  0.01838  0.48201  0.57299  1.0000
  H   H640      1.0  0.94212  0.48941  0.87358  1.0000
  C   C823      1.0  0.79780  0.65061  0.52848  1.0000
  C   C824      1.0  0.99539  0.51901  0.60856  1.0000
  H   H641      1.0  0.59123  0.55237  0.90964  1.0000
  C   C825      1.0  0.56764  0.53876  0.88981  1.0000
  H   H642      1.0  0.58775  0.59134  0.85761  1.0000
  Fe  Fe59      1.0  0.71361  0.67796  0.76149  1.0000
  H   H643      1.0  0.60043  0.68954  0.72921  1.0000
  C   C826      1.0  0.79735  0.52009  0.50743  1.0000
  H   H644      1.0  0.68079  0.54274  0.94006  1.0000
  H   H645      1.0  0.81250  0.50376  0.51419  1.0000
  C   C827      1.0  0.85972  0.62777  0.78048  1.0000
  H   H646      1.0  0.84135  0.62969  0.72505  1.0000
  C   C828      1.0  0.88112  0.66240  0.62866  1.0000
  C   C829      1.0  0.86577  0.52617  0.64604  1.0000
  H   H647      1.0  0.66026  0.61122  0.60900  1.0000
  H   H648      1.0  0.71261  0.59303  0.60289  1.0000
  H   H649      1.0  0.69797  0.52479  0.61658  1.0000
  H   H650      1.0  0.63107  0.47500  0.63648  1.0000
  H   H651      1.0  0.59337  0.56229  0.62870  1.0000
  H   H652      1.0  0.62661  0.60549  0.53331  1.0000
  C   C830      1.0  0.92061  0.53824  0.68570  1.0000
  H   H653      1.0  0.58537  0.53372  0.54186  1.0000
  H   H654      1.0  0.99786  0.42194  0.84411  1.0000
  H   H655      1.0  0.62091  0.50579  0.70610  1.0000
  C   C831      1.0  0.55493  0.43045  0.59211  1.0000
  C   C832      1.0  0.87122  0.49822  0.62716  1.0000
  C   C833      1.0  0.77307  0.67847  0.48279  1.0000
  H   H656      1.0  0.03048  0.47788  0.54775  1.0000
  C   C834      1.0  0.83751  0.63400  0.75372  1.0000
  H   H657      1.0  0.99498  0.57057  0.94169  1.0000
  C   C835      1.0  0.89044  0.54613  0.67527  1.0000
  C   C836      1.0  0.95079  0.41560  0.75532  1.0000
  C   C837      1.0  0.96608  0.45094  0.73573  1.0000
  P   P28       1.0  0.55849  0.47849  0.64957  1.0000
  H   H658      1.0  0.01900  0.58178  0.78976  1.0000
  H   H659      1.0  0.89165  0.42484  0.67396  1.0000
  H   H660      1.0  0.84318  0.53322  0.63738  1.0000
  H   H661      1.0  0.85277  0.48348  0.60387  1.0000
  S   S111      1.0  0.72555  0.66109  0.70610  1.0000
  C   C838      1.0  0.90157  0.49049  0.63728  1.0000
  S   S112      1.0  0.97896  0.64818  0.79144  1.0000
  H   H662      1.0  0.99479  0.47458  0.74320  1.0000
  P   P29       1.0  0.96562  0.49990  0.67953  1.0000
  C   C839      1.0  0.98596  0.49236  0.63786  1.0000
  C   C840      1.0  0.99614  0.54585  0.74188  1.0000
  H   H663      1.0  0.77929  0.65237  0.65328  1.0000
  H   H664      1.0  0.00151  0.55034  0.85351  1.0000
  H   H665      1.0  0.57698  0.50444  0.46217  1.0000
  C   C841      1.0  0.99905  0.45015  0.84609  1.0000
  C   C842      1.0  0.80664  0.65345  0.80067  1.0000
  C   C843      1.0  0.89688  0.69625  0.91244  1.0000
  C   C844      1.0  0.58779  0.61004  0.70196  1.0000
  C   C845      1.0  0.61972  0.60332  0.70639  1.0000
  C   C846      1.0  0.62454  0.58756  0.73921  1.0000
  C   C847      1.0  0.59738  0.57836  0.76773  1.0000
  H   H666      1.0  0.96725  0.41243  0.77779  1.0000
  H   H667      1.0  0.93961  0.55469  0.70800  1.0000
  C   C848      1.0  0.02021  0.65803  0.67180  1.0000
  C   C849      1.0  0.59087  0.48837  0.75770  1.0000
  H   H668      1.0  0.68539  0.55257  0.87260  1.0000
  C   C850      1.0  0.04070  0.56473  0.69004  1.0000
  H   H669      1.0  0.94026  0.42518  0.86827  1.0000
  H   H670      1.0  0.96760  0.52730  0.75437  1.0000
  S   S113      1.0  0.03744  0.66366  0.62606  1.0000
  C   C851      1.0  0.00099  0.54722  0.94951  1.0000
  S   S114      1.0  0.68832  0.63559  0.80925  1.0000
  C   C852      1.0  0.56514  0.58489  0.76345  1.0000
  H   H671      1.0  0.58462  0.62293  0.67662  1.0000
  H   H672      1.0  0.64122  0.61112  0.68464  1.0000
  H   H673      1.0  0.64999  0.58345  0.74300  1.0000
  H   H674      1.0  0.60223  0.56695  0.79316  1.0000
  C   C853      1.0  0.57146  0.65504  0.81074  1.0000
  H   H675      1.0  0.61899  0.66018  0.56619  1.0000
  C   C854      1.0  0.94480  0.45507  0.70645  1.0000
  C   C855      1.0  0.59240  0.49087  0.71944  1.0000
  H   H676      1.0  0.01516  0.43113  0.59968  1.0000
  C   C856      1.0  0.82915  0.64769  0.82776  1.0000
  C   C857      1.0  0.77913  0.62111  0.89525  1.0000
  C   C858      1.0  0.77588  0.52685  0.53427  1.0000
  C   C859      1.0  0.92641  0.51023  0.66684  1.0000
  H   H677      1.0  0.61796  0.50128  0.77340  1.0000
  H   H678      1.0  0.56889  0.69433  0.61896  1.0000
  S   S115      1.0  0.96017  0.66820  0.55909  1.0000
  H   H679      1.0  0.99033  0.54388  0.61065  1.0000
  S   S116      1.0  0.65798  0.67831  0.63549  1.0000
  C   C860      1.0  0.84202  0.68605  0.66152  1.0000
  C   C861      1.0  0.87867  0.68928  0.65255  1.0000
  C   C862      1.0  0.02536  0.57631  0.76225  1.0000
  H   H680      1.0  0.74680  0.60253  0.84418  1.0000
  H   H681      1.0  0.84038  0.59714  0.90340  1.0000
  C   C863      1.0  0.85559  0.63454  0.81733  1.0000
  H   H682      1.0  0.87388  0.63029  0.83720  1.0000
  H   H683      1.0  0.54995  0.39377  0.54654  1.0000
  C   C864      1.0  0.00051  0.52225  0.85069  1.0000
  C   C865      1.0  0.64981  0.68039  0.56112  1.0000
  C   C866      1.0  0.86501  0.66028  0.90161  1.0000
  H   H684      1.0  0.55333  0.46808  0.80542  1.0000
  C   C867      1.0  0.54628  0.43184  0.62918  1.0000
  C   C868      1.0  0.56535  0.56080  0.86045  1.0000
  H   H685      1.0  0.02984  0.41092  0.70450  1.0000
  C   C869      1.0  0.82251  0.68811  0.54212  1.0000
  C   C870      1.0  0.66303  0.69264  0.52506  1.0000
  C   C871      1.0  0.70830  0.56421  0.92753  1.0000
  H   H686      1.0  0.78611  0.66368  0.80791  1.0000
  C   C872      1.0  0.57854  0.68968  0.82798  1.0000
  H   H687      1.0  0.86996  0.63219  0.47532  1.0000
  C   C873      1.0  0.67621  0.69377  0.59057  1.0000
  H   H688      1.0  0.03465  0.41558  0.77199  1.0000
  C   C874      1.0  0.87613  0.68740  0.45693  1.0000
  C   C875      1.0  0.89565  0.62612  0.93181  1.0000
  C   C876      1.0  0.55447  0.46974  0.77577  1.0000
  C   C877      1.0  0.70294  0.69078  0.92240  1.0000
  H   H689      1.0  0.56229  0.67944  0.50260  1.0000
  H   H690      1.0  0.89545  0.59906  0.93915  1.0000
  C   C878      1.0  0.03336  0.52062  0.83715  1.0000
  C   C879      1.0  0.55407  0.51241  0.46478  1.0000
  C   C880      1.0  0.54464  0.39461  0.57556  1.0000
  H   H691      1.0  0.79210  0.69222  0.92760  1.0000
  H   H692      1.0  0.75331  0.67536  0.46050  1.0000
  C   C881      1.0  0.03332  0.48467  0.83591  1.0000
  H   H693      1.0  0.70426  0.80775  0.32807  1.0000
  Fe  Fe60      1.0  0.63206  0.73287  0.37043  1.0000
  S   S117      1.0  0.62114  0.78054  0.34573  1.0000
  S   S118      1.0  0.69154  0.73688  0.37041  1.0000
  H   H694      1.0  0.71709  0.74879  0.29605  1.0000
  H   H695      1.0  0.95222  0.75932  0.39865  1.0000
  S   S119      1.0  0.98809  0.74668  0.25306  1.0000
  H   H696      1.0  0.82759  0.80230  0.20699  1.0000
  Fe  Fe61      1.0  0.96676  0.73633  0.19475  1.0000
  S   S120      1.0  0.91571  0.74651  0.17758  1.0000
  C   C882      1.0  0.85016  0.75060  0.36036  1.0000
  Fe  Fe62      1.0  0.73920  0.97831  0.23404  1.0000
  S   S121      1.0  0.68003  0.97537  0.23384  1.0000
  S   S122      1.0  0.74995  0.93019  0.25780  1.0000
  Fe  Fe63      1.0  0.69631  0.00066  0.17668  1.0000
  S   S123      1.0  0.65324  0.98105  0.12917  1.0000
  C   C883      1.0  0.63342  0.83622  0.06902  1.0000
  S   S124      1.0  0.75322  0.99905  0.17540  1.0000
  H   H697      1.0  0.63713  0.76037  0.17037  1.0000
  C   C884      1.0  0.99915  0.80271  0.36607  1.0000
  C   C885      1.0  0.75521  0.89620  0.96088  1.0000
  C   C886      1.0  0.66955  0.97822  0.08460  1.0000
  C   C887      1.0  0.98231  0.81320  0.30482  1.0000
  C   C888      1.0  0.56585  0.89143  0.43214  1.0000
  C   C889      1.0  0.69421  0.97306  0.01305  1.0000
  C   C890      1.0  0.65652  0.96837  0.01894  1.0000
  C   C891      1.0  0.64428  0.97097  0.05460  1.0000
  H   H698      1.0  0.00490  0.72144  0.32599  1.0000
  Fe  Fe64      1.0  0.02591  0.71051  0.17285  1.0000
  H   H699      1.0  0.63677  0.96271  0.99605  1.0000
  H   H700      1.0  0.61509  0.96728  0.05894  1.0000
  H   H701      1.0  0.84692  0.89583  0.04473  1.0000
  C   C892      1.0  0.71944  0.98037  0.04297  1.0000
  C   C893      1.0  0.65362  0.74585  0.05518  1.0000
  C   C894      1.0  0.84081  0.81700  0.09661  1.0000
  C   C895      1.0  0.58584  0.80960  0.42498  1.0000
  H   H702      1.0  0.64754  0.85386  0.09287  1.0000
  H   H703      1.0  0.88229  0.73973  0.43127  1.0000
  H   H704      1.0  0.70401  0.77078  0.18100  1.0000
  H   H705      1.0  0.60151  0.82306  0.39980  1.0000
  C   C896      1.0  0.65648  0.81972  0.31831  1.0000
  C   C897      1.0  0.64558  0.84517  0.30076  1.0000
  C   C898      1.0  0.67365  0.87882  0.28170  1.0000
  C   C899      1.0  0.71291  0.88703  0.27952  1.0000
  C   C900      1.0  0.72344  0.86063  0.29570  1.0000
  C   C901      1.0  0.69543  0.82716  0.31499  1.0000
  H   H706      1.0  0.61532  0.83911  0.30239  1.0000
  H   H707      1.0  0.66491  0.89852  0.26903  1.0000
  H   H708      1.0  0.75363  0.86661  0.29414  1.0000
  H   H709      1.0  0.72398  0.80023  0.25280  1.0000
  C   C902      1.0  0.66950  0.89228  0.42541  1.0000
  C   C903      1.0  0.71913  0.93406  0.38082  1.0000
  C   C904      1.0  0.68901  0.92769  0.40547  1.0000
  H   H710      1.0  0.63674  0.84317  0.97656  1.0000
  C   C905      1.0  0.65964  0.75116  0.01743  1.0000
  H   H711      1.0  0.73321  0.96080  0.36460  1.0000
  H   H712      1.0  0.68077  0.95024  0.40804  1.0000
  H   H713      1.0  0.55215  0.75299  0.40013  1.0000
  C   C906      1.0  0.62465  0.95176  0.44760  1.0000
  C   C907      1.0  0.94304  0.78468  0.31097  1.0000
  C   C908      1.0  0.93139  0.76499  0.34488  1.0000
  S   S125      1.0  0.71077  0.96983  0.96886  1.0000
  C   C909      1.0  0.84269  0.71931  0.14524  1.0000
  H   H714      1.0  0.84733  0.87976  0.97760  1.0000
  H   H715      1.0  0.78141  0.79616  0.37394  1.0000
  C   C910      1.0  0.87875  0.71080  0.42673  1.0000
  C   C911      1.0  0.71630  0.80406  0.06528  1.0000
  C   C912      1.0  0.60680  0.95764  0.31688  1.0000
  C   C913      1.0  0.59651  0.79074  0.00701  1.0000
  H   H716      1.0  0.82014  0.75096  0.25082  1.0000
  H   H717      1.0  0.99124  0.82753  0.27827  1.0000
  C   C914      1.0  0.86307  0.83411  0.98100  1.0000
  H   H718      1.0  0.78650  0.76278  0.09162  1.0000
  H   H719      1.0  0.66709  0.83618  0.43542  1.0000
  H   H720      1.0  0.62091  0.00471  0.44046  1.0000
  C   C915      1.0  0.58352  0.77546  0.04240  1.0000
  C   C916      1.0  0.85123  0.79548  0.99180  1.0000
  C   C917      1.0  0.60509  0.91074  0.44459  1.0000
  H   H721      1.0  0.92204  0.77735  0.28882  1.0000
  C   C918      1.0  0.01044  0.82194  0.33220  1.0000
  H   H722      1.0  0.75705  0.94250  0.09089  1.0000
  H   H723      1.0  0.75063  0.02088  0.39859  1.0000
  C   C919      1.0  0.69355  0.78331  0.00344  1.0000
  H   H724      1.0  0.73707  0.02795  0.33320  1.0000
  C   C920      1.0  0.70716  0.98286  0.07857  1.0000
  H   H725      1.0  0.72058  0.84835  0.39273  1.0000
  C   C921      1.0  0.64549  0.85222  0.03401  1.0000
  H   H726      1.0  0.88220  0.79936  0.32282  1.0000
  C   C922      1.0  0.85768  0.78517  0.34161  1.0000
  H   H727      1.0  0.83874  0.82800  0.33177  1.0000
  C   C923      1.0  0.61756  0.90572  0.34099  1.0000
  C   C924      1.0  0.63254  0.94393  0.32757  1.0000
  H   H728      1.0  0.63747  0.89488  0.34869  1.0000
  C   C925      1.0  0.68155  0.86393  0.42081  1.0000
  C   C926      1.0  0.77669  0.93246  0.08044  1.0000
  C   C927      1.0  0.81608  0.95072  0.09142  1.0000
  C   C928      1.0  0.84115  0.93723  0.07847  1.0000
  C   C929      1.0  0.82705  0.90596  0.05394  1.0000
  C   C930      1.0  0.78771  0.88809  0.04199  1.0000
  C   C931      1.0  0.76259  0.90139  0.05581  1.0000
  P   P30       1.0  0.76862  0.84802  0.00976  1.0000
  C   C932      1.0  0.80140  0.82769  0.00404  1.0000
  C   C933      1.0  0.78950  0.78867  0.01418  1.0000
  H   H729      1.0  0.54803  0.99525  0.03871  1.0000
  H   H730      1.0  0.80990  0.70538  0.39783  1.0000
  H   H731      1.0  0.76449  0.72388  0.29564  1.0000
  H   H732      1.0  0.01191  0.75423  0.02966  1.0000
  H   H733      1.0  0.80459  0.74240  0.01574  1.0000
  H   H734      1.0  0.82701  0.97509  0.11024  1.0000
  H   H735      1.0  0.87158  0.95103  0.08744  1.0000
  C   C934      1.0  0.81714  0.73247  0.38366  1.0000
  H   H736      1.0  0.59046  0.96291  0.18189  1.0000
  H   H737      1.0  0.01855  0.73799  0.09428  1.0000
  H   H738      1.0  0.01791  0.74245  0.39081  1.0000
  Fe  Fe65      1.0  0.67620  0.71093  0.42718  1.0000
  S   S126      1.0  0.02906  0.76949  0.17271  1.0000
  C   C935      1.0  0.57689  0.88106  0.34356  1.0000
  C   C936      1.0  0.84608  0.93229  0.26313  1.0000
  C   C937      1.0  0.85703  0.96539  0.24096  1.0000
  C   C938      1.0  0.82307  0.92345  0.18980  1.0000
  C   C939      1.0  0.81141  0.89000  0.21199  1.0000
  C   C940      1.0  0.82336  0.89472  0.24876  1.0000
  P   P31       1.0  0.78035  0.84168  0.19342  1.0000
  C   C941      1.0  0.73133  0.83426  0.18346  1.0000
  C   C942      1.0  0.80282  0.83416  0.15317  1.0000
  C   C943      1.0  0.78270  0.79901  0.13367  1.0000
  H   H739      1.0  0.59687  0.00944  0.35309  1.0000
  H   H740      1.0  0.67791  0.76697  0.10814  1.0000
  C   C944      1.0  0.86105  0.85209  0.11568  1.0000
  C   C945      1.0  0.84234  0.86052  0.14407  1.0000
  C   C946      1.0  0.72377  0.86602  0.18215  1.0000
  C   C947      1.0  0.68548  0.85976  0.17667  1.0000
  C   C948      1.0  0.65426  0.82174  0.17237  1.0000
  C   C949      1.0  0.66135  0.78996  0.17350  1.0000
  C   C950      1.0  0.69961  0.79610  0.17911  1.0000
  C   C951      1.0  0.77607  0.80497  0.22631  1.0000
  C   C952      1.0  0.80344  0.79116  0.22644  1.0000
  C   C953      1.0  0.79948  0.76213  0.25147  1.0000
  C   C954      1.0  0.76842  0.74700  0.27669  1.0000
  C   C955      1.0  0.74165  0.76118  0.27712  1.0000
  C   C956      1.0  0.74544  0.79010  0.25219  1.0000
  H   H741      1.0  0.85430  0.93578  0.29174  1.0000
  H   H742      1.0  0.81376  0.92031  0.16157  1.0000
  H   H743      1.0  0.81454  0.86960  0.26667  1.0000
  H   H744      1.0  0.75290  0.77724  0.14096  1.0000
  H   H745      1.0  0.73853  0.82331  0.08435  1.0000
  C   C957      1.0  0.80171  0.79053  0.10563  1.0000
  C   C958      1.0  0.99887  0.71192  0.38448  1.0000
  H   H746      1.0  0.85950  0.88683  0.15967  1.0000
  H   H747      1.0  0.74680  0.89569  0.18661  1.0000
  H   H748      1.0  0.67997  0.88445  0.17684  1.0000
  H   H749      1.0  0.62450  0.81687  0.16886  1.0000
  C   C959      1.0  0.73080  0.90574  0.37654  1.0000
  H   H750      1.0  0.89173  0.87209  0.10932  1.0000
  H   H751      1.0  0.55227  0.97023  0.41753  1.0000
  H   H752      1.0  0.84547  0.74724  0.15290  1.0000
  C   C960      1.0  0.57253  0.01539  0.35261  1.0000
  H   H753      1.0  0.85345  0.98669  0.18735  1.0000
  C   C961      1.0  0.95982  0.77440  0.37248  1.0000
  C   C962      1.0  0.83300  0.80154  0.34655  1.0000
  H   H754      1.0  0.59261  0.78569  0.10038  1.0000
  H   H755      1.0  0.75392  0.91071  0.35717  1.0000
  H   H756      1.0  0.72684  0.98838  0.10129  1.0000
  C   C963      1.0  0.72222  0.80992  0.02732  1.0000
  H   H757      1.0  0.89141  0.85151  0.96774  1.0000
  H   H758      1.0  0.61895  0.98694  0.30541  1.0000
  H   H759      1.0  0.66413  0.96278  0.32482  1.0000
  C   C964      1.0  0.87314  0.71091  0.15411  1.0000
  P   P32       1.0  0.57116  0.76344  0.96655  1.0000
  C   C965      1.0  0.80061  0.78355  0.37016  1.0000
  C   C966      1.0  0.71210  0.87073  0.39661  1.0000
  C   C967      1.0  0.55739  0.76991  0.42494  1.0000
  C   C968      1.0  0.84563  0.96098  0.20426  1.0000
  H   H760      1.0  0.85575  0.80981  0.07551  1.0000
  C   C969      1.0  0.62735  0.82959  0.00321  1.0000
  H   H761      1.0  0.73199  0.88767  0.04749  1.0000
  H   H762      1.0  0.75321  0.91187  0.98426  1.0000
  C   C970      1.0  0.68201  0.77222  0.07901  1.0000
  C   C971      1.0  0.56656  0.95916  0.23588  1.0000
  S   S127      1.0  0.61909  0.71201  0.42910  1.0000
  C   C972      1.0  0.76170  0.86394  0.96499  1.0000
  H   H763      1.0  0.74876  0.98444  0.03855  1.0000
  P   P33       1.0  0.88048  0.72787  0.35223  1.0000
  C   C973      1.0  0.02391  0.73494  0.03566  1.0000
  H   H764      1.0  0.62759  0.72069  0.06617  1.0000
  H   H765      1.0  0.69806  0.78601  0.97410  1.0000
  C   C974      1.0  0.81434  0.77272  0.00815  1.0000
  H   H766      1.0  0.76079  0.77000  0.02621  1.0000
  H   H767      1.0  0.55850  0.74661  0.04654  1.0000
  H   H768      1.0  0.66832  0.88255  0.03061  1.0000
  C   C975      1.0  0.56578  0.93345  0.32015  1.0000
  H   H769      1.0  0.63903  0.72946  0.99891  1.0000
  H   H770      1.0  0.54718  0.98497  0.15236  1.0000
  S   S128      1.0  0.71078  0.71271  0.96585  1.0000
  H   H771      1.0  0.02106  0.80913  0.38718  1.0000
  C   C976      1.0  0.60242  0.79788  0.07321  1.0000
  H   H772      1.0  0.58484  0.94806  0.24748  1.0000
  C   C977      1.0  0.56959  0.96714  0.19829  1.0000
  H   H773      1.0  0.87365  0.99446  0.25241  1.0000
  H   H774      1.0  0.87030  0.78292  0.98698  1.0000
  C   C978      1.0  0.83815  0.85007  0.98681  1.0000
  H   H775      1.0  0.64258  0.69712  0.27550  1.0000
  C   C979      1.0  0.79267  0.74901  0.38868  1.0000
  H   H776      1.0  0.76728  0.73489  0.40677  1.0000
  C   C980      1.0  0.60567  0.97308  0.43781  1.0000
  C   C981      1.0  0.02776  0.72586  0.07234  1.0000
  C   C982      1.0  0.56694  0.95367  0.42504  1.0000
  H   H777      1.0  0.54969  0.85988  0.42954  1.0000
  H   H778      1.0  0.56546  0.85114  0.35328  1.0000
  H   H779      1.0  0.62644  0.70843  0.21257  1.0000
  C   C983      1.0  0.03529  0.71908  0.00677  1.0000
  C   C984      1.0  0.55103  0.89483  0.33335  1.0000
  S   S129      1.0  0.03017  0.73134  0.96101  1.0000
  H   H780      1.0  0.57163  0.70108  0.01264  1.0000
  C   C985      1.0  0.99145  0.70003  0.34776  1.0000
  H   H781      1.0  0.78553  0.69872  0.11995  1.0000
  H   H782      1.0  0.04110  0.84309  0.32683  1.0000
  H   H783      1.0  0.80735  0.69771  0.30875  1.0000
  C   C986      1.0  0.54521  0.97966  0.18163  1.0000
  C   C987      1.0  0.54690  0.91286  0.42253  1.0000
  C   C988      1.0  0.87727  0.69716  0.39098  1.0000
  C   C989      1.0  0.86392  0.69926  0.31092  1.0000
  Fe  Fe66      1.0  0.74159  0.76229  0.73973  1.0000
  C   C990      1.0  0.00543  0.80650  0.65992  1.0000
  S   S130      1.0  0.74952  0.81984  0.76249  1.0000
  Fe  Fe67      1.0  0.78250  0.71769  0.70817  1.0000
  C   C991      1.0  0.94471  0.73195  0.81715  1.0000
  H   H784      1.0  0.73701  0.72919  0.60600  1.0000
  C   C992      1.0  0.82939  0.77875  0.88132  1.0000
  C   C993      1.0  0.75380  0.88964  0.89497  1.0000
  H   H785      1.0  0.82975  0.80664  0.88242  1.0000
  C   C994      1.0  0.54385  0.79032  0.90793  1.0000
  S   S131      1.0  0.75840  0.75439  0.68255  1.0000
  S   S132      1.0  0.77253  0.73204  0.76549  1.0000
  H   H786      1.0  0.76066  0.84173  0.87458  1.0000
  Fe  Fe68      1.0  0.62374  0.89880  0.86179  1.0000
  S   S133      1.0  0.68450  0.95056  0.86334  1.0000
  S   S134      1.0  0.61178  0.84192  0.83400  1.0000
  Fe  Fe69      1.0  0.58807  0.94458  0.90118  1.0000
  C   C995      1.0  0.61064  0.82067  0.62091  1.0000
  S   S135      1.0  0.64669  0.99936  0.90372  1.0000
  H   H787      1.0  0.76047  0.75129  0.54257  1.0000
  Fe  Fe70      1.0  0.66951  0.95881  0.92101  1.0000
  S   S136      1.0  0.59415  0.93283  0.84184  1.0000
  S   S137      1.0  0.61074  0.90431  0.92097  1.0000
  H   H788      1.0  0.96419  0.74367  0.58883  1.0000
  C   C996      1.0  0.63812  0.97887  0.74344  1.0000
  C   C997      1.0  0.62891  0.96951  0.70627  1.0000
  H   H789      1.0  0.62411  0.95642  0.76427  1.0000
  H   H790      1.0  0.60736  0.93993  0.69892  1.0000
  C   C998      1.0  0.59004  0.88039  0.61801  1.0000
  H   H791      1.0  0.62670  0.93215  0.51733  1.0000
  H   H792      1.0  0.60615  0.75100  0.49386  1.0000
  H   H793      1.0  0.65391  0.85772  0.66090  1.0000
  C   C999      1.0  0.64547  0.92011  0.52531  1.0000
  H   H794      1.0  0.77925  0.01538  0.89815  1.0000
  C   C1000     1.0  0.76846  0.01967  0.61834  1.0000
  C   C1001     1.0  0.59715  0.75410  0.66780  1.0000
  S   S138      1.0  0.84050  0.72103  0.69125  1.0000
  C   C1002     1.0  0.00085  0.77171  0.76207  1.0000
  H   H795      1.0  0.73401  0.74627  0.89401  1.0000
  H   H796      1.0  0.83918  0.00437  0.72177  1.0000
  C   C1003     1.0  0.81001  0.75047  0.90858  1.0000
  C   C1004     1.0  0.96095  0.74766  0.75308  1.0000
  Fe  Fe71      1.0  0.70082  0.69824  0.68310  1.0000
  C   C1005     1.0  0.66576  0.01709  0.75344  1.0000
  C   C1006     1.0  0.71025  0.82555  0.78064  1.0000
  C   C1007     1.0  0.71898  0.86148  0.79652  1.0000
  C   C1008     1.0  0.68902  0.86718  0.81207  1.0000
  C   C1009     1.0  0.64981  0.83703  0.81182  1.0000
  C   C1010     1.0  0.64086  0.80138  0.79507  1.0000
  C   C1011     1.0  0.67091  0.79556  0.77966  1.0000
  H   H797      1.0  0.74920  0.88502  0.79702  1.0000
  H   H798      1.0  0.69641  0.89481  0.82452  1.0000
  H   H799      1.0  0.61058  0.77808  0.79436  1.0000
  H   H800      1.0  0.66359  0.76790  0.76717  1.0000
  H   H801      1.0  0.62985  0.82401  0.91755  1.0000
  H   H802      1.0  0.71043  0.87559  0.55851  1.0000
  C   C1012     1.0  0.82279  0.72080  0.52594  1.0000
  C   C1013     1.0  0.98418  0.75642  0.82642  1.0000
  C   C1014     1.0  0.57977  0.81708  0.59821  1.0000
  C   C1015     1.0  0.69245  0.88817  0.54915  1.0000
  C   C1016     1.0  0.03180  0.89957  0.74526  1.0000
  H   H803      1.0  0.67976  0.85904  0.49757  1.0000
  Fe  Fe72      1.0  0.65459  0.98484  0.84563  1.0000
  C   C1017     1.0  0.01480  0.78300  0.68265  1.0000
  H   H804      1.0  0.55457  0.99562  0.50151  1.0000
  C   C1018     1.0  0.80820  0.71389  0.90659  1.0000
  C   C1019     1.0  0.68701  0.91392  0.57156  1.0000
  C   C1020     1.0  0.69280  0.81567  0.66288  1.0000
  H   H805      1.0  0.95095  0.74398  0.72499  1.0000
  H   H806      1.0  0.89812  0.72376  0.90520  1.0000
  C   C1021     1.0  0.74344  0.99855  0.73547  1.0000
  H   H807      1.0  0.68799  0.89934  0.74407  1.0000
  H   H808      1.0  0.74596  0.93361  0.92306  1.0000
  H   H809      1.0  0.00893  0.90745  0.74937  1.0000
  C   C1022     1.0  0.76894  0.01574  0.58034  1.0000
  H   H810      1.0  0.69689  0.96055  0.77238  1.0000
  H   H811      1.0  0.99072  0.83825  0.73918  1.0000
  C   C1023     1.0  0.84654  0.73441  0.85053  1.0000
  C   C1024     1.0  0.84770  0.77073  0.85233  1.0000
  C   C1025     1.0  0.75119  0.90885  0.92600  1.0000
  H   H812      1.0  0.99322  0.75936  0.85483  1.0000
  H   H813      1.0  0.56113  0.97222  0.58591  1.0000
  H   H814      1.0  0.97957  0.81020  0.60875  1.0000
  H   H815      1.0  0.74175  0.99790  0.56574  1.0000
  C   C1026     1.0  0.98839  0.73168  0.63726  1.0000
  H   H816      1.0  0.54592  0.84408  0.57913  1.0000
  C   C1027     1.0  0.60937  0.72933  0.68456  1.0000
  C   C1028     1.0  0.59738  0.73892  0.52122  1.0000
  H   H817      1.0  0.74856  0.84495  0.69093  1.0000
  C   C1029     1.0  0.65182  0.89526  0.50204  1.0000
  H   H818      1.0  0.55477  0.77580  0.89003  1.0000
  C   C1030     1.0  0.66296  0.76406  0.88561  1.0000
  C   C1031     1.0  0.63080  0.85440  0.64239  1.0000
  H   H819      1.0  0.86238  0.79246  0.83092  1.0000
  C   C1032     1.0  0.63810  0.72984  0.90498  1.0000
  H   H820      1.0  0.67641  0.81602  0.68672  1.0000
  C   C1033     1.0  0.55828  0.00465  0.69642  1.0000
  H   H821      1.0  0.67913  0.82434  0.87582  1.0000
  H   H822      1.0  0.75086  0.89969  0.86802  1.0000
  C   C1034     1.0  0.71329  0.69814  0.85633  1.0000
  H   H823      1.0  0.72556  0.71694  0.83261  1.0000
  H   H824      1.0  0.70074  0.92141  0.59828  1.0000
  C   C1035     1.0  0.54763  0.78914  0.94610  1.0000
  C   C1036     1.0  0.60132  0.74797  0.58716  1.0000
  H   H825      1.0  0.90534  0.71273  0.66411  1.0000
  C   C1037     1.0  0.56977  0.84698  0.59659  1.0000
  H   H826      1.0  0.74055  0.00469  0.63286  1.0000
  H   H827      1.0  0.58217  0.90350  0.61698  1.0000
  C   C1038     1.0  0.56065  0.71311  0.73249  1.0000
  H   H828      1.0  0.68181  0.78243  0.57527  1.0000
  C   C1039     1.0  0.67335  0.79862  0.63003  1.0000
  H   H829      1.0  0.79806  0.74126  0.48389  1.0000
  H   H830      1.0  0.73105  0.90264  0.69267  1.0000
  C   C1040     1.0  0.64715  0.99823  0.67879  1.0000
  C   C1041     1.0  0.59096  0.70873  0.71661  1.0000
  H   H831      1.0  0.55636  0.77705  0.67159  1.0000
  C   C1042     1.0  0.60738  0.76353  0.93522  1.0000
  C   C1043     1.0  0.75560  0.83087  0.63574  1.0000
  H   H832      1.0  0.63631  0.91018  0.65736  1.0000
  C   C1044     1.0  0.75954  0.85713  0.89874  1.0000
  H   H833      1.0  0.76667  0.81825  0.93597  1.0000
  C   C1045     1.0  0.66019  0.79793  0.89102  1.0000
  C   C1046     1.0  0.01211  0.77670  0.79902  1.0000
  C   C1047     1.0  0.71528  0.96204  0.74945  1.0000
  C   C1048     1.0  0.71036  0.92754  0.73360  1.0000
  C   C1049     1.0  0.61051  0.72950  0.92968  1.0000
  C   C1050     1.0  0.76283  0.96588  0.69053  1.0000
  H   H834      1.0  0.63310  0.72594  0.67279  1.0000
  C   C1051     1.0  0.93304  0.72815  0.78057  1.0000
  C   C1052     1.0  0.98730  0.79232  0.62608  1.0000
  C   C1053     1.0  0.61109  0.76358  0.55150  1.0000
  C   C1054     1.0  0.76307  0.84404  0.93359  1.0000
  C   C1055     1.0  0.56646  0.75817  0.68380  1.0000
  H   H835      1.0  0.75324  0.81102  0.58057  1.0000
  C   C1056     1.0  0.00619  0.74559  0.67104  1.0000
  H   H836      1.0  0.78133  0.96685  0.66796  1.0000
  C   C1057     1.0  0.70296  0.71843  0.51818  1.0000
  S   S139      1.0  0.72049  0.73483  0.47326  1.0000
  H   H837      1.0  0.01180  0.83551  0.66811  1.0000
  C   C1058     1.0  0.73439  0.92944  0.70440  1.0000
  C   C1059     1.0  0.71625  0.71903  0.58364  1.0000
  S   S140      1.0  0.63460  0.01757  0.53070  1.0000
  C   C1060     1.0  0.71812  0.71473  0.89120  1.0000
  H   H838      1.0  0.65908  0.94960  0.57713  1.0000
  P   P34       1.0  0.62069  0.78022  0.62610  1.0000
  C   C1061     1.0  0.97869  0.75487  0.61479  1.0000
  H   H839      1.0  0.90236  0.70998  0.77329  1.0000
  C   C1062     1.0  0.72951  0.73146  0.54760  1.0000
  H   H840      1.0  0.68404  0.76424  0.86608  1.0000
  H   H841      1.0  0.84159  0.74978  0.53683  1.0000
  C   C1063     1.0  0.73649  0.81313  0.60330  1.0000
  C   C1064     1.0  0.82635  0.70548  0.87745  1.0000
  C   C1065     1.0  0.73375  0.83203  0.66551  1.0000
  S   S141      1.0  0.63482  0.98559  0.63232  1.0000
  C   C1066     1.0  0.63238  0.79769  0.91532  1.0000
  C   C1067     1.0  0.66353  0.92983  0.55962  1.0000
  C   C1068     1.0  0.67503  0.87894  0.51451  1.0000
  H   H842      1.0  0.78719  0.84265  0.63825  1.0000
  C   C1069     1.0  0.69559  0.79698  0.60041  1.0000
  H   H843      1.0  0.86108  0.72892  0.82789  1.0000
  C   C1070     1.0  0.76721  0.00076  0.70565  1.0000
  H   H844      1.0  0.60372  0.71732  0.81991  1.0000
  C   C1071     1.0  0.54851  0.73793  0.71615  1.0000
  H   H845      1.0  0.63009  0.79476  0.54715  1.0000
  H   H846      1.0  0.01302  0.72699  0.68835  1.0000
  C   C1072     1.0  0.54292  0.77400  0.48861  1.0000
  H   H847      1.0  0.02031  0.74620  0.53729  1.0000
  C   C1073     1.0  0.62056  0.88412  0.64084  1.0000
  C   C1074     1.0  0.57193  0.81357  0.48892  1.0000
  H   H848      1.0  0.57695  0.83022  0.51376  1.0000
  H   H849      1.0  0.59207  0.02265  0.93815  1.0000
  S   S142      1.0  0.99340  0.70035  0.45880  1.0000
  C   C1075     1.0  0.02161  0.86040  0.73950  1.0000
  H   H850      1.0  0.63987  0.70333  0.90060  1.0000
  H   H851      1.0  0.56268  0.79084  0.58241  1.0000
  H   H852      1.0  0.79508  0.75627  0.93072  1.0000
  C   C1076     1.0  0.57654  0.70740  0.59192  1.0000
  C   C1077     1.0  0.56441  0.01774  0.94964  1.0000
  H   H853      1.0  0.98197  0.70267  0.62892  1.0000
  H   H854      1.0  0.56496  0.99407  0.67154  1.0000
  H   H855      1.0  0.92323  0.71584  0.83826  1.0000
  P   P35       1.0  0.03682  0.79898  0.72699  1.0000
  C   C1078     1.0  0.79835  0.71599  0.49609  1.0000
  S   S143      1.0  0.68224  0.70859  0.73842  1.0000
  C   C1079     1.0  0.57261  0.69864  0.52613  1.0000
  H   H856      1.0  0.55905  0.71560  0.86903  1.0000
  H   H857      1.0  0.59162  0.70228  0.94374  1.0000
  H   H858      1.0  0.55152  0.02430  0.61275  1.0000
  H   H859      1.0  0.74611  0.02479  0.74787  1.0000
  H   H860      1.0  0.95269  0.72474  0.94082  1.0000
  H   H861      1.0  0.90590  0.02613  0.74604  1.0000
  H   H862      1.0  0.54665  0.69743  0.75750  1.0000
  H   H863      1.0  0.87787  0.69826  0.48441  1.0000
  C   C1080     1.0  0.59412  0.83144  0.45725  1.0000
  S   S144      1.0  0.67988  0.03006  0.79963  1.0000
  H   H864      1.0  0.65454  0.96731  0.45779  1.0000
  P   P36       1.0  0.62983  0.88307  0.45698  1.0000
