data_image0
_chemical_formula_structural       FeS2FeS2FeSFeS3H2SH5C2HSHC12H4C6H6CH2PC12H7C3H2PCH2C3H4CHC2H2C3H2C4HCH2C2H2CHCHCHC2HCHC8H3FeH3CHCHC4HCH2CHC3H2PCH2CH2C5HC4HC2H3CH2C2H2CHCH2C4H2C2H3C3PC2HCH2CH2C2HCH2CHSCHCH5SPCHC2H2CFeS2FeS2FeSFeS3FeS2C2H2C8H5C2HCH2C7H2C4HC6PC6HC2H5CHC2H3CH5C8HC3H4C6PC3HC6SH10C3HCHC3HC3HC3H2CH3CH2CH2C2H2CHC2HC2PC2H2CH2CHCHC5H4CH2C2HCH5CH2C2H4CHC4PHC2SC3SCFeCHCH2CHC2HCH3C3FeCSCH5CHCHCHC5HCSH2C2HCHC2H2CHCFeSHFeSHFeSCSFeS2FeS2FeSFeS3C4HCH3C7H5CH2C4H4CHC3HC2HCH2FeCHC2HCHCH2CH2C3H2C6FeC2HCSC2SHCHCH5C3PC9H10CHC3H2CH2CHC4PHCHC3H2C3PC2HCH2CHC7HCHCH3C3SC4HC2HCHCHCSHCHCHCHCHC5H3CH4CH2CHCHC4H2C3H2CH2C2FeS2FeSHFe2S3FeS2CHFe2S2FeS2FeSFeS3H3CHC6H4CHC5SH4C2HC2H2C6H4C2SH2C7HPC6HC10H7CHPH6CH3C5HSH3CHC3H3CHCHCHC3H2C2HC2HCHC2HCHC3HCHCHCH2CHC3HCH2CH2CHCH2CH2C3SCHCH2C5PHC3H2FeCHCHC4H4C4H4C5HC4H2PC3HC11H2PHC2HC2SHC2H3CH5CHCH2CPC2SH2CH3CHFeSFeS2FeSFeHS2FeS2FeHFeSFeS2FeS2FeSFeS4C6H4C6H3C7HC3H2CH3C6H4CHC5PC3H3C12H2PH3C3H11C2H2C8H4CH2CHC5SCH4C4HCHCH2CHC9H3SHC2H4CHPC3H4CHCHCH3PH2C2HC2HCHCHCH3C5HSHC3HCHC7H2C3SC3HC2HC2PCH2CSHCHCHC3H3C3PCHPH2C2H2CHC3H3CH2C2SC2H4C3H6C2H2CHCHC2H4CSHC2H5CH2CHCH2C6H2C2FeSFeSHFe3S3FeS2FeS2FeSFeS3C3HC2PCHC2H2C2HC6H5C6H4C3HC4HC3HC2HFeHC6PC18H19CHCH2C3HFeC4HC2HCH4CSCH2CPC2H3C3HC3HCH3C5HC3HCHC4SH3CHCS5CH2C2FeC2HC3H2CH2SH2SHC2HCHCHCHCH2CH4C7H3C2H2CH4C2PSH3CFeHC2SHC5HC2HCH2C3H2C2FeSHSCSH2C2FeSHSHSHFeH2C2HC7H4C6H4SFeCH3C3H2CHCFeCHC7HCHC10HSHSCHCH3CH2C3HC4H2CH3CHC2HCHC2HCHPC5H3CHC2HC4HC2H5C2HPHCH4PHCH2C5H3C4FeC2HCHC2HCHC2SFeCFeCSCHSCH2SHCHCHCH2CH5CHCH2C3H4CSCH4CSCH4C8H2C4H2PHCFeH4C2PCHCHC2H2C4HCHC4H2CSC2H3CHC3H3CSCFeSHSFeS2FeSFeSFeS3HCH3C8SH3C6H4CH4FeH4CH3CHCHC2H2CH5CSCHCHC6PC18H15SH2C3SC4FeH2CHC2HC5HCHC2PH2C5HCH2C2HCHC
_chemical_formula_sum              "Fe72 S144 H864 C1080 P36"
_cell_length_a       43.6584
_cell_length_b       43.068
_cell_length_c       59.3583
_cell_angle_alpha    88.657
_cell_angle_beta     91.6741
_cell_angle_gamma    118.775

_space_group_name_H-M_alt    "P 1"
_space_group_IT_number       1

loop_
  _space_group_symop_operation_xyz
  'x, y, z'

loop_
  _atom_site_type_symbol
  _atom_site_label
  _atom_site_symmetry_multiplicity
  _atom_site_fract_x
  _atom_site_fract_y
  _atom_site_fract_z
  _atom_site_occupancy
  Fe  Fe1       1.0  0.17244  0.13365  0.10716  1.0000
  S   S1        1.0  0.14944  0.08411  0.08695  1.0000
  S   S2        1.0  0.13553  0.15076  0.12144  1.0000
  Fe  Fe2       1.0  0.24751  0.14661  0.10336  1.0000
  S   S3        1.0  0.22948  0.09813  0.08172  1.0000
  S   S4        1.0  0.30671  0.17886  0.11078  1.0000
  Fe  Fe3       1.0  0.19389  0.11520  0.06368  1.0000
  S   S5        1.0  0.17558  0.10226  0.02720  1.0000
  Fe  Fe4       1.0  0.18615  0.07093  0.10636  1.0000
  S   S6        1.0  0.17406  0.01766  0.12156  1.0000
  S   S7        1.0  0.21520  0.16611  0.08288  1.0000
  S   S8        1.0  0.20607  0.11816  0.12907  1.0000
  H   H1        1.0  0.16541  0.99585  0.04816  1.0000
  H   H2        1.0  0.97278  0.09022  0.15025  1.0000
  S   S9        1.0  0.39645  0.23677  0.20257  1.0000
  H   H3        1.0  0.03193  0.04757  0.03753  1.0000
  H   H4        1.0  0.06563  0.12093  0.05112  1.0000
  H   H5        1.0  0.98987  0.17095  0.03012  1.0000
  H   H6        1.0  0.20393  0.05417  0.02594  1.0000
  H   H7        1.0  0.43302  0.19408  0.28076  1.0000
  C   C1        1.0  0.18387  0.13399  0.00555  1.0000
  C   C2        1.0  0.46560  0.20684  0.12463  1.0000
  H   H8        1.0  0.07910  0.03293  0.09836  1.0000
  S   S10       1.0  0.00268  0.12241  0.06093  1.0000
  H   H9        1.0  0.22138  0.17910  0.02433  1.0000
  C   C3        1.0  0.42339  0.18859  0.09371  1.0000
  C   C4        1.0  0.38767  0.12284  0.31609  1.0000
  C   C5        1.0  0.16426  0.27809  0.99953  1.0000
  C   C6        1.0  0.09943  0.99673  0.01143  1.0000
  C   C7        1.0  0.05872  0.04071  0.06667  1.0000
  C   C8        1.0  0.36825  0.27996  0.12625  1.0000
  C   C9        1.0  0.37139  0.21822  0.17732  1.0000
  C   C10       1.0  0.33512  0.20632  0.17701  1.0000
  C   C11       1.0  0.31460  0.19298  0.15710  1.0000
  C   C12       1.0  0.33015  0.19146  0.13715  1.0000
  C   C13       1.0  0.36622  0.20255  0.13766  1.0000
  C   C14       1.0  0.38672  0.21577  0.15753  1.0000
  H   H10       1.0  0.32286  0.20792  0.19219  1.0000
  H   H11       1.0  0.28695  0.18470  0.15707  1.0000
  H   H12       1.0  0.37846  0.20148  0.12242  1.0000
  H   H13       1.0  0.41448  0.22470  0.15738  1.0000
  C   C15       1.0  0.03782  0.12695  0.07853  1.0000
  C   C16       1.0  0.03903  0.13404  0.10150  1.0000
  C   C17       1.0  0.06893  0.14079  0.11464  1.0000
  C   C18       1.0  0.09732  0.13955  0.10503  1.0000
  C   C19       1.0  0.09565  0.13156  0.08217  1.0000
  C   C20       1.0  0.06627  0.12594  0.06891  1.0000
  H   H14       1.0  0.43540  0.15299  0.11343  1.0000
  H   H15       1.0  0.07022  0.14732  0.13225  1.0000
  H   H16       1.0  0.11766  0.13129  0.07446  1.0000
  H   H17       1.0  0.18084  0.22008  0.02196  1.0000
  H   H18       1.0  0.97423  0.01855  0.09872  1.0000
  H   H19       1.0  0.09898  0.08912  0.01171  1.0000
  C   C21       1.0  0.10510  0.14175  0.01054  1.0000
  H   H20       1.0  0.98384  0.02824  0.00186  1.0000
  H   H21       1.0  0.15944  0.09223  0.17328  1.0000
  P   P1        1.0  0.11174  0.20995  0.00943  1.0000
  C   C22       1.0  0.07412  0.21637  0.01262  1.0000
  C   C23       1.0  0.13357  0.21479  0.03644  1.0000
  C   C24       1.0  0.11698  0.21365  0.05660  1.0000
  C   C25       1.0  0.13448  0.21734  0.07730  1.0000
  C   C26       1.0  0.16834  0.22170  0.07805  1.0000
  C   C27       1.0  0.18506  0.22310  0.05804  1.0000
  C   C28       1.0  0.16777  0.21962  0.03732  1.0000
  C   C29       1.0  0.01575  0.22580  0.01961  1.0000
  C   C30       1.0  0.01371  0.19282  0.02369  1.0000
  C   C31       1.0  0.04272  0.18809  0.02012  1.0000
  C   C32       1.0  0.04687  0.25413  0.01197  1.0000
  C   C33       1.0  0.99452  0.05667  0.14169  1.0000
  H   H22       1.0  0.41992  0.22560  0.24980  1.0000
  H   H23       1.0  0.12176  0.14948  0.02550  1.0000
  H   H24       1.0  0.39992  0.26863  0.25813  1.0000
  H   H25       1.0  0.09033  0.20902  0.05660  1.0000
  H   H26       1.0  0.12124  0.21528  0.09288  1.0000
  H   H27       1.0  0.18120  0.22305  0.09420  1.0000
  H   H28       1.0  0.21121  0.22620  0.05861  1.0000
  C   C34       1.0  0.19958  0.99575  0.07459  1.0000
  C   C35       1.0  0.40017  0.26060  0.29419  1.0000
  C   C36       1.0  0.99256  0.02334  0.14440  1.0000
  H   H29       1.0  0.10943  0.98887  0.09242  1.0000
  H   H30       1.0  0.04097  0.16253  0.02374  1.0000
  P   P2        1.0  0.02463  0.01471  0.13138  1.0000
  C   C37       1.0  0.07787  0.07281  0.15440  1.0000
  H   H31       1.0  0.43424  0.34050  0.08233  1.0000
  H   H32       1.0  0.10941  0.02095  0.00145  1.0000
  C   C38       1.0  0.23959  0.01750  0.99247  1.0000
  C   C39       1.0  0.21041  0.04527  0.01074  1.0000
  C   C40       1.0  0.05697  0.03304  0.08978  1.0000
  H   H33       1.0  0.35648  0.28838  0.15981  1.0000
  H   H34       1.0  0.14152  0.98695  0.00329  1.0000
  H   H35       1.0  0.20826  0.02301  0.07900  1.0000
  H   H36       1.0  0.97796  0.03280  0.05813  1.0000
  C   C41       1.0  0.44127  0.32901  0.06870  1.0000
  H   H37       1.0  0.04857  0.27982  0.00899  1.0000
  C   C42       1.0  0.42874  0.29539  0.11992  1.0000
  C   C43       1.0  0.46225  0.14845  0.24627  1.0000
  H   H38       1.0  0.05480  0.00023  0.02281  1.0000
  H   H39       1.0  0.08431  0.00107  0.13733  1.0000
  C   C44       1.0  0.42411  0.21276  0.28476  1.0000
  C   C45       1.0  0.23104  0.02862  0.01211  1.0000
  C   C46       1.0  0.44618  0.32360  0.02859  1.0000
  H   H40       1.0  0.39090  0.27916  0.29782  1.0000
  H   H41       1.0  0.35736  0.06893  0.30489  1.0000
  C   C47       1.0  0.02692  0.02568  0.10170  1.0000
  C   C48       1.0  0.41691  0.23064  0.26718  1.0000
  C   C49       1.0  0.99990  0.03253  0.06691  1.0000
  C   C50       1.0  0.13364  0.07736  0.16565  1.0000
  H   H42       1.0  0.44275  0.15158  0.25532  1.0000
  C   C51       1.0  0.06744  0.03970  0.14465  1.0000
  H   H43       1.0  0.34127  0.26802  0.12034  1.0000
  H   H44       1.0  0.24044  0.02446  0.02840  1.0000
  C   C52       1.0  0.40531  0.25480  0.27188  1.0000
  C   C53       1.0  0.44119  0.18022  0.11069  1.0000
  H   H45       1.0  0.01742  0.13542  0.10896  1.0000
  H   H46       1.0  0.06132  0.08495  0.15367  1.0000
  C   C54       1.0  0.39403  0.28171  0.11204  1.0000
  H   H47       1.0  0.41469  0.22922  0.07818  1.0000
  C   C55       1.0  0.99810  0.02494  0.09004  1.0000
  H   H48       1.0  0.16213  0.28410  0.01685  1.0000
  C   C56       1.0  0.09093  0.02598  0.14526  1.0000
  H   H49       1.0  0.38648  0.27114  0.09520  1.0000
  C   C57       1.0  0.20773  0.16991  0.00834  1.0000
  C   C58       1.0  0.37678  0.29128  0.14853  1.0000
  H   H50       1.0  0.11913  0.11760  0.17151  1.0000
  C   C59       1.0  0.41111  0.30437  0.15662  1.0000
  H   H51       1.0  0.08247  0.04742  0.05775  1.0000
  C   C60       1.0  0.11081  0.09149  0.16482  1.0000
  C   C61       1.0  0.03024  0.04063  0.05526  1.0000
  C   C62       1.0  0.97773  0.04684  0.99299  1.0000
  C   C63       1.0  0.07602  0.24951  0.00855  1.0000
  C   C64       1.0  0.41958  0.21884  0.30727  1.0000
  C   C65       1.0  0.12365  0.04459  0.15593  1.0000
  C   C66       1.0  0.45482  0.25053  0.10443  1.0000
  C   C67       1.0  0.42999  0.22358  0.09066  1.0000
  H   H52       1.0  0.22936  0.98793  0.10143  1.0000
  H   H53       1.0  0.41734  0.31155  0.17419  1.0000
  H   H54       1.0  0.44249  0.33019  0.01135  1.0000
  Fe  Fe5       1.0  0.45592  0.26189  0.20696  1.0000
  H   H55       1.0  0.01425  0.07670  0.13117  1.0000
  H   H56       1.0  0.14161  0.03390  0.15630  1.0000
  H   H57       1.0  0.40350  0.16774  0.08345  1.0000
  C   C68       1.0  0.40664  0.24222  0.31181  1.0000
  H   H58       1.0  0.99331  0.22940  0.02264  1.0000
  C   C69       1.0  0.98682  0.07942  0.00273  1.0000
  H   H59       1.0  0.98660  0.12888  0.99899  1.0000
  C   C70       1.0  0.09663  0.16561  0.99907  1.0000
  C   C71       1.0  0.46054  0.30119  0.03301  1.0000
  C   C72       1.0  0.45853  0.14348  0.22298  1.0000
  C   C73       1.0  0.06884  0.98524  0.02358  1.0000
  H   H60       1.0  0.25558  0.00457  0.99356  1.0000
  C   C74       1.0  0.09192  0.10712  0.00281  1.0000
  H   H61       1.0  0.42591  0.35530  0.04302  1.0000
  H   H62       1.0  0.97805  0.39704  0.25838  1.0000
  C   C75       1.0  0.43676  0.33767  0.04644  1.0000
  H   H63       1.0  0.09988  0.27190  0.00289  1.0000
  C   C76       1.0  0.17509  0.98009  0.05711  1.0000
  C   C77       1.0  0.45457  0.30556  0.07323  1.0000
  C   C78       1.0  0.46509  0.29249  0.05527  1.0000
  H   H64       1.0  0.99973  0.08592  0.01917  1.0000
  H   H65       1.0  0.46304  0.31516  0.14934  1.0000
  P   P3        1.0  0.46129  0.29515  0.10194  1.0000
  C   C79       1.0  0.35748  0.08987  0.31474  1.0000
  H   H66       1.0  0.43631  0.14296  0.21397  1.0000
  H   H67       1.0  0.23361  0.22146  0.99217  1.0000
  C   C80       1.0  0.43698  0.30622  0.14244  1.0000
  H   H68       1.0  0.20514  0.33105  0.99238  1.0000
  H   H69       1.0  0.41058  0.12716  0.30702  1.0000
  C   C81       1.0  0.97075  0.06424  0.15227  1.0000
  C   C82       1.0  0.97938  0.10378  0.99128  1.0000
  C   C83       1.0  0.43910  0.46995  0.43547  1.0000
  C   C84       1.0  0.38888  0.42048  0.41817  1.0000
  C   C85       1.0  0.34020  0.45852  0.40539  1.0000
  H   H70       1.0  0.12559  0.45383  0.65607  1.0000
  C   C86       1.0  0.27468  0.43621  0.42401  1.0000
  C   C87       1.0  0.44724  0.43064  0.41073  1.0000
  C   C88       1.0  0.35734  0.14432  0.33944  1.0000
  C   C89       1.0  0.33252  0.42403  0.50883  1.0000
  H   H71       1.0  0.32637  0.37738  0.52668  1.0000
  C   C90       1.0  0.40271  0.45028  0.43218  1.0000
  C   C91       1.0  0.35029  0.38321  0.49447  1.0000
  H   H72       1.0  0.25284  0.47443  0.49198  1.0000
  H   H73       1.0  0.42502  0.40075  0.49347  1.0000
  H   H74       1.0  0.31493  0.45744  0.37344  1.0000
  C   C92       1.0  0.36212  0.40386  0.47485  1.0000
  H   H75       1.0  0.45495  0.25714  0.41594  1.0000
  H   H76       1.0  0.42235  0.19169  0.41287  1.0000
  C   C93       1.0  0.41110  0.41079  0.40747  1.0000
  C   C94       1.0  0.45218  0.25019  0.35885  1.0000
  H   H77       1.0  0.30383  0.05860  0.32455  1.0000
  H   H78       1.0  0.44741  0.03041  0.49610  1.0000
  C   C95       1.0  0.43002  0.20798  0.39773  1.0000
  H   H79       1.0  0.32084  0.43183  0.52191  1.0000
  C   C96       1.0  0.42235  0.19218  0.37650  1.0000
  H   H80       1.0  0.36556  0.46786  0.39795  1.0000
  H   H81       1.0  0.42422  0.44742  0.51696  1.0000
  C   C97       1.0  0.33608  0.45240  0.42875  1.0000
  C   C98       1.0  0.27885  0.44167  0.40076  1.0000
  C   C99       1.0  0.21696  0.41457  0.63173  1.0000
  C   C100      1.0  0.32729  0.08407  0.32577  1.0000
  H   H82       1.0  0.35295  0.35956  0.49657  1.0000
  H   H83       1.0  0.30363  0.10700  0.34632  1.0000
  C   C101      1.0  0.44664  0.42741  0.49285  1.0000
  C   C102      1.0  0.21412  0.44557  0.63154  1.0000
  H   H84       1.0  0.36089  0.40426  0.41590  1.0000
  H   H85       1.0  0.37377  0.39559  0.46208  1.0000
  H   H86       1.0  0.40037  0.38748  0.39699  1.0000
  C   C103      1.0  0.43284  0.21328  0.35687  1.0000
  C   C104      1.0  0.24880  0.41614  0.62681  1.0000
  C   C105      1.0  0.45762  0.01556  0.50567  1.0000
  P   P4        1.0  0.37360  0.46155  0.44672  1.0000
  C   C106      1.0  0.35941  0.43496  0.47217  1.0000
  C   C107      1.0  0.30316  0.44168  0.43798  1.0000
  H   H87       1.0  0.25115  0.39222  0.62688  1.0000
  C   C108      1.0  0.44615  0.45384  0.50624  1.0000
  H   H88       1.0  0.18562  0.47462  0.54972  1.0000
  H   H89       1.0  0.19449  0.38930  0.63558  1.0000
  C   C109      1.0  0.27771  0.44866  0.62164  1.0000
  H   H90       1.0  0.45080  0.09480  0.56886  1.0000
  H   H91       1.0  0.25673  0.43745  0.38998  1.0000
  C   C110      1.0  0.44840  0.24485  0.39949  1.0000
  C   C111      1.0  0.33544  0.39326  0.51144  1.0000
  H   H92       1.0  0.30223  0.44976  0.61747  1.0000
  C   C112      1.0  0.45945  0.26590  0.38004  1.0000
  H   H93       1.0  0.18921  0.44401  0.63505  1.0000
  H   H94       1.0  0.40143  0.24636  0.32887  1.0000
  C   C113      1.0  0.38793  0.15009  0.32877  1.0000
  H   H95       1.0  0.24937  0.42793  0.43129  1.0000
  S   S11       1.0  0.37760  0.47017  0.62024  1.0000
  C   C114      1.0  0.34491  0.44509  0.48946  1.0000
  H   H96       1.0  0.29924  0.43767  0.45594  1.0000
  C   C115      1.0  0.31162  0.45290  0.39146  1.0000
  H   H97       1.0  0.40904  0.16358  0.37549  1.0000
  H   H98       1.0  0.97740  0.45834  0.49240  1.0000
  H   H99       1.0  0.34280  0.46912  0.48791  1.0000
  H   H100      1.0  0.44978  0.14403  0.34725  1.0000
  H   H101      1.0  0.35669  0.16546  0.34862  1.0000
  S   S12       1.0  0.38057  0.47758  0.55313  1.0000
  P   P5        1.0  0.42606  0.19316  0.32959  1.0000
  C   C116      1.0  0.32720  0.11132  0.33807  1.0000
  H   H102      1.0  0.46207  0.26686  0.34403  1.0000
  C   C117      1.0  0.24323  0.47842  0.62662  1.0000
  C   C118      1.0  0.46121  0.46022  0.42467  1.0000
  H   H103      1.0  0.45969  0.06276  0.53813  1.0000
  H   H104      1.0  0.46439  0.42258  0.40290  1.0000
  C   C119      1.0  0.46553  0.19053  0.32593  1.0000
  Fe  Fe6       1.0  0.10597  0.14882  0.89173  1.0000
  S   S13       1.0  0.12516  0.16379  0.85639  1.0000
  S   S14       1.0  0.05321  0.10952  0.90546  1.0000
  Fe  Fe7       1.0  0.17862  0.19223  0.91287  1.0000
  S   S15       1.0  0.20428  0.21040  0.87921  1.0000
  S   S16       1.0  0.20812  0.21190  0.94615  1.0000
  Fe  Fe8       1.0  0.15921  0.21961  0.86909  1.0000
  S   S17       1.0  0.16317  0.27132  0.85405  1.0000
  Fe  Fe9       1.0  0.16885  0.15380  0.86877  1.0000
  S   S18       1.0  0.18914  0.12482  0.84777  1.0000
  S   S19       1.0  0.13575  0.20495  0.90373  1.0000
  S   S20       1.0  0.14757  0.13530  0.90307  1.0000
  Fe  Fe10      1.0  0.27026  0.43957  0.76971  1.0000
  S   S21       1.0  0.24491  0.45463  0.74097  1.0000
  S   S22       1.0  0.25518  0.38105  0.77660  1.0000
  C   C120      1.0  0.98358  0.06453  0.89951  1.0000
  C   C121      1.0  0.20470  0.40936  0.69230  1.0000
  H   H105      1.0  0.02585  0.30102  0.67695  1.0000
  H   H106      1.0  0.25722  0.06183  0.92285  1.0000
  C   C122      1.0  0.03266  0.15925  0.77448  1.0000
  C   C123      1.0  0.13502  0.41471  0.70463  1.0000
  C   C124      1.0  0.19083  0.30225  0.83332  1.0000
  C   C125      1.0  0.21056  0.29432  0.81862  1.0000
  C   C126      1.0  0.23033  0.31887  0.80161  1.0000
  C   C127      1.0  0.23117  0.35193  0.79920  1.0000
  C   C128      1.0  0.21186  0.36007  0.81412  1.0000
  C   C129      1.0  0.19165  0.33530  0.83089  1.0000
  H   H107      1.0  0.21015  0.26905  0.82009  1.0000
  H   H108      1.0  0.24507  0.31215  0.79021  1.0000
  H   H109      1.0  0.21225  0.38532  0.81261  1.0000
  H   H110      1.0  0.17658  0.34185  0.84212  1.0000
  H   H111      1.0  0.25501  0.43473  0.67639  1.0000
  C   C130      1.0  0.01245  0.10028  0.86687  1.0000
  C   C131      1.0  0.01410  0.09017  0.88924  1.0000
  H   H112      1.0  0.24238  0.35883  0.72842  1.0000
  C   C132      1.0  0.22852  0.99497  0.81642  1.0000
  H   H113      1.0  0.03586  0.12024  0.85892  1.0000
  H   H114      1.0  0.00622  0.13173  0.92395  1.0000
  C   C133      1.0  0.23155  0.37234  0.71798  1.0000
  C   C134      1.0  0.16761  0.02857  0.82590  1.0000
  C   C135      1.0  0.18069  0.06499  0.82831  1.0000
  C   C136      1.0  0.17037  0.07823  0.84613  1.0000
  C   C137      1.0  0.14653  0.05438  0.86175  1.0000
  C   C138      1.0  0.13376  0.01741  0.85954  1.0000
  C   C139      1.0  0.01672  0.15745  0.93171  1.0000
  H   H115      1.0  0.19890  0.08311  0.81615  1.0000
  H   H116      1.0  0.13834  0.06439  0.87559  1.0000
  C   C140      1.0  0.09503  0.28510  0.67766  1.0000
  C   C141      1.0  0.15434  0.39107  0.75979  1.0000
  C   C142      1.0  0.19717  0.18206  0.96924  1.0000
  C   C143      1.0  0.13152  0.36718  0.74369  1.0000
  H   H117      1.0  0.08955  0.23827  0.93061  1.0000
  C   C144      1.0  0.25032  0.15727  0.94637  1.0000
  C   C145      1.0  0.24936  0.16777  0.92403  1.0000
  C   C146      1.0  0.23160  0.14233  0.90754  1.0000
  C   C147      1.0  0.21441  0.10638  0.91341  1.0000
  C   C148      1.0  0.21521  0.09554  0.93586  1.0000
  C   C149      1.0  0.23325  0.12133  0.95233  1.0000
  P   P6        1.0  0.19206  0.04886  0.94296  1.0000
  C   C150      1.0  0.14575  0.03371  0.94499  1.0000
  C   C151      1.0  0.20132  0.02704  0.92062  1.0000
  C   C152      1.0  0.18403  0.38518  0.70898  1.0000
  C   C153      1.0  0.19202  0.29753  0.96342  1.0000
  C   C154      1.0  0.29608  0.03059  0.79952  1.0000
  C   C155      1.0  0.14455  0.00454  0.84155  1.0000
  H   H118      1.0  0.17565  0.01904  0.81178  1.0000
  C   C156      1.0  0.09590  0.04427  0.94101  1.0000
  C   C157      1.0  0.13171  0.05610  0.93913  1.0000
  H   H119      1.0  0.26318  0.17716  0.95923  1.0000
  H   H120      1.0  0.26151  0.19571  0.91965  1.0000
  H   H121      1.0  0.23042  0.15050  0.89027  1.0000
  H   H122      1.0  0.20011  0.08715  0.90041  1.0000
  H   H123      1.0  0.23380  0.11420  0.96984  1.0000
  C   C158      1.0  0.98028  0.08457  0.85486  1.0000
  H   H124      1.0  0.21130  0.31794  0.95276  1.0000
  C   C159      1.0  0.13303  0.43779  0.72013  1.0000
  C   C160      1.0  0.10977  0.33943  0.69748  1.0000
  H   H125      1.0  0.08530  0.06174  0.93618  1.0000
  H   H126      1.0  0.14832  0.08276  0.93318  1.0000
  H   H127      1.0  0.06794  0.35274  0.69894  1.0000
  C   C161      1.0  0.01630  0.17967  0.76891  1.0000
  H   H128      1.0  0.17487  0.25777  0.93792  1.0000
  H   H129      1.0  0.17604  0.41597  0.75462  1.0000
  H   H130      1.0  0.05742  0.24880  0.96072  1.0000
  H   H131      1.0  0.16036  0.23802  0.74017  1.0000
  H   H132      1.0  0.99976  0.20129  0.97233  1.0000
  C   C162      1.0  0.01375  0.98059  0.89695  1.0000
  C   C163      1.0  0.14713  0.24087  0.75449  1.0000
  C   C164      1.0  0.04937  0.18450  0.92522  1.0000
  C   C165      1.0  0.99760  0.16354  0.94792  1.0000
  C   C166      1.0  0.06396  0.21753  0.93551  1.0000
  C   C167      1.0  0.22758  0.02308  0.97143  1.0000
  C   C168      1.0  0.11908  0.31445  0.69000  1.0000
  C   C169      1.0  0.06407  0.08323  0.81844  1.0000
  H   H133      1.0  0.04294  0.25761  0.66327  1.0000
  C   C170      1.0  0.14923  0.38325  0.78278  1.0000
  C   C171      1.0  0.12134  0.35129  0.78998  1.0000
  C   C172      1.0  0.09843  0.32720  0.77411  1.0000
  H   H134      1.0  0.08569  0.31574  0.73912  1.0000
  H   H135      1.0  0.16712  0.40209  0.79498  1.0000
  H   H136      1.0  0.11776  0.34516  0.80784  1.0000
  H   H137      1.0  0.07698  0.30231  0.77974  1.0000
  C   C173      1.0  0.00478  0.17297  0.84651  1.0000
  C   C174      1.0  0.02913  0.19247  0.86336  1.0000
  C   C175      1.0  0.06485  0.20728  0.85937  1.0000
  C   C176      1.0  0.07617  0.20251  0.83860  1.0000
  C   C177      1.0  0.05205  0.18369  0.82140  1.0000
  C   C178      1.0  0.01614  0.16836  0.82565  1.0000
  P   P7        1.0  0.06735  0.17507  0.79552  1.0000
  C   C179      1.0  0.07973  0.14150  0.80261  1.0000
  C   C180      1.0  0.12338  0.99921  0.95273  1.0000
  C   C181      1.0  0.02211  0.12718  0.76330  1.0000
  H   H138      1.0  0.15038  0.12752  0.80611  1.0000
  C   C182      1.0  0.05474  0.10895  0.81170  1.0000
  C   C183      1.0  0.10276  0.21434  0.78317  1.0000
  C   C184      1.0  0.11384  0.24823  0.79196  1.0000
  C   C185      1.0  0.14186  0.27791  0.78238  1.0000
  C   C186      1.0  0.15882  0.27423  0.76388  1.0000
  C   C187      1.0  0.14688  0.23663  0.96874  1.0000
  S   S23       1.0  0.26555  0.47595  0.79414  1.0000
  H   H139      1.0  0.02036  0.19554  0.87963  1.0000
  H   H140      1.0  0.08396  0.22210  0.87242  1.0000
  H   H141      1.0  0.10386  0.21322  0.83598  1.0000
  H   H142      1.0  0.99677  0.15193  0.81324  1.0000
  H   H143      1.0  0.03472  0.11124  0.76690  1.0000
  H   H144      1.0  0.04482  0.05853  0.82595  1.0000
  H   H145      1.0  0.02814  0.10365  0.81396  1.0000
  H   H146      1.0  0.10152  0.25209  0.80636  1.0000
  H   H147      1.0  0.15126  0.30379  0.78974  1.0000
  H   H148      1.0  0.06338  0.17952  0.91230  1.0000
  C   C188      1.0  0.11899  0.21108  0.76395  1.0000
  C   C189      1.0  0.27305  0.99605  0.79251  1.0000
  C   C190      1.0  0.01289  0.19643  0.95881  1.0000
  H   H149      1.0  0.11041  0.18532  0.75662  1.0000
  C   C191      1.0  0.07586  0.33414  0.69292  1.0000
  H   H150      1.0  0.35066  0.43977  0.66396  1.0000
  C   C192      1.0  0.13195  0.42053  0.68145  1.0000
  C   C193      1.0  0.06150  0.28032  0.67289  1.0000
  C   C194      1.0  0.10349  0.33502  0.75104  1.0000
  H   H151      1.0  0.27052  0.03476  0.89091  1.0000
  C   C195      1.0  0.23608  0.03980  0.91408  1.0000
  C   C196      1.0  0.12752  0.44919  0.67395  1.0000
  C   C197      1.0  0.12850  0.46635  0.71258  1.0000
  H   H152      1.0  0.27823  0.40111  0.69879  1.0000
  C   C198      1.0  0.11433  0.14802  0.80055  1.0000
  C   C199      1.0  0.28519  0.04740  0.81478  1.0000
  C   C200      1.0  0.24372  0.02465  0.89596  1.0000
  H   H153      1.0  0.06768  0.17196  0.97087  1.0000
  H   H154      1.0  0.18141  0.29724  0.75718  1.0000
  C   C201      1.0  0.12347  0.12206  0.80708  1.0000
  H   H155      1.0  0.96990  0.99019  0.89245  1.0000
  H   H156      1.0  0.15868  0.13718  0.95095  1.0000
  H   H157      1.0  0.97708  0.16049  0.84982  1.0000
  C   C202      1.0  0.16637  0.12240  0.98471  1.0000
  H   H158      1.0  0.02440  0.20466  0.77722  1.0000
  H   H159      1.0  0.13473  0.17347  0.79488  1.0000
  C   C203      1.0  0.09842  0.08976  0.81610  1.0000
  H   H160      1.0  0.18293  0.34868  0.73517  1.0000
  H   H161      1.0  0.32244  0.04429  0.79322  1.0000
  C   C204      1.0  0.17116  0.26355  0.95497  1.0000
  C   C205      1.0  0.17254  0.14639  0.96679  1.0000
  H   H162      1.0  0.98471  0.05672  0.91683  1.0000
  H   H163      1.0  0.97618  0.18331  0.74885  1.0000
  C   C206      1.0  0.99486  0.11528  0.74723  1.0000
  H   H164      1.0  0.10592  0.07022  0.82183  1.0000
  C   C207      1.0  0.04582  0.22340  0.95245  1.0000
  C   C208      1.0  0.25187  0.39639  0.70138  1.0000
  H   H165      1.0  0.13493  0.43412  0.73808  1.0000
  C   C209      1.0  0.21454  0.19384  0.99014  1.0000
  C   C210      1.0  0.20717  0.04024  0.96990  1.0000
  P   P8        1.0  0.14004  0.37699  0.71396  1.0000
  C   C211      1.0  0.98906  0.16769  0.75284  1.0000
  C   C212      1.0  0.97824  0.13544  0.74207  1.0000
  H   H166      1.0  0.14481  0.31748  0.69362  1.0000
  H   H167      1.0  0.19528  0.42448  0.68244  1.0000
  C   C213      1.0  0.06247  0.11985  0.97173  1.0000
  H   H168      1.0  0.04628  0.11149  0.95651  1.0000
  H   H169      1.0  0.13212  0.21027  0.96194  1.0000
  C   C214      1.0  0.17431  0.99930  0.90852  1.0000
  H   H170      1.0  0.06142  0.06974  0.97700  1.0000
  C   C215      1.0  0.19785  0.36682  0.72184  1.0000
  H   H171      1.0  0.14718  0.98955  0.91255  1.0000
  C   C216      1.0  0.23859  0.41509  0.68866  1.0000
  C   C217      1.0  0.05190  0.30479  0.68056  1.0000
  C   C218      1.0  0.12568  0.47203  0.68952  1.0000
  C   C219      1.0  0.21666  0.99696  0.88406  1.0000
  C   C220      1.0  0.25146  0.02951  0.82332  1.0000
  H   H172      1.0  0.23428  0.01385  0.95656  1.0000
  H   H173      1.0  0.04603  0.00064  0.95010  1.0000
  H   H174      1.0  0.24294  0.04236  0.83526  1.0000
  H   H175      1.0  0.11575  0.99904  0.87166  1.0000
  C   C221      1.0  0.33698  0.47593  0.67995  1.0000
  H   H176      1.0  0.98649  0.09027  0.73888  1.0000
  H   H177      1.0  0.30293  0.07421  0.82012  1.0000
  C   C222      1.0  0.07383  0.00993  0.94885  1.0000
  C   C223      1.0  0.35082  0.46493  0.66255  1.0000
  H   H178      1.0  0.14765  0.09475  0.98246  1.0000
  C   C224      1.0  0.07094  0.09628  0.98328  1.0000
  H   H179      1.0  0.32654  0.45957  0.69480  1.0000
  H   H180      1.0  0.97888  0.09225  0.83758  1.0000
  H   H181      1.0  0.13359  0.98139  0.95708  1.0000
  H   H182      1.0  0.28216  0.98317  0.78110  1.0000
  H   H183      1.0  0.03079  0.00288  0.88643  1.0000
  C   C225      1.0  0.08753  0.98730  0.95453  1.0000
  H   H184      1.0  0.10243  0.26602  0.67181  1.0000
  H   H185      1.0  0.13309  0.40296  0.66915  1.0000
  C   C226      1.0  0.07487  0.15420  0.97976  1.0000
  C   C227      1.0  0.18860  0.30481  0.98572  1.0000
  H   H186      1.0  0.39612  0.47813  0.74896  1.0000
  H   H187      1.0  0.18255  0.98360  0.77962  1.0000
  H   H188      1.0  0.20263  0.98122  0.82348  1.0000
  H   H189      1.0  0.22227  0.98545  0.86977  1.0000
  C   C228      1.0  0.18211  0.98447  0.89034  1.0000
  H   H190      1.0  0.18227  0.06370  0.98905  1.0000
  C   C229      1.0  0.19827  0.05077  0.98977  1.0000
  C   C230      1.0  0.14300  0.24382  0.99111  1.0000
  C   C231      1.0  0.07497  0.93546  0.03820  1.0000
  C   C232      1.0  0.19976  0.94043  0.08202  1.0000
  P   P9        1.0  0.13127  0.92404  0.02917  1.0000
  H   H191      1.0  0.01500  0.85711  0.01391  1.0000
  C   C233      1.0  0.01903  0.84784  0.99814  1.0000
  C   C234      1.0  0.01283  0.96859  0.13457  1.0000
  S   S24       1.0  0.04632  0.86120  0.11516  1.0000
  C   C235      1.0  0.13660  0.94787  0.13141  1.0000
  C   C236      1.0  0.10852  0.91353  0.13005  1.0000
  C   C237      1.0  0.05672  0.95471  0.03705  1.0000
  S   S25       1.0  0.99185  0.85449  0.05902  1.0000
  C   C238      1.0  0.08068  0.93289  0.10145  1.0000
  Fe  Fe11      1.0  0.97009  0.79800  0.04850  1.0000
  C   C239      1.0  0.00340  0.94653  0.11576  1.0000
  H   H192      1.0  0.16692  0.89726  0.06040  1.0000
  C   C240      1.0  0.08040  0.90568  0.11520  1.0000
  H   H193      1.0  0.20878  0.92494  0.09202  1.0000
  H   H194      1.0  0.10869  0.89284  0.14066  1.0000
  C   C241      1.0  0.06033  0.80633  0.04738  1.0000
  H   H195      1.0  0.03344  0.94620  0.04690  1.0000
  C   C242      1.0  0.07115  0.83211  0.06401  1.0000
  C   C243      1.0  0.09246  0.85182  0.01958  1.0000
  H   H196      1.0  0.03906  0.82721  0.16351  1.0000
  C   C244      1.0  0.10913  0.96785  0.10291  1.0000
  H   H197      1.0  0.06545  0.91230  0.04902  1.0000
  H   H198      1.0  0.15809  0.95327  0.14305  1.0000
  H   H199      1.0  0.06186  0.79624  0.01222  1.0000
  C   C245      1.0  0.18691  0.92773  0.00480  1.0000
  C   C246      1.0  0.15436  0.92697  0.00370  1.0000
  C   C247      1.0  0.16295  0.94444  0.05178  1.0000
  Fe  Fe12      1.0  0.99755  0.83490  0.09322  1.0000
  C   C248      1.0  0.10361  0.87790  0.03622  1.0000
  S   S26       1.0  0.98027  0.77901  0.08212  1.0000
  C   C249      1.0  0.17577  0.92479  0.06422  1.0000
  H   H200      1.0  0.09953  0.85877  0.00215  1.0000
  H   H201      1.0  0.96872  0.94424  0.03144  1.0000
  H   H202      1.0  0.04291  0.77879  0.05152  1.0000
  H   H203      1.0  0.05906  0.92712  0.08990  1.0000
  H   H204      1.0  0.19912  0.92749  0.02086  1.0000
  C   C250      1.0  0.09251  0.86778  0.05847  1.0000
  H   H205      1.0  0.01157  0.90996  0.17472  1.0000
  C   C251      1.0  0.97392  0.90853  0.00901  1.0000
  H   H206      1.0  0.10018  0.88741  0.07158  1.0000
  C   C252      1.0  0.01546  0.95514  0.15592  1.0000
  H   H207      1.0  0.06262  0.82453  0.08118  1.0000
  C   C253      1.0  0.00877  0.92007  0.15837  1.0000
  C   C254      1.0  0.13718  0.97529  0.11806  1.0000
  C   C255      1.0  0.10557  0.94664  0.02590  1.0000
  C   C256      1.0  0.07113  0.81617  0.02522  1.0000
  C   C257      1.0  0.00505  0.81149  0.99456  1.0000
  H   H208      1.0  0.99101  0.78946  0.13730  1.0000
  C   C258      1.0  0.99977  0.89842  0.13950  1.0000
  S   S27       1.0  0.98044  0.77975  0.01540  1.0000
  H   H209      1.0  0.99559  0.87159  0.14123  1.0000
  H   H210      1.0  0.00124  0.95607  0.09908  1.0000
  C   C259      1.0  0.21157  0.97589  0.08725  1.0000
  C   C260      1.0  0.99730  0.91176  0.11824  1.0000
  H   H211      1.0  0.99147  0.89552  0.10347  1.0000
  C   C261      1.0  0.98528  0.79940  0.15233  1.0000
  H   H212      1.0  0.98482  0.89832  0.02190  1.0000
  C   C262      1.0  0.01239  0.82058  0.16719  1.0000
  C   C263      1.0  0.00509  0.83333  0.18660  1.0000
  H   H213      1.0  0.02344  0.97208  0.17053  1.0000
  H   H214      1.0  0.02614  0.84929  0.19828  1.0000
  C   C264      1.0  0.97074  0.82544  0.19094  1.0000
  H   H215      1.0  0.96565  0.83474  0.20641  1.0000
  C   C265      1.0  0.11762  0.97742  0.01250  1.0000
  Fe  Fe13      1.0  0.42413  0.84320  0.54712  1.0000
  S   S28       1.0  0.37183  0.84082  0.54122  1.0000
  H   H216      1.0  0.44651  0.70665  0.63387  1.0000
  Fe  Fe14      1.0  0.35917  0.51454  0.54348  1.0000
  S   S29       1.0  0.36271  0.53427  0.57840  1.0000
  H   H217      1.0  0.06413  0.72173  0.54272  1.0000
  Fe  Fe15      1.0  0.41628  0.57606  0.56855  1.0000
  S   S30       1.0  0.43157  0.62984  0.58280  1.0000
  C   C266      1.0  0.99441  0.71879  0.56857  1.0000
  S   S31       1.0  0.41100  0.55871  0.53268  1.0000
  Fe  Fe16      1.0  0.15470  0.59721  0.57213  1.0000
  S   S32       1.0  0.14181  0.63432  0.55207  1.0000
  S   S33       1.0  0.15033  0.58922  0.61025  1.0000
  Fe  Fe17      1.0  0.17458  0.57195  0.53065  1.0000
  S   S34       1.0  0.16348  0.60762  0.50769  1.0000
  S   S35       1.0  0.18872  0.53421  0.51373  1.0000
  Fe  Fe18      1.0  0.19154  0.64889  0.53408  1.0000
  S   S36       1.0  0.22387  0.70597  0.52245  1.0000
  Fe  Fe19      1.0  0.11438  0.58994  0.52697  1.0000
  S   S37       1.0  0.06557  0.58336  0.50699  1.0000
  S   S38       1.0  0.20633  0.61435  0.55559  1.0000
  S   S39       1.0  0.12353  0.55150  0.54861  1.0000
  C   C267      1.0  0.28002  0.50979  0.51932  1.0000
  C   C268      1.0  0.28002  0.53514  0.53386  1.0000
  C   C269      1.0  0.25277  0.54419  0.53217  1.0000
  C   C270      1.0  0.22549  0.52740  0.51621  1.0000
  H   H218      1.0  0.22950  0.48795  0.58020  1.0000
  C   C271      1.0  0.35063  0.83270  0.64500  1.0000
  H   H219      1.0  0.30078  0.54749  0.54632  1.0000
  H   H220      1.0  0.25245  0.56351  0.54332  1.0000
  H   H221      1.0  0.37737  0.81609  0.58661  1.0000
  C   C272      1.0  0.06018  0.60199  0.57074  1.0000
  C   C273      1.0  0.33200  0.80135  0.53662  1.0000
  C   C274      1.0  0.30616  0.80423  0.52377  1.0000
  C   C275      1.0  0.27366  0.77455  0.51974  1.0000
  C   C276      1.0  0.26589  0.74142  0.52891  1.0000
  C   C277      1.0  0.29143  0.73815  0.54217  1.0000
  C   C278      1.0  0.32469  0.76816  0.54591  1.0000
  H   H222      1.0  0.31133  0.82965  0.51673  1.0000
  H   H223      1.0  0.25419  0.77740  0.50955  1.0000
  H   H224      1.0  0.28561  0.71267  0.54936  1.0000
  H   H225      1.0  0.34439  0.76568  0.55605  1.0000
  H   H226      1.0  0.19820  0.62822  0.46095  1.0000
  C   C279      1.0  0.38612  0.84513  0.64059  1.0000
  H   H227      1.0  0.39395  0.69637  0.47397  1.0000
  H   H228      1.0  0.40231  0.58746  0.43800  1.0000
  C   C280      1.0  0.41993  0.90193  0.44448  1.0000
  C   C281      1.0  0.18294  0.68820  0.63514  1.0000
  C   C282      1.0  0.17232  0.65971  0.62018  1.0000
  C   C283      1.0  0.16318  0.62574  0.62849  1.0000
  H   H229      1.0  0.38618  0.80405  0.49252  1.0000
  H   H230      1.0  0.17125  0.66406  0.60222  1.0000
  H   H231      1.0  0.41800  0.73556  0.61183  1.0000
  H   H232      1.0  0.34210  0.58626  0.45598  1.0000
  C   C284      1.0  0.22608  0.50254  0.50178  1.0000
  H   H233      1.0  0.34316  0.74631  0.50772  1.0000
  C   C285      1.0  0.02865  0.54822  0.49308  1.0000
  C   C286      1.0  0.00913  0.55673  0.47718  1.0000
  C   C287      1.0  0.16435  0.62053  0.65189  1.0000
  H   H234      1.0  0.35665  0.55805  0.48854  1.0000
  C   C288      1.0  0.36389  0.48592  0.64302  1.0000
  C   C289      1.0  0.01712  0.51248  0.49825  1.0000
  H   H235      1.0  0.01759  0.58423  0.47309  1.0000
  C   C290      1.0  0.35403  0.58157  0.49090  1.0000
  H   H236      1.0  0.03165  0.50537  0.51045  1.0000
  H   H237      1.0  0.23745  0.69224  0.46736  1.0000
  Fe  Fe20      1.0  0.43293  0.52314  0.54445  1.0000
  C   C291      1.0  0.36440  0.51856  0.64148  1.0000
  H   H238      1.0  0.42207  0.88362  0.47831  1.0000
  C   C292      1.0  0.43057  0.60756  0.64204  1.0000
  C   C293      1.0  0.45427  0.72541  0.53772  1.0000
  H   H239      1.0  0.42777  0.91056  0.61908  1.0000
  C   C294      1.0  0.07626  0.66814  0.53204  1.0000
  H   H240      1.0  0.08141  0.57151  0.58764  1.0000
  C   C295      1.0  0.07634  0.66366  0.50869  1.0000
  H   H241      1.0  0.21751  0.56918  0.64046  1.0000
  H   H242      1.0  0.06048  0.59165  0.55433  1.0000
  C   C296      1.0  0.17643  0.51365  0.60579  1.0000
  H   H243      1.0  0.04086  0.76083  0.55389  1.0000
  H   H244      1.0  0.37193  0.52463  0.42727  1.0000
  C   C297      1.0  0.98801  0.57381  0.53693  1.0000
  C   C298      1.0  0.41607  0.75241  0.46928  1.0000
  C   C299      1.0  0.36292  0.74754  0.49661  1.0000
  H   H245      1.0  0.16355  0.72418  0.54025  1.0000
  H   H246      1.0  0.37505  0.53529  0.62682  1.0000
  C   C300      1.0  0.29102  0.68777  0.63877  1.0000
  C   C301      1.0  0.26560  0.65355  0.63257  1.0000
  C   C302      1.0  0.24482  0.64851  0.61321  1.0000
  C   C303      1.0  0.24906  0.67757  0.60001  1.0000
  C   C304      1.0  0.27444  0.71164  0.60594  1.0000
  C   C305      1.0  0.29538  0.71678  0.62524  1.0000
  Fe  Fe21      1.0  0.38912  0.50198  0.58755  1.0000
  C   C306      1.0  0.98593  0.61986  0.51380  1.0000
  C   C307      1.0  0.20781  0.49298  0.58282  1.0000
  H   H247      1.0  0.06581  0.64247  0.62936  1.0000
  C   C308      1.0  0.02082  0.67388  0.55611  1.0000
  S   S40       1.0  0.43358  0.80367  0.56691  1.0000
  C   C309      1.0  0.34492  0.61180  0.60618  1.0000
  C   C310      1.0  0.32514  0.81533  0.62820  1.0000
  S   S41       1.0  0.31228  0.49607  0.52000  1.0000
  H   H248      1.0  0.36336  0.73203  0.62487  1.0000
  C   C311      1.0  0.04884  0.62720  0.57295  1.0000
  H   H249      1.0  0.44360  0.60733  0.47083  1.0000
  C   C312      1.0  0.38746  0.78043  0.48805  1.0000
  H   H250      1.0  0.17260  0.52411  0.62113  1.0000
  H   H251      1.0  0.22492  0.62208  0.60861  1.0000
  H   H252      1.0  0.23236  0.67385  0.58533  1.0000
  H   H253      1.0  0.27747  0.73395  0.59561  1.0000
  H   H254      1.0  0.31476  0.74340  0.62976  1.0000
  C   C313      1.0  0.23375  0.61235  0.47646  1.0000
  C   C314      1.0  0.28965  0.66005  0.48964  1.0000
  C   C315      1.0  0.26629  0.62366  0.48713  1.0000
  P   P10       1.0  0.33231  0.67440  0.50271  1.0000
  C   C316      1.0  0.34424  0.64042  0.49778  1.0000
  C   C317      1.0  0.35350  0.62490  0.51591  1.0000
  C   C318      1.0  0.35785  0.59538  0.51247  1.0000
  C   C319      1.0  0.32980  0.67813  0.53267  1.0000
  C   C320      1.0  0.29997  0.65368  0.54415  1.0000
  C   C321      1.0  0.29927  0.65423  0.56765  1.0000
  C   C322      1.0  0.32823  0.67914  0.57984  1.0000
  C   C323      1.0  0.35810  0.70345  0.56852  1.0000
  C   C324      1.0  0.35904  0.70283  0.54503  1.0000
  H   H255      1.0  0.21579  0.58424  0.47477  1.0000
  H   H256      1.0  0.27285  0.60378  0.49353  1.0000
  H   H257      1.0  0.35646  0.63470  0.53288  1.0000
  H   H258      1.0  0.36286  0.58245  0.52680  1.0000
  H   H259      1.0  0.27751  0.63376  0.53501  1.0000
  H   H260      1.0  0.27644  0.63485  0.57642  1.0000
  H   H261      1.0  0.32758  0.67913  0.59804  1.0000
  H   H262      1.0  0.38080  0.72249  0.57786  1.0000
  H   H263      1.0  0.38288  0.72114  0.53663  1.0000
  H   H264      1.0  0.10769  0.67559  0.47915  1.0000
  C   C325      1.0  0.40660  0.72171  0.62741  1.0000
  H   H265      1.0  0.43093  0.93187  0.52593  1.0000
  C   C326      1.0  0.13899  0.70798  0.53141  1.0000
  C   C327      1.0  0.45321  0.92008  0.62715  1.0000
  C   C328      1.0  0.31947  0.59481  0.58940  1.0000
  H   H266      1.0  0.37044  0.63316  0.60172  1.0000
  H   H267      1.0  0.32538  0.60300  0.57195  1.0000
  C   C329      1.0  0.37562  0.71971  0.63495  1.0000
  H   H268      1.0  0.08469  0.59713  0.62507  1.0000
  H   H269      1.0  0.29496  0.71263  0.48533  1.0000
  C   C330      1.0  0.07416  0.60515  0.61067  1.0000
  H   H270      1.0  0.42331  0.50068  0.48291  1.0000
  C   C331      1.0  0.22379  0.63711  0.46874  1.0000
  C   C332      1.0  0.25310  0.49394  0.50325  1.0000
  C   C333      1.0  0.44521  0.69758  0.57464  1.0000
  C   C334      1.0  0.02634  0.73271  0.55763  1.0000
  P   P11       1.0  0.23812  0.51762  0.62504  1.0000
  H   H271      1.0  0.42467  0.91971  0.40991  1.0000
  C   C335      1.0  0.44791  0.95990  0.52266  1.0000
  H   H272      1.0  0.99884  0.56500  0.55059  1.0000
  C   C336      1.0  0.34079  0.62672  0.47604  1.0000
  C   C337      1.0  0.27920  0.55546  0.61752  1.0000
  C   C338      1.0  0.13893  0.70269  0.50829  1.0000
  H   H273      1.0  0.19002  0.71436  0.62853  1.0000
  H   H274      1.0  0.26139  0.63080  0.64273  1.0000
  C   C339      1.0  0.36420  0.71663  0.49119  1.0000
  C   C340      1.0  0.27877  0.68465  0.48261  1.0000
  C   C341      1.0  0.34579  0.59743  0.47262  1.0000
  P   P12       1.0  0.03680  0.64421  0.54802  1.0000
  C   C342      1.0  0.24601  0.67317  0.47219  1.0000
  C   C343      1.0  0.33492  0.80995  0.60703  1.0000
  H   H275      1.0  0.26742  0.55447  0.58173  1.0000
  C   C344      1.0  0.30506  0.57238  0.63422  1.0000
  H   H276      1.0  0.43740  0.75446  0.45939  1.0000
  H   H277      1.0  0.33304  0.63796  0.46191  1.0000
  C   C345      1.0  0.43871  0.66312  0.54149  1.0000
  H   H278      1.0  0.44515  0.69951  0.59274  1.0000
  C   C346      1.0  0.10760  0.68069  0.49693  1.0000
  C   C347      1.0  0.39127  0.71938  0.47765  1.0000
  C   C348      1.0  0.28659  0.56705  0.59503  1.0000
  C   C349      1.0  0.10783  0.69074  0.54328  1.0000
  C   C350      1.0  0.41411  0.78291  0.47441  1.0000
  C   C351      1.0  0.33764  0.60072  0.62861  1.0000
  C   C352      1.0  0.43561  0.91049  0.42341  1.0000
  H   H279      1.0  0.35751  0.61359  0.64159  1.0000
  C   C353      1.0  0.36993  0.82055  0.60297  1.0000
  H   H280      1.0  0.40980  0.60555  0.63070  1.0000
  C   C354      1.0  0.45703  0.90564  0.64787  1.0000
  H   H281      1.0  0.16337  0.71478  0.49935  1.0000
  H   H282      1.0  0.45969  0.75244  0.56884  1.0000
  H   H283      1.0  0.29782  0.80628  0.63153  1.0000
  C   C355      1.0  0.43633  0.55518  0.47852  1.0000
  C   C356      1.0  0.40699  0.56844  0.44763  1.0000
  C   C357      1.0  0.46411  0.88719  0.45834  1.0000
  S   S42       1.0  0.44330  0.54501  0.57982  1.0000
  C   C358      1.0  0.20514  0.50780  0.60306  1.0000
  C   C359      1.0  0.07231  0.59068  0.58956  1.0000
  C   C360      1.0  0.39555  0.50784  0.45420  1.0000
  C   C361      1.0  0.39544  0.83775  0.61972  1.0000
  H   H284      1.0  0.10859  0.69413  0.56134  1.0000
  C   C362      1.0  0.03953  0.71038  0.55136  1.0000
  C   C363      1.0  0.15173  0.50603  0.58834  1.0000
  H   H285      1.0  0.42254  0.84607  0.61617  1.0000
  C   C364      1.0  0.46544  0.90721  0.41975  1.0000
  H   H286      1.0  0.04381  0.66232  0.59643  1.0000
  C   C365      1.0  0.43846  0.66553  0.56491  1.0000
  H   H287      1.0  0.29789  0.50452  0.61737  1.0000
  C   C366      1.0  0.05093  0.64178  0.59427  1.0000
  S   S43       1.0  0.45669  0.84707  0.51755  1.0000
  H   H288      1.0  0.31545  0.79758  0.59370  1.0000
  C   C367      1.0  0.06352  0.63072  0.61303  1.0000
  H   H289      1.0  0.05282  0.64550  0.49965  1.0000
  C   C368      1.0  0.44657  0.69309  0.52789  1.0000
  H   H290      1.0  0.13022  0.51155  0.59038  1.0000
  C   C369      1.0  0.98621  0.48582  0.48800  1.0000
  H   H291      1.0  0.43376  0.80853  0.46836  1.0000
  C   C370      1.0  0.15508  0.49201  0.56815  1.0000
  H   H292      1.0  0.20516  0.48944  0.48946  1.0000
  C   C371      1.0  0.38976  0.53268  0.44163  1.0000
  C   C372      1.0  0.42301  0.70586  0.63996  1.0000
  C   C373      1.0  0.00139  0.60999  0.53168  1.0000
  C   C374      1.0  0.41871  0.51936  0.47282  1.0000
  C   C375      1.0  0.98871  0.66008  0.56701  1.0000
  H   H293      1.0  0.39686  0.90451  0.44734  1.0000
  H   H294      1.0  0.45456  0.56384  0.49275  1.0000
  H   H295      1.0  0.43354  0.63846  0.53388  1.0000
  C   C376      1.0  0.43028  0.57969  0.46608  1.0000
  H   H296      1.0  0.45059  0.49227  0.44673  1.0000
  H   H297      1.0  0.30025  0.56312  0.65155  1.0000
  H   H298      1.0  0.97383  0.63192  0.57063  1.0000
  H   H299      1.0  0.40893  0.96664  0.50346  1.0000
  C   C377      1.0  0.96650  0.49432  0.47225  1.0000
  H   H300      1.0  0.44716  0.69134  0.50977  1.0000
  H   H301      1.0  0.98419  0.73612  0.57333  1.0000
  C   C378      1.0  0.45867  0.60497  0.63340  1.0000
  H   H302      1.0  0.41653  0.80237  0.65052  1.0000
  C   C379      1.0  0.22557  0.52561  0.65227  1.0000
  H   H303      1.0  0.45962  0.60109  0.61553  1.0000
  C   C380      1.0  0.43408  0.89012  0.46190  1.0000
  C   C381      1.0  0.46468  0.81360  0.38497  1.0000
  C   C382      1.0  0.21669  0.55265  0.65472  1.0000
  C   C383      1.0  0.45330  0.72753  0.56111  1.0000
  H   H304      1.0  0.35097  0.55455  0.65740  1.0000
  H   H305      1.0  0.13642  0.48686  0.55438  1.0000
  C   C384      1.0  0.18292  0.48519  0.56549  1.0000
  C   C385      1.0  0.36076  0.70167  0.65514  1.0000
  C   C386      1.0  0.97845  0.53004  0.46672  1.0000
  H   H306      1.0  0.43819  0.79243  0.38230  1.0000
  H   H307      1.0  0.99566  0.64755  0.50949  1.0000
  C   C387      1.0  0.97559  0.68247  0.57324  1.0000
  H   H308      1.0  0.41099  0.93354  0.65634  1.0000
  H   H309      1.0  0.45282  0.82999  0.41590  1.0000
  C   C388      1.0  0.27508  0.47976  0.62160  1.0000
  C   C389      1.0  0.43560  0.97948  0.50995  1.0000
  Fe  Fe22      1.0  0.06939  0.87583  0.90397  1.0000
  S   S44       1.0  0.04155  0.82137  0.88913  1.0000
  S   S45       1.0  0.06906  0.89253  0.93994  1.0000
  Fe  Fe23      1.0  0.09674  0.91120  0.85860  1.0000
  S   S46       1.0  0.06999  0.85949  0.84000  1.0000
  H   H310      1.0  0.38709  0.68585  0.91818  1.0000
  Fe  Fe24      1.0  0.02451  0.84759  0.86205  1.0000
  Fe  Fe25      1.0  0.08950  0.83761  0.86815  1.0000
  S   S47       1.0  0.11358  0.80095  0.86353  1.0000
  S   S48       1.0  0.04944  0.90101  0.87796  1.0000
  S   S49       1.0  0.11905  0.89015  0.88572  1.0000
  Fe  Fe26      1.0  0.31776  0.51789  0.78118  1.0000
  S   S50       1.0  0.29414  0.53773  0.75439  1.0000
  S   S51       1.0  0.36077  0.55439  0.80525  1.0000
  C   C390      1.0  0.30643  0.63012  0.87956  1.0000
  H   H311      1.0  0.97117  0.88469  0.86379  1.0000
  Fe  Fe27      1.0  0.29816  0.49811  0.73236  1.0000
  Fe  Fe28      1.0  0.25389  0.71973  0.75223  1.0000
  S   S52       1.0  0.21510  0.70632  0.77997  1.0000
  S   S53       1.0  0.30301  0.71466  0.75533  1.0000
  Fe  Fe29      1.0  0.20128  0.71337  0.71483  1.0000
  S   S54       1.0  0.15819  0.69919  0.73948  1.0000
  S   S55       1.0  0.19746  0.71966  0.67679  1.0000
  Fe  Fe30      1.0  0.19836  0.74244  0.76156  1.0000
  S   S56       1.0  0.18573  0.78484  0.77493  1.0000
  Fe  Fe31      1.0  0.17819  0.66459  0.75603  1.0000
  S   S57       1.0  0.14261  0.60839  0.76705  1.0000
  S   S58       1.0  0.24066  0.75927  0.73546  1.0000
  S   S59       1.0  0.21744  0.67542  0.72970  1.0000
  H   H312      1.0  0.40615  0.61210  0.67171  1.0000
  H   H313      1.0  0.26722  0.58086  0.72726  1.0000
  H   H314      1.0  0.32676  0.80623  0.71700  1.0000
  C   C391      1.0  0.28871  0.59882  0.69437  1.0000
  H   H315      1.0  0.20136  0.92820  0.94865  1.0000
  C   C392      1.0  0.34708  0.74562  0.76071  1.0000
  C   C393      1.0  0.35855  0.78144  0.76491  1.0000
  C   C394      1.0  0.39445  0.80461  0.76895  1.0000
  C   C395      1.0  0.41881  0.79204  0.76869  1.0000
  C   C396      1.0  0.40697  0.75623  0.76457  1.0000
  C   C397      1.0  0.37137  0.73319  0.76078  1.0000
  H   H316      1.0  0.33989  0.79117  0.76505  1.0000
  H   H317      1.0  0.40339  0.83226  0.77232  1.0000
  H   H318      1.0  0.42494  0.74582  0.76506  1.0000
  H   H319      1.0  0.36252  0.70538  0.75823  1.0000
  C   C398      1.0  0.04406  0.73578  0.81596  1.0000
  H   H320      1.0  0.45372  0.87578  0.70591  1.0000
  C   C399      1.0  0.17900  0.52460  0.76562  1.0000
  C   C400      1.0  0.20333  0.56023  0.76156  1.0000
  C   C401      1.0  0.19269  0.58650  0.76174  1.0000
  C   C402      1.0  0.15773  0.57704  0.76593  1.0000
  C   C403      1.0  0.13370  0.54143  0.76980  1.0000
  S   S60       1.0  0.96901  0.81818  0.84862  1.0000
  H   H321      1.0  0.23032  0.56762  0.75876  1.0000
  H   H322      1.0  0.21155  0.61403  0.75910  1.0000
  H   H323      1.0  0.10675  0.53388  0.77311  1.0000
  H   H324      1.0  0.26234  0.64390  0.82905  1.0000
  C   C404      1.0  0.40101  0.59048  0.79688  1.0000
  C   C405      1.0  0.37867  0.68768  0.66823  1.0000
  H   H325      1.0  0.37122  0.74263  0.69546  1.0000
  C   C406      1.0  0.40321  0.61862  0.78324  1.0000
  C   C407      1.0  0.01045  0.71022  0.72692  1.0000
  H   H326      1.0  0.17565  0.64456  0.68483  1.0000
  H   H327      1.0  0.37960  0.61751  0.77616  1.0000
  C   C408      1.0  0.13219  0.79521  0.83858  1.0000
  C   C409      1.0  0.14941  0.77465  0.83939  1.0000
  C   C410      1.0  0.16548  0.77064  0.82011  1.0000
  C   C411      1.0  0.16483  0.78748  0.79976  1.0000
  C   C412      1.0  0.14693  0.80733  0.79890  1.0000
  C   C413      1.0  0.13047  0.81089  0.81807  1.0000
  H   H328      1.0  0.15061  0.76202  0.85511  1.0000
  H   H329      1.0  0.17881  0.75500  0.82110  1.0000
  H   H330      1.0  0.14540  0.81964  0.78319  1.0000
  H   H331      1.0  0.11635  0.82570  0.81713  1.0000
  C   C414      1.0  0.03047  0.82452  0.95711  1.0000
  C   C415      1.0  0.04411  0.86082  0.96062  1.0000
  S   S61       1.0  0.32456  0.48037  0.75878  1.0000
  H   H332      1.0  0.03484  0.81532  0.94136  1.0000
  H   H333      1.0  0.35492  0.66206  0.73193  1.0000
  C   C416      1.0  0.40783  0.50446  0.74150  1.0000
  C   C417      1.0  0.29806  0.76912  0.69074  1.0000
  C   C418      1.0  0.40133  0.92180  0.67269  1.0000
  C   C419      1.0  0.23467  0.89894  0.72559  1.0000
  C   C420      1.0  0.22210  0.87513  0.74372  1.0000
  C   C421      1.0  0.21440  0.88563  0.76393  1.0000
  C   C422      1.0  0.22033  0.92047  0.76649  1.0000
  H   H334      1.0  0.05288  0.96490  0.90485  1.0000
  P   P13       1.0  0.20869  0.93361  0.79217  1.0000
  C   C423      1.0  0.20930  0.90721  0.81606  1.0000
  C   C424      1.0  0.43688  0.57262  0.72214  1.0000
  C   C425      1.0  0.43719  0.78758  0.67938  1.0000
  C   C426      1.0  0.20384  0.92824  0.98501  1.0000
  C   C427      1.0  0.20632  0.55843  0.67560  1.0000
  C   C428      1.0  0.35056  0.52939  0.65878  1.0000
  H   H335      1.0  0.43109  0.54547  0.69056  1.0000
  C   C429      1.0  0.18653  0.90045  0.83396  1.0000
  C   C430      1.0  0.18753  0.88055  0.85263  1.0000
  C   C431      1.0  0.21090  0.86705  0.85353  1.0000
  C   C432      1.0  0.23432  0.87455  0.83610  1.0000
  C   C433      1.0  0.23405  0.89518  0.81764  1.0000
  C   C434      1.0  0.16547  0.92818  0.78699  1.0000
  C   C435      1.0  0.13637  0.89435  0.78825  1.0000
  C   C436      1.0  0.10260  0.88981  0.78514  1.0000
  C   C437      1.0  0.09775  0.91909  0.78033  1.0000
  C   C438      1.0  0.23929  0.93323  0.72766  1.0000
  H   H336      1.0  0.97527  0.87501  0.98357  1.0000
  H   H337      1.0  0.34256  0.83680  0.66123  1.0000
  H   H338      1.0  0.24036  0.89060  0.70989  1.0000
  H   H339      1.0  0.21783  0.84824  0.74214  1.0000
  H   H340      1.0  0.20375  0.86630  0.77743  1.0000
  H   H341      1.0  0.19786  0.54253  0.71060  1.0000
  H   H342      1.0  0.11339  0.92459  0.98120  1.0000
  C   C439      1.0  0.12973  0.78888  0.73234  1.0000
  H   H343      1.0  0.03627  0.72510  0.71993  1.0000
  P   P14       1.0  0.31838  0.69486  0.66361  1.0000
  H   H344      1.0  0.16782  0.91026  0.83352  1.0000
  H   H345      1.0  0.16936  0.87444  0.86615  1.0000
  H   H346      1.0  0.25238  0.86398  0.83679  1.0000
  H   H347      1.0  0.25283  0.90123  0.80450  1.0000
  H   H348      1.0  0.13988  0.87165  0.79202  1.0000
  H   H349      1.0  0.08017  0.86377  0.78711  1.0000
  C   C440      1.0  0.44839  0.85097  0.69839  1.0000
  H   H350      1.0  0.27667  0.77521  0.69023  1.0000
  H   H351      1.0  0.23480  0.97024  0.74917  1.0000
  H   H352      1.0  0.33494  0.63418  0.93398  1.0000
  C   C441      1.0  0.33519  0.64122  0.91631  1.0000
  C   C442      1.0  0.45190  0.79662  0.70101  1.0000
  C   C443      1.0  0.25434  0.56838  0.80700  1.0000
  C   C444      1.0  0.28896  0.57538  0.80917  1.0000
  C   C445      1.0  0.96775  0.89478  0.98726  1.0000
  H   H353      1.0  0.40613  0.48622  0.70776  1.0000
  S   S62       1.0  0.18977  0.48992  0.76611  1.0000
  H   H354      1.0  0.23468  0.54337  0.80011  1.0000
  H   H355      1.0  0.29606  0.55583  0.80397  1.0000
  H   H356      1.0  0.34089  0.61156  0.81993  1.0000
  C   C446      1.0  0.03127  0.73943  0.79463  1.0000
  H   H357      1.0  0.00554  0.77096  0.84840  1.0000
  C   C447      1.0  0.14422  0.51545  0.76958  1.0000
  C   C448      1.0  0.43165  0.59280  0.80651  1.0000
  C   C449      1.0  0.32629  0.78661  0.70572  1.0000
  H   H358      1.0  0.06166  0.72482  0.81791  1.0000
  H   H359      1.0  0.44733  0.75676  0.80502  1.0000
  H   H360      1.0  0.37469  0.79052  0.71878  1.0000
  C   C450      1.0  0.31443  0.60727  0.81838  1.0000
  H   H361      1.0  0.43020  0.57160  0.81736  1.0000
  C   C451      1.0  0.35316  0.77769  0.70680  1.0000
  H   H362      1.0  0.12527  0.48806  0.77277  1.0000
  C   C452      1.0  0.43304  0.68015  0.83135  1.0000
  H   H363      1.0  0.36380  0.93497  0.71842  1.0000
  C   C453      1.0  0.03451  0.74683  0.83526  1.0000
  C   C454      1.0  0.40247  0.89105  0.67987  1.0000
  C   C455      1.0  0.38890  0.87607  0.70096  1.0000
  H   H364      1.0  0.21038  0.85034  0.86762  1.0000
  H   H365      1.0  0.41046  0.53015  0.77282  1.0000
  C   C456      1.0  0.36456  0.67029  0.90741  1.0000
  C   C457      1.0  0.46412  0.62252  0.80263  1.0000
  H   H366      1.0  0.31496  0.76679  0.86820  1.0000
  C   C458      1.0  0.45065  0.71230  0.81969  1.0000
  C   C459      1.0  0.29629  0.74222  0.67720  1.0000
  H   H367      1.0  0.15135  0.84438  0.72429  1.0000
  C   C460      1.0  0.12672  0.95274  0.77809  1.0000
  H   H368      1.0  0.27299  0.72747  0.66684  1.0000
  C   C461      1.0  0.37446  0.92271  0.70764  1.0000
  C   C462      1.0  0.42795  0.54293  0.70863  1.0000
  H   H369      1.0  0.00074  0.77195  0.97122  1.0000
  C   C463      1.0  0.22664  0.50642  0.67152  1.0000
  H   H370      1.0  0.12253  0.49443  0.68376  1.0000
  C   C464      1.0  0.35143  0.75078  0.69330  1.0000
  C   C465      1.0  0.30613  0.62121  0.90240  1.0000
  C   C466      1.0  0.43243  0.84152  0.67690  1.0000
  H   H371      1.0  0.36870  0.67496  0.68425  1.0000
  C   C467      1.0  0.37511  0.89191  0.71481  1.0000
  H   H372      1.0  0.14969  0.78594  0.72365  1.0000
  C   C468      1.0  0.24510  0.59355  0.81374  1.0000
  H   H373      1.0  0.01054  0.64758  0.76253  1.0000
  C   C469      1.0  0.43602  0.64905  0.77970  1.0000
  H   H374      1.0  0.10312  0.73448  0.74273  1.0000
  H   H375      1.0  0.42303  0.67850  0.67070  1.0000
  C   C470      1.0  0.07806  0.76333  0.75555  1.0000
  H   H376      1.0  0.28516  0.68452  0.70815  1.0000
  C   C471      1.0  0.45551  0.61347  0.67978  1.0000
  C   C472      1.0  0.33595  0.50781  0.67775  1.0000
  C   C473      1.0  0.36496  0.67926  0.88458  1.0000
  H   H377      1.0  0.28993  0.57484  0.69090  1.0000
  C   C474      1.0  0.10557  0.82561  0.74458  1.0000
  H   H378      1.0  0.09119  0.62478  0.78672  1.0000
  H   H379      1.0  0.38788  0.70196  0.87795  1.0000
  C   C475      1.0  0.30530  0.63238  0.82584  1.0000
  H   H380      1.0  0.21824  0.58824  0.81170  1.0000
  H   H381      1.0  0.38686  0.96140  0.68094  1.0000
  C   C476      1.0  0.30014  0.62639  0.67850  1.0000
  H   H382      1.0  0.06027  0.80023  0.76503  1.0000
  C   C477      1.0  0.32323  0.73315  0.67822  1.0000
  H   H383      1.0  0.12834  0.68777  0.79704  1.0000
  H   H384      1.0  0.04910  0.90042  0.98422  1.0000
  C   C478      1.0  0.43346  0.73164  0.81390  1.0000
  H   H385      1.0  0.10680  0.73067  0.79008  1.0000
  H   H386      1.0  0.28362  0.61424  0.86913  1.0000
  C   C479      1.0  0.18848  0.92812  0.96400  1.0000
  C   C480      1.0  0.40870  0.67881  0.72422  1.0000
  C   C481      1.0  0.02616  0.95921  0.90731  1.0000
  S   S63       1.0  0.31460  0.52091  0.69716  1.0000
  C   C482      1.0  0.10243  0.67900  0.78976  1.0000
  H   H387      1.0  0.29634  0.74424  0.79750  1.0000
  C   C483      1.0  0.33604  0.65899  0.87042  1.0000
  H   H388      1.0  0.14382  0.92636  0.94648  1.0000
  H   H389      1.0  0.99908  0.75809  0.77677  1.0000
  C   C484      1.0  0.45778  0.82845  0.71043  1.0000
  C   C485      1.0  0.28616  0.66077  0.70383  1.0000
  C   C486      1.0  0.03614  0.65681  0.77024  1.0000
  C   C487      1.0  0.08150  0.64354  0.78394  1.0000
  C   C488      1.0  0.99991  0.76598  0.81233  1.0000
  P   P15       1.0  0.33664  0.67119  0.84104  1.0000
  H   H390      1.0  0.96829  0.86228  0.90608  1.0000
  C   C489      1.0  0.27037  0.62531  0.82329  1.0000
  C   C490      1.0  0.10337  0.75970  0.74348  1.0000
  C   C491      1.0  0.15610  0.92722  0.96277  1.0000
  H   H391      1.0  0.21713  0.49738  0.70719  1.0000
  H   H392      1.0  0.23608  0.48742  0.67069  1.0000
  Fe  Fe32      1.0  0.24287  0.49299  0.76492  1.0000
  C   C492      1.0  0.09028  0.70332  0.78577  1.0000
  H   H393      1.0  0.38532  0.64265  0.84670  1.0000
  C   C493      1.0  0.00429  0.93074  0.92111  1.0000
  H   H394      1.0  0.26493  0.63593  0.73569  1.0000
  C   C494      1.0  0.43024  0.56760  0.74529  1.0000
  C   C495      1.0  0.39847  0.71871  0.81954  1.0000
  C   C496      1.0  0.07934  0.79655  0.75595  1.0000
  C   C497      1.0  0.21638  0.51232  0.69240  1.0000
  H   H395      1.0  0.43421  0.76371  0.67175  1.0000
  H   H396      1.0  0.12757  0.48434  0.72469  1.0000
  H   H397      1.0  0.46000  0.68770  0.71661  1.0000
  H   H398      1.0  0.28334  0.59866  0.90928  1.0000
  C   C498      1.0  0.04831  0.63242  0.77429  1.0000
  C   C499      1.0  0.97223  0.68583  0.75882  1.0000
  C   C500      1.0  0.37379  0.65376  0.72753  1.0000
  C   C501      1.0  0.01120  0.79998  0.97408  1.0000
  H   H399      1.0  0.36497  0.88025  0.73115  1.0000
  H   H400      1.0  0.03228  0.60491  0.76969  1.0000
  H   H401      1.0  0.33261  0.72064  0.87310  1.0000
  H   H402      1.0  0.19933  0.57922  0.67737  1.0000
  C   C502      1.0  0.05730  0.69266  0.77576  1.0000
  C   C503      1.0  0.03856  0.87239  0.98127  1.0000
  C   C504      1.0  0.32484  0.72547  0.85650  1.0000
  C   C505      1.0  0.31482  0.75172  0.85380  1.0000
  C   C506      1.0  0.17498  0.64902  0.66686  1.0000
  H   H403      1.0  0.31429  0.69818  0.80199  1.0000
  C   C507      1.0  0.38749  0.93760  0.68656  1.0000
  C   C508      1.0  0.29957  0.65784  0.68321  1.0000
  C   C509      1.0  0.32458  0.70576  0.83789  1.0000
  C   C510      1.0  0.30449  0.75846  0.83256  1.0000
  H   H404      1.0  0.29655  0.77864  0.83043  1.0000
  H   H405      1.0  0.07157  0.91581  0.77876  1.0000
  P   P16       1.0  0.04331  0.72532  0.76943  1.0000
  C   C511      1.0  0.38058  0.68645  0.83139  1.0000
  C   C512      1.0  0.30435  0.73909  0.81399  1.0000
  C   C513      1.0  0.31448  0.71294  0.81660  1.0000
  H   H406      1.0  0.38584  0.73426  0.81477  1.0000
  C   C514      1.0  0.27454  0.63308  0.71964  1.0000
  C   C515      1.0  0.23879  0.97836  0.80050  1.0000
  C   C516      1.0  0.27595  0.60221  0.71495  1.0000
  C   C517      1.0  0.43301  0.66787  0.71871  1.0000
  C   C518      1.0  0.20568  0.53792  0.69436  1.0000
  C   C519      1.0  0.41602  0.53374  0.75496  1.0000
  C   C520      1.0  0.39827  0.66737  0.83733  1.0000
  C   C521      1.0  0.23184  0.94387  0.74796  1.0000
  C   C522      1.0  0.36306  0.61787  0.72495  1.0000
  C   C523      1.0  0.41357  0.50904  0.71833  1.0000
  C   C524      1.0  0.42737  0.80981  0.66736  1.0000
  H   H407      1.0  0.43754  0.67113  0.76981  1.0000
  H   H408      1.0  0.41689  0.70669  0.72615  1.0000
  P   P17       1.0  0.45302  0.61642  0.70985  1.0000
  H   H409      1.0  0.01457  0.91490  0.92942  1.0000
  C   C525      1.0  0.00599  0.70618  0.75034  1.0000
  C   C526      1.0  0.00910  0.75467  0.79299  1.0000
  H   H410      1.0  0.37787  0.57872  0.71739  1.0000
  C   C527      1.0  0.16052  0.95728  0.78120  1.0000
  C   C528      1.0  0.01255  0.76198  0.83345  1.0000
  S   S64       1.0  0.13131  0.95920  0.83739  1.0000
  H   H411      1.0  0.04470  0.74423  0.85166  1.0000
  C   C529      1.0  0.42231  0.63166  0.71632  1.0000
  C   C530      1.0  0.38702  0.60682  0.71924  1.0000
  H   H412      1.0  0.38892  0.85219  0.70681  1.0000
  H   H413      1.0  0.33618  0.59837  0.72759  1.0000
  H   H414      1.0  0.10652  0.85119  0.74502  1.0000
  C   C531      1.0  0.13081  0.82180  0.73285  1.0000
  H   H415      1.0  0.45995  0.77960  0.71013  1.0000
  H   H416      1.0  0.43558  0.58989  0.75580  1.0000
  H   H417      1.0  0.98314  0.77812  0.81109  1.0000
  H   H418      1.0  0.24838  0.95147  0.71346  1.0000
  H   H419      1.0  0.22874  0.92844  0.98598  1.0000
  C   C532      1.0  0.97942  0.97343  0.90035  1.0000
  H   H420      1.0  0.44632  0.66496  0.83553  1.0000
  C   C533      1.0  0.42876  0.61150  0.66521  1.0000
  H   H421      1.0  0.16115  0.96386  0.88069  1.0000
  H   H422      1.0  0.31039  0.62376  0.66278  1.0000
  C   C534      1.0  0.98146  0.69465  0.71223  1.0000
  P   P18       1.0  0.41949  0.87026  0.66149  1.0000
  C   C535      1.0  0.96944  0.92275  0.92402  1.0000
  C   C536      1.0  0.40950  0.68956  0.66059  1.0000
  S   S65       1.0  0.46368  0.82111  0.77404  1.0000
  H   H423      1.0  0.96992  0.80692  0.90068  1.0000
  H   H424      1.0  0.98509  0.69783  0.69418  1.0000
  C   C537      1.0  0.13897  0.92639  0.98251  1.0000
  H   H425      1.0  0.96830  0.68169  0.77682  1.0000
  H   H426      1.0  0.07035  0.96036  0.96013  1.0000
  H   H427      1.0  0.12293  0.97551  0.77477  1.0000
  C   C538      1.0  0.18433  0.68305  0.65855  1.0000
  H   H428      1.0  0.15687  0.59429  0.65849  1.0000
  Fe  Fe33      1.0  0.89431  0.02893  0.09654  1.0000
  S   S66       1.0  0.91564  0.04091  0.06178  1.0000
  Fe  Fe34      1.0  0.88618  0.09575  0.09874  1.0000
  S   S67       1.0  0.90774  0.11237  0.06372  1.0000
  S   S68       1.0  0.87535  0.13665  0.11617  1.0000
  Fe  Fe35      1.0  0.87388  0.05552  0.05408  1.0000
  S   S69       1.0  0.84358  0.04299  0.02070  1.0000
  Fe  Fe36      1.0  0.94787  0.09618  0.07418  1.0000
  H   H429      1.0  0.75052  0.30673  0.27716  1.0000
  S   S70       1.0  0.84925  0.03949  0.08830  1.0000
  S   S71       1.0  0.92950  0.08380  0.10970  1.0000
  Fe  Fe37      1.0  0.52693  0.32817  0.19921  1.0000
  S   S72       1.0  0.55784  0.30506  0.21633  1.0000
  S   S73       1.0  0.54853  0.38268  0.18352  1.0000
  Fe  Fe38      1.0  0.52097  0.25489  0.19851  1.0000
  H   H430      1.0  0.87919  0.17580  0.00844  1.0000
  Fe  Fe39      1.0  0.51606  0.28700  0.24247  1.0000
  S   S74       1.0  0.49358  0.27977  0.17871  1.0000
  Fe  Fe40      1.0  0.75902  0.18259  0.19761  1.0000
  S   S75       1.0  0.78657  0.22630  0.22276  1.0000
  S   S76       1.0  0.77239  0.13832  0.19075  1.0000
  Fe  Fe41      1.0  0.70622  0.20811  0.18541  1.0000
  S   S77       1.0  0.73012  0.25418  0.20870  1.0000
  S   S78       1.0  0.66160  0.19630  0.16101  1.0000
  Fe  Fe42      1.0  0.78125  0.26171  0.19644  1.0000
  S   S79       1.0  0.82859  0.31385  0.18831  1.0000
  Fe  Fe43      1.0  0.73333  0.21555  0.23355  1.0000
  S   S80       1.0  0.72438  0.22555  0.26959  1.0000
  S   S81       1.0  0.75725  0.21892  0.17062  1.0000
  S   S82       1.0  0.70566  0.16839  0.21087  1.0000
  S   S83       1.0  0.81083  0.44717  0.16143  1.0000
  C   C539      1.0  0.82306  0.35120  0.18256  1.0000
  C   C540      1.0  0.79187  0.35154  0.18697  1.0000
  C   C541      1.0  0.78883  0.38219  0.18230  1.0000
  C   C542      1.0  0.81654  0.41200  0.17244  1.0000
  C   C543      1.0  0.84747  0.41137  0.16787  1.0000
  C   C544      1.0  0.85088  0.38133  0.17319  1.0000
  H   H431      1.0  0.76996  0.32814  0.19363  1.0000
  H   H432      1.0  0.76445  0.38208  0.18524  1.0000
  H   H433      1.0  0.86862  0.43396  0.15974  1.0000
  H   H434      1.0  0.87485  0.38112  0.16938  1.0000
  C   C545      1.0  0.56794  0.21309  0.17486  1.0000
  C   C546      1.0  0.59719  0.22830  0.18951  1.0000
  C   C547      1.0  0.62630  0.22312  0.18578  1.0000
  C   C548      1.0  0.62636  0.20370  0.16712  1.0000
  C   C549      1.0  0.59739  0.18933  0.15246  1.0000
  C   C550      1.0  0.56824  0.19353  0.15649  1.0000
  H   H435      1.0  0.59701  0.24317  0.20390  1.0000
  H   H436      1.0  0.64840  0.23367  0.19739  1.0000
  H   H437      1.0  0.59719  0.17430  0.13805  1.0000
  C   C551      1.0  0.58630  0.19743  0.26564  1.0000
  C   C552      1.0  0.59271  0.41622  0.18371  1.0000
  C   C553      1.0  0.61995  0.41204  0.19387  1.0000
  C   C554      1.0  0.74776  0.22333  0.02478  1.0000
  C   C555      1.0  0.60039  0.44834  0.17303  1.0000
  C   C556      1.0  0.65310  0.13141  0.29723  1.0000
  C   C557      1.0  0.91457  0.38124  0.21870  1.0000
  H   H438      1.0  0.67583  0.43694  0.20104  1.0000
  C   C558      1.0  0.69581  0.19226  0.28829  1.0000
  C   C559      1.0  0.67451  0.15727  0.28149  1.0000
  C   C560      1.0  0.89584  0.21598  0.30098  1.0000
  H   H439      1.0  0.67493  0.15004  0.26421  1.0000
  H   H440      1.0  0.76933  0.41877  0.24235  1.0000
  C   C561      1.0  0.57843  0.10163  0.25297  1.0000
  H   H441      1.0  0.60360  0.25111  0.08829  1.0000
  H   H442      1.0  0.63718  0.10426  0.29198  1.0000
  H   H443      1.0  0.67187  0.25090  0.28027  1.0000
  C   C562      1.0  0.84640  0.13586  0.13714  1.0000
  C   C563      1.0  0.84904  0.16821  0.14385  1.0000
  C   C564      1.0  0.82641  0.16944  0.15990  1.0000
  C   C565      1.0  0.80108  0.13816  0.16992  1.0000
  C   C566      1.0  0.79865  0.10574  0.16347  1.0000
  C   C567      1.0  0.82098  0.10452  0.14709  1.0000
  H   H444      1.0  0.86912  0.19257  0.13673  1.0000
  H   H445      1.0  0.82890  0.19464  0.16471  1.0000
  H   H446      1.0  0.77930  0.08136  0.17114  1.0000
  H   H447      1.0  0.81864  0.07940  0.14227  1.0000
  C   C568      1.0  0.54084  0.43227  0.29364  1.0000
  H   H448      1.0  0.88312  0.35894  0.29195  1.0000
  C   C569      1.0  0.80831  0.09714  0.06805  1.0000
  C   C570      1.0  0.69711  0.44682  0.12980  1.0000
  C   C571      1.0  0.73660  0.18708  0.02694  1.0000
  C   C572      1.0  0.76498  0.19667  0.06392  1.0000
  C   C573      1.0  0.77574  0.23301  0.06175  1.0000
  P   P19       1.0  0.77473  0.17879  0.08928  1.0000
  C   C574      1.0  0.73696  0.15963  0.10716  1.0000
  C   C575      1.0  0.78779  0.14660  0.08120  1.0000
  C   C576      1.0  0.80604  0.15161  0.06112  1.0000
  H   H449      1.0  0.94236  0.41629  0.27960  1.0000
  H   H450      1.0  0.46736  0.34442  0.31022  1.0000
  H   H451      1.0  0.54004  0.44545  0.30871  1.0000
  C   C577      1.0  0.78044  0.11676  0.09478  1.0000
  C   C578      1.0  0.70473  0.15639  0.09958  1.0000
  C   C579      1.0  0.67649  0.14376  0.11415  1.0000
  C   C580      1.0  0.68005  0.13400  0.13628  1.0000
  C   C581      1.0  0.71186  0.13690  0.14388  1.0000
  C   C582      1.0  0.74029  0.15006  0.12949  1.0000
  C   C583      1.0  0.81040  0.21420  0.10454  1.0000
  C   C584      1.0  0.80353  0.23456  0.11970  1.0000
  C   C585      1.0  0.83090  0.26193  0.13168  1.0000
  C   C586      1.0  0.86537  0.26963  0.12830  1.0000
  C   C587      1.0  0.87252  0.25001  0.11289  1.0000
  C   C588      1.0  0.84516  0.22226  0.10112  1.0000
  H   H452      1.0  0.58483  0.39409  0.31499  1.0000
  H   H453      1.0  0.74120  0.23364  0.00964  1.0000
  P   P20       1.0  0.69229  0.35909  0.32047  1.0000
  H   H454      1.0  0.48490  0.40628  0.28884  1.0000
  H   H455      1.0  0.79066  0.25121  0.07506  1.0000
  H   H456      1.0  0.81285  0.17480  0.05061  1.0000
  C   C589      1.0  0.66216  0.47222  0.18229  1.0000
  C   C590      1.0  0.70909  0.40716  0.15344  1.0000
  C   C591      1.0  0.63475  0.47603  0.17231  1.0000
  H   H457      1.0  0.77690  0.23173  0.30258  1.0000
  H   H458      1.0  0.70133  0.16419  0.08267  1.0000
  H   H459      1.0  0.65194  0.14214  0.10851  1.0000
  H   H460      1.0  0.65840  0.12497  0.14770  1.0000
  H   H461      1.0  0.71480  0.12977  0.16113  1.0000
  H   H462      1.0  0.76507  0.15335  0.13593  1.0000
  H   H463      1.0  0.77698  0.22911  0.12242  1.0000
  H   H464      1.0  0.82540  0.27690  0.14388  1.0000
  H   H465      1.0  0.88648  0.29053  0.13783  1.0000
  H   H466      1.0  0.89921  0.25553  0.11055  1.0000
  H   H467      1.0  0.85130  0.20675  0.08983  1.0000
  C   C592      1.0  0.56723  0.34626  0.11373  1.0000
  C   C593      1.0  0.57317  0.37792  0.12353  1.0000
  H   H468      1.0  0.58869  0.34072  0.11185  1.0000
  H   H469      1.0  0.59906  0.39673  0.12970  1.0000
  C   C594      1.0  0.73093  0.12926  0.29612  1.0000
  C   C595      1.0  0.72384  0.11689  0.27401  1.0000
  C   C596      1.0  0.74912  0.13336  0.25756  1.0000
  C   C597      1.0  0.78142  0.16233  0.26317  1.0000
  C   C598      1.0  0.78848  0.17557  0.28522  1.0000
  C   C599      1.0  0.76310  0.15840  0.30175  1.0000
  C   C600      1.0  0.71417  0.44114  0.14839  1.0000
  C   C601      1.0  0.77172  0.34532  0.13066  1.0000
  H   H470      1.0  0.48175  0.13769  0.19296  1.0000
  H   H471      1.0  0.48500  0.31855  0.27939  1.0000
  H   H472      1.0  0.72768  0.25549  0.13632  1.0000
  H   H473      1.0  0.59260  0.16152  0.30495  1.0000
  C   C602      1.0  0.95447  0.39535  0.25071  1.0000
  H   H474      1.0  0.65296  0.36278  0.11011  1.0000
  H   H475      1.0  0.54742  0.23687  0.10605  1.0000
  C   C603      1.0  0.48407  0.14036  0.21114  1.0000
  H   H476      1.0  0.64666  0.36274  0.17963  1.0000
  C   C604      1.0  0.96521  0.99702  0.15696  1.0000
  C   C605      1.0  0.84963  0.24071  0.26869  1.0000
  C   C606      1.0  0.84803  0.27241  0.26596  1.0000
  C   C607      1.0  0.86203  0.29378  0.24683  1.0000
  C   C608      1.0  0.87741  0.28363  0.23026  1.0000
  S   S84       1.0  0.78399  0.47775  0.26849  1.0000
  C   C609      1.0  0.51168  0.36040  0.11880  1.0000
  H   H477      1.0  0.77574  0.27434  0.04057  1.0000
  H   H478      1.0  0.69865  0.09472  0.26960  1.0000
  H   H479      1.0  0.74377  0.12378  0.24038  1.0000
  H   H480      1.0  0.80056  0.17419  0.25013  1.0000
  C   C610      1.0  0.48698  0.33630  0.31347  1.0000
  C   C611      1.0  0.76725  0.24625  0.04219  1.0000
  C   C612      1.0  0.50052  0.08004  0.31050  1.0000
  C   C613      1.0  0.52543  0.21770  0.31336  1.0000
  H   H481      1.0  0.49028  0.26180  0.13298  1.0000
  C   C614      1.0  0.57214  0.27151  0.13410  1.0000
  H   H482      1.0  0.67504  0.28346  0.31999  1.0000
  C   C615      1.0  0.67219  0.33035  0.17850  1.0000
  H   H483      1.0  0.83525  0.28027  0.27819  1.0000
  H   H484      1.0  0.85994  0.31761  0.24433  1.0000
  C   C616      1.0  0.47222  0.24178  0.12159  1.0000
  H   H485      1.0  0.66225  0.42300  0.10144  1.0000
  C   C617      1.0  0.49698  0.32172  0.29597  1.0000
  C   C618      1.0  0.57203  0.25564  0.11385  1.0000
  C   C619      1.0  0.59672  0.08827  0.24113  1.0000
  C   C620      1.0  0.67615  0.37071  0.29506  1.0000
  C   C621      1.0  0.64041  0.36016  0.29219  1.0000
  C   C622      1.0  0.62868  0.37265  0.27374  1.0000
  C   C623      1.0  0.65254  0.39612  0.25822  1.0000
  C   C624      1.0  0.68798  0.40597  0.26063  1.0000
  C   C625      1.0  0.69976  0.39320  0.27890  1.0000
  H   H486      1.0  0.88344  0.46473  0.23103  1.0000
  H   H487      1.0  0.62148  0.34286  0.30430  1.0000
  H   H488      1.0  0.60104  0.36445  0.27173  1.0000
  S   S85       1.0  0.89234  0.98137  0.11496  1.0000
  H   H489      1.0  0.70659  0.42434  0.24869  1.0000
  C   C626      1.0  0.66216  0.32300  0.22521  1.0000
  C   C627      1.0  0.65108  0.34344  0.21247  1.0000
  H   H490      1.0  0.65833  0.32050  0.24317  1.0000
  H   H491      1.0  0.63809  0.35593  0.22057  1.0000
  H   H492      1.0  0.65064  0.29534  0.28023  1.0000
  H   H493      1.0  0.58996  0.27807  0.26888  1.0000
  C   C628      1.0  0.60365  0.26357  0.10394  1.0000
  H   H494      1.0  0.73093  0.46306  0.15913  1.0000
  P   P21       1.0  0.61374  0.46804  0.29867  1.0000
  C   C629      1.0  0.68321  0.30967  0.19145  1.0000
  C   C630      1.0  0.54310  0.12846  0.28772  1.0000
  C   C631      1.0  0.62154  0.20795  0.27080  1.0000
  H   H495      1.0  0.76960  0.31994  0.23592  1.0000
  H   H496      1.0  0.60285  0.30603  0.16062  1.0000
  H   H497      1.0  0.54771  0.26517  0.14196  1.0000
  H   H498      1.0  0.49216  0.08852  0.27564  1.0000
  C   C632      1.0  0.65596  0.34712  0.18924  1.0000
  H   H499      1.0  0.54576  0.18161  0.14517  1.0000
  C   C633      1.0  0.76575  0.31038  0.13109  1.0000
  H   H500      1.0  0.48524  0.37523  0.25419  1.0000
  C   C634      1.0  0.63315  0.26823  0.27572  1.0000
  H   H501      1.0  0.86669  0.20640  0.25359  1.0000
  H   H502      1.0  0.79774  0.36697  0.12767  1.0000
  H   H503      1.0  0.82836  0.44546  0.25967  1.0000
  P   P22       1.0  0.55583  0.15126  0.26089  1.0000
  H   H504      1.0  0.75032  0.38005  0.13565  1.0000
  H   H505      1.0  0.88173  0.00267  0.02104  1.0000
  C   C635      1.0  0.59661  0.15020  0.22611  1.0000
  C   C636      1.0  0.85060  0.01832  0.99983  1.0000
  H   H506      1.0  0.70941  0.33002  0.28132  1.0000
  C   C637      1.0  0.72822  0.33415  0.29469  1.0000
  C   C638      1.0  0.87275  0.40253  0.29769  1.0000
  H   H507      1.0  0.74027  0.35676  0.22992  1.0000
  C   C639      1.0  0.64485  0.24322  0.27595  1.0000
  H   H508      1.0  0.82822  0.34583  0.25357  1.0000
  C   C640      1.0  0.78243  0.40306  0.24471  1.0000
  H   H509      1.0  0.64362  0.40669  0.24430  1.0000
  C   C641      1.0  0.89508  0.13610  0.00460  1.0000
  H   H510      1.0  0.61392  0.38737  0.20228  1.0000
  H   H511      1.0  0.55002  0.40958  0.13349  1.0000
  H   H512      1.0  0.77501  0.43738  0.30885  1.0000
  C   C642      1.0  0.76583  0.36787  0.23788  1.0000
  C   C643      1.0  0.54549  0.38518  0.12571  1.0000
  C   C644      1.0  0.87768  0.37367  0.30427  1.0000
  C   C645      1.0  0.59864  0.25837  0.26960  1.0000
  C   C646      1.0  0.52249  0.31140  0.30000  1.0000
  H   H513      1.0  0.54849  0.21625  0.26015  1.0000
  S   S86       1.0  0.53649  0.29358  0.27857  1.0000
  H   H514      1.0  0.72753  0.40218  0.28090  1.0000
  C   C647      1.0  0.65483  0.44007  0.19314  1.0000
  C   C648      1.0  0.57518  0.22310  0.26462  1.0000
  C   C649      1.0  0.90422  0.16818  0.31681  1.0000
  H   H515      1.0  0.63091  0.18879  0.27123  1.0000
  C   C650      1.0  0.70529  0.28988  0.14023  1.0000
  H   H516      1.0  0.68598  0.28936  0.22457  1.0000
  C   C651      1.0  0.78248  0.34735  0.24109  1.0000
  C   C652      1.0  0.60373  0.29471  0.14475  1.0000
  C   C653      1.0  0.67791  0.30579  0.21471  1.0000
  C   C654      1.0  0.83343  0.39807  0.25687  1.0000
  C   C655      1.0  0.68645  0.37837  0.13999  1.0000
  C   C656      1.0  0.81590  0.36220  0.25094  1.0000
  C   C657      1.0  0.81603  0.41814  0.25436  1.0000
  H   H517      1.0  0.72247  0.40336  0.16804  1.0000
  H   H518      1.0  0.87158  0.39144  0.22224  1.0000
  C   C658      1.0  0.71125  0.32497  0.14035  1.0000
  C   C659      1.0  0.63536  0.28723  0.11436  1.0000
  C   C660      1.0  0.87930  0.25229  0.23291  1.0000
  S   S87       1.0  0.75799  0.46422  0.20797  1.0000
  C   C661      1.0  0.57272  0.43727  0.28535  1.0000
  C   C662      1.0  0.75194  0.32148  0.29203  1.0000
  C   C663      1.0  0.91812  0.20272  0.30825  1.0000
  H   H519      1.0  0.76739  0.11244  0.11063  1.0000
  C   C664      1.0  0.53344  0.32141  0.10675  1.0000
  C   C665      1.0  0.61462  0.10563  0.22168  1.0000
  H   H520      1.0  0.54706  0.23925  0.30481  1.0000
  C   C666      1.0  0.79997  0.46102  0.31033  1.0000
  C   C667      1.0  0.54107  0.39630  0.25507  1.0000
  P   P23       1.0  0.83080  0.21205  0.29290  1.0000
  C   C668      1.0  0.93412  0.40607  0.26271  1.0000
  H   H521      1.0  0.92441  0.04347  0.17213  1.0000
  H   H522      1.0  0.78709  0.30493  0.12832  1.0000
  C   C669      1.0  0.50957  0.39241  0.26294  1.0000
  S   S88       1.0  0.52931  0.21560  0.17873  1.0000
  H   H523      1.0  0.90686  0.37156  0.20165  1.0000
  C   C670      1.0  0.73244  0.28264  0.13570  1.0000
  H   H524      1.0  0.62889  0.09539  0.21251  1.0000
  C   C671      1.0  0.51342  0.14225  0.22250  1.0000
  H   H525      1.0  0.90703  0.24289  0.29454  1.0000
  C   C672      1.0  0.57820  0.13274  0.24548  1.0000
  C   C673      1.0  0.51741  0.14726  0.24592  1.0000
  C   C674      1.0  0.49162  0.15051  0.25771  1.0000
  H   H526      1.0  0.59717  0.17446  0.22030  1.0000
  H   H527      1.0  0.85801  0.44077  0.30902  1.0000
  H   H528      1.0  0.72133  0.16925  0.01350  1.0000
  C   C675      1.0  0.85941  0.19466  0.30215  1.0000
  C   C676      1.0  0.89430  0.39214  0.23060  1.0000
  C   C677      1.0  0.90339  0.40366  0.25295  1.0000
  P   P24       1.0  0.87715  0.41726  0.26867  1.0000
  C   C678      1.0  0.50942  0.41007  0.28237  1.0000
  H   H529      1.0  0.59721  0.06456  0.24713  1.0000
  P   P25       1.0  0.67658  0.33391  0.14823  1.0000
  H   H530      1.0  0.92150  0.15791  0.32242  1.0000
  H   H531      1.0  0.53305  0.14051  0.21277  1.0000
  C   C679      1.0  0.79069  0.09219  0.08819  1.0000
  C   C680      1.0  0.57241  0.41809  0.26644  1.0000
  H   H532      1.0  0.52933  0.29707  0.09916  1.0000
  H   H533      1.0  0.62836  0.15004  0.19910  1.0000
  C   C681      1.0  0.61442  0.13650  0.21414  1.0000
  H   H534      1.0  0.54133  0.38263  0.24003  1.0000
  C   C682      1.0  0.81605  0.12687  0.05455  1.0000
  C   C683      1.0  0.51019  0.09828  0.28991  1.0000
  C   C684      1.0  0.56655  0.13932  0.30621  1.0000
  H   H535      1.0  0.56505  0.08784  0.26809  1.0000
  H   H536      1.0  0.59637  0.42040  0.26006  1.0000
  H   H537      1.0  0.49459  0.15537  0.27568  1.0000
  C   C685      1.0  0.74503  0.17374  0.04647  1.0000
  H   H538      1.0  0.76799  0.16745  0.31900  1.0000
  H   H539      1.0  0.88081  0.12060  0.01905  1.0000
  C   C686      1.0  0.74462  0.35266  0.13528  1.0000
  C   C687      1.0  0.89913  0.46501  0.26603  1.0000
  S   S89       1.0  0.48691  0.31274  0.22618  1.0000
  C   C688      1.0  0.94455  0.38267  0.22877  1.0000
  C   C689      1.0  0.69450  0.20142  0.31066  1.0000
  H   H540      1.0  0.91353  0.09984  0.99662  1.0000
  H   H541      1.0  0.92170  0.47545  0.29996  1.0000
  H   H542      1.0  0.70072  0.47319  0.12632  1.0000
  H   H543      1.0  0.69548  0.29609  0.18375  1.0000
  C   C690      1.0  0.67536  0.41851  0.11592  1.0000
  C   C691      1.0  0.50521  0.32780  0.10997  1.0000
  C   C692      1.0  0.63566  0.30263  0.13503  1.0000
  H   H544      1.0  0.65958  0.29333  0.10631  1.0000
  H   H545      1.0  0.81646  0.07822  0.06303  1.0000
  H   H546      1.0  0.81773  0.14312  0.31217  1.0000
  H   H547      1.0  0.57954  0.45201  0.16539  1.0000
  H   H548      1.0  0.79579  0.31772  0.30653  1.0000
  H   H549      1.0  0.88690  0.29957  0.21506  1.0000
  C   C693      1.0  0.82610  0.23694  0.31544  1.0000
  C   C694      1.0  0.67009  0.38439  0.12094  1.0000
  H   H550      1.0  0.83018  0.13079  0.03913  1.0000
  H   H551      1.0  0.67983  0.26811  0.14429  1.0000
  C   C695      1.0  0.49335  0.21740  0.31419  1.0000
  H   H552      1.0  0.78573  0.06970  0.09901  1.0000
  C   C696      1.0  0.72804  0.35058  0.31483  1.0000
  H   H553      1.0  0.68514  0.47597  0.29880  1.0000
  C   C697      1.0  0.86342  0.41948  0.31389  1.0000
  C   C698      1.0  0.77701  0.32697  0.30880  1.0000
  H   H554      1.0  0.71861  0.43646  0.31454  1.0000
  H   H555      1.0  0.73591  0.14552  0.04802  1.0000
  H   H556      1.0  0.46814  0.29056  0.01918  1.0000
  H   H557      1.0  0.71120  0.11666  0.30886  1.0000
  C   C699      1.0  0.86561  0.23098  0.25206  1.0000
  S   S90       1.0  0.48168  0.23447  0.22604  1.0000
  H   H558      1.0  0.89054  0.24402  0.21981  1.0000
  C   C700      1.0  0.79669  0.24207  0.31588  1.0000
  C   C701      1.0  0.84566  0.16005  0.31090  1.0000
  H   H559      1.0  0.71048  0.22853  0.31597  1.0000
  H   H560      1.0  0.47873  0.20028  0.13825  1.0000
  H   H561      1.0  0.49057  0.23875  0.30631  1.0000
  H   H562      1.0  0.81479  0.45291  0.03590  1.0000
  H   H563      1.0  0.96024  0.37427  0.21948  1.0000
  C   C702      1.0  0.89392  0.16702  0.99848  1.0000
  H   H564      1.0  0.49057  0.36647  0.12085  1.0000
  H   H565      1.0  0.87125  0.47966  0.05724  1.0000
  C   C703      1.0  0.87038  0.00116  0.00444  1.0000
  H   H566      1.0  0.47665  0.27544  0.05844  1.0000
  C   C704      1.0  0.62428  0.44797  0.32250  1.0000
  H   H567      1.0  0.47518  0.05674  0.31211  1.0000
  H   H568      1.0  0.94619  0.21926  0.30725  1.0000
  C   C705      1.0  0.94368  0.03799  0.16474  1.0000
  C   C706      1.0  0.94080  0.00433  0.16698  1.0000
  C   C707      1.0  0.53693  0.31448  0.32181  1.0000
  C   C708      1.0  0.82281  0.47682  0.04547  1.0000
  C   C709      1.0  0.65278  0.14034  0.31983  1.0000
  C   C710      1.0  0.86803  0.14689  0.31816  1.0000
  H   H569      1.0  0.91904  0.98362  0.17593  1.0000
  H   H570      1.0  0.55507  0.19191  0.32418  1.0000
  C   C711      1.0  0.52991  0.19106  0.32426  1.0000
  C   C712      1.0  0.91393  0.12448  0.99182  1.0000
  Fe  Fe44      1.0  0.82754  0.39418  0.40489  1.0000
  S   S91       1.0  0.80406  0.33993  0.38899  1.0000
  Fe  Fe45      1.0  0.58268  0.41683  0.41807  1.0000
  S   S92       1.0  0.55901  0.39094  0.45110  1.0000
  H   H571      1.0  0.50232  0.39233  0.50712  1.0000
  Fe  Fe46      1.0  0.51689  0.37059  0.39101  1.0000
  Fe  Fe47      1.0  0.51123  0.39405  0.43901  1.0000
  Fe  Fe48      1.0  0.53751  0.34014  0.43163  1.0000
  S   S93       1.0  0.53879  0.29253  0.44773  1.0000
  S   S94       1.0  0.53640  0.42382  0.40716  1.0000
  S   S95       1.0  0.56496  0.36592  0.39961  1.0000
  Fe  Fe49      1.0  0.64716  0.16050  0.41793  1.0000
  S   S96       1.0  0.63292  0.17587  0.38446  1.0000
  S   S97       1.0  0.69520  0.19793  0.43796  1.0000
  Fe  Fe50      1.0  0.58216  0.08784  0.41999  1.0000
  S   S98       1.0  0.56347  0.09763  0.38620  1.0000
  S   S99       1.0  0.54208  0.03556  0.43622  1.0000
  Fe  Fe51      1.0  0.61873  0.12058  0.37463  1.0000
  S   S100      1.0  0.62758  0.10664  0.33952  1.0000
  Fe  Fe52      1.0  0.57908  0.15211  0.39837  1.0000
  S   S101      1.0  0.54425  0.17549  0.38823  1.0000
  S   S102      1.0  0.63658  0.10612  0.40740  1.0000
  S   S103      1.0  0.59402  0.14137  0.43291  1.0000
  C   C713      1.0  0.54404  0.01056  0.46001  1.0000
  C   C714      1.0  0.58254  0.09587  0.48864  1.0000
  C   C715      1.0  0.71927  0.43042  0.33225  1.0000
  H   H572      1.0  0.53121  0.02397  0.53275  1.0000
  C   C716      1.0  0.50598  0.47248  0.55502  1.0000
  C   C717      1.0  0.57540  0.01818  0.47132  1.0000
  P   P26       1.0  0.57223  0.42446  0.52881  1.0000
  C   C718      1.0  0.84701  0.26916  0.35060  1.0000
  H   H573      1.0  0.59968  0.03986  0.46550  1.0000
  C   C719      1.0  0.60012  0.38661  0.58533  1.0000
  C   C720      1.0  0.62866  0.41706  0.59394  1.0000
  H   H574      1.0  0.64270  0.01988  0.41619  1.0000
  H   H575      1.0  0.67335  0.18286  0.34369  1.0000
  C   C721      1.0  0.55871  0.35869  0.51295  1.0000
  C   C722      1.0  0.75307  0.35551  0.33178  1.0000
  H   H576      1.0  0.53743  0.33037  0.35613  1.0000
  C   C723      1.0  0.54390  0.26287  0.43031  1.0000
  C   C724      1.0  0.55656  0.24098  0.43977  1.0000
  C   C725      1.0  0.55836  0.21516  0.42667  1.0000
  C   C726      1.0  0.54622  0.21026  0.40430  1.0000
  C   C727      1.0  0.53395  0.23244  0.39476  1.0000
  C   C728      1.0  0.53362  0.25929  0.40759  1.0000
  H   H577      1.0  0.60079  0.35614  0.45129  1.0000
  H   H578      1.0  0.56802  0.19828  0.43411  1.0000
  H   H579      1.0  0.52447  0.22875  0.37744  1.0000
  H   H580      1.0  0.52428  0.27638  0.40013  1.0000
  H   H581      1.0  0.47152  0.42007  0.56745  1.0000
  C   C729      1.0  0.77317  0.30141  0.40312  1.0000
  C   C730      1.0  0.77167  0.29910  0.42665  1.0000
  C   C731      1.0  0.74771  0.26725  0.43721  1.0000
  C   C732      1.0  0.72455  0.23790  0.42433  1.0000
  C   C733      1.0  0.72573  0.24051  0.40081  1.0000
  C   C734      1.0  0.75009  0.27203  0.39028  1.0000
  H   H582      1.0  0.78941  0.32156  0.43671  1.0000
  H   H583      1.0  0.74726  0.26534  0.45539  1.0000
  H   H584      1.0  0.70852  0.21796  0.39071  1.0000
  H   H585      1.0  0.75086  0.27369  0.37210  1.0000
  C   C735      1.0  0.67362  0.45682  0.42134  1.0000
  C   C736      1.0  0.66944  0.42353  0.42751  1.0000
  C   C737      1.0  0.69847  0.41989  0.43500  1.0000
  H   H586      1.0  0.64373  0.40076  0.42676  1.0000
  C   C738      1.0  0.54521  0.38199  0.51598  1.0000
  C   C739      1.0  0.81744  0.27367  0.35105  1.0000
  C   C740      1.0  0.63340  0.32131  0.34677  1.0000
  C   C741      1.0  0.49542  0.43660  0.55856  1.0000
  H   H587      1.0  0.59104  0.36150  0.59416  1.0000
  C   C742      1.0  0.61897  0.99525  0.41924  1.0000
  C   C743      1.0  0.50882  0.09456  0.48370  1.0000
  C   C744      1.0  0.50033  0.07370  0.46434  1.0000
  H   H588      1.0  0.86727  0.37465  0.36090  1.0000
  C   C745      1.0  0.51379  0.10208  0.53310  1.0000
  C   C746      1.0  0.48119  0.08785  0.54346  1.0000
  H   H589      1.0  0.58463  0.36526  0.51921  1.0000
  Fe  Fe53      1.0  0.88453  0.45370  0.43436  1.0000
  H   H590      1.0  0.57117  0.08696  0.54546  1.0000
  C   C747      1.0  0.63566  0.20121  0.47937  1.0000
  C   C748      1.0  0.60527  0.19323  0.49084  1.0000
  C   C749      1.0  0.59846  0.22047  0.49694  1.0000
  C   C750      1.0  0.62193  0.25569  0.49128  1.0000
  C   C751      1.0  0.65225  0.26373  0.47934  1.0000
  C   C752      1.0  0.65885  0.23623  0.47353  1.0000
  P   P27       1.0  0.68062  0.30804  0.46904  1.0000
  C   C753      1.0  0.68342  0.30557  0.43881  1.0000
  C   C754      1.0  0.66107  0.33566  0.47423  1.0000
  C   C755      1.0  0.63466  0.33435  0.45965  1.0000
  C   C756      1.0  0.62032  0.35657  0.46305  1.0000
  C   C757      1.0  0.63199  0.38020  0.48092  1.0000
  C   C758      1.0  0.65737  0.38080  0.49605  1.0000
  C   C759      1.0  0.67158  0.35825  0.49291  1.0000
  C   C760      1.0  0.71262  0.33106  0.42720  1.0000
  C   C761      1.0  0.71531  0.32793  0.40406  1.0000
  C   C762      1.0  0.68889  0.29953  0.39227  1.0000
  C   C763      1.0  0.65927  0.27465  0.40351  1.0000
  C   C764      1.0  0.65642  0.27774  0.42663  1.0000
  C   C765      1.0  0.72420  0.32719  0.48154  1.0000
  C   C766      1.0  0.73717  0.30589  0.49162  1.0000
  C   C767      1.0  0.77165  0.32116  0.49992  1.0000
  C   C768      1.0  0.79332  0.35780  0.49846  1.0000
  C   C769      1.0  0.78042  0.37921  0.48888  1.0000
  C   C770      1.0  0.74616  0.36399  0.48036  1.0000
  H   H591      1.0  0.64102  0.18028  0.47436  1.0000
  H   H592      1.0  0.58689  0.16591  0.49458  1.0000
  H   H593      1.0  0.57467  0.21430  0.50559  1.0000
  H   H594      1.0  0.61576  0.27628  0.49564  1.0000
  H   H595      1.0  0.68156  0.24193  0.46381  1.0000
  H   H596      1.0  0.62536  0.31661  0.44542  1.0000
  H   H597      1.0  0.62138  0.39808  0.48280  1.0000
  H   H598      1.0  0.66652  0.39916  0.50994  1.0000
  H   H599      1.0  0.69118  0.35900  0.50480  1.0000
  H   H600      1.0  0.73381  0.35302  0.43587  1.0000
  H   H601      1.0  0.73861  0.34698  0.39545  1.0000
  H   H602      1.0  0.63328  0.25802  0.43495  1.0000
  H   H603      1.0  0.72121  0.27750  0.49278  1.0000
  H   H604      1.0  0.78181  0.30451  0.50710  1.0000
  H   H605      1.0  0.82027  0.36961  0.50442  1.0000
  H   H606      1.0  0.79725  0.40762  0.48737  1.0000
  H   H607      1.0  0.73704  0.38097  0.47239  1.0000
  H   H608      1.0  0.49540  0.13088  0.42567  1.0000
  H   H609      1.0  0.69170  0.29652  0.37452  1.0000
  C   C771      1.0  0.50584  0.14104  0.46123  1.0000
  H   H610      1.0  0.63876  0.25253  0.39445  1.0000
  C   C772      1.0  0.50454  0.01228  0.52649  1.0000
  H   H611      1.0  0.55647  0.17877  0.56286  1.0000
  H   H612      1.0  0.87435  0.24746  0.33305  1.0000
  C   C773      1.0  0.60646  0.29070  0.35631  1.0000
  C   C774      1.0  0.50235  0.34057  0.33509  1.0000
  C   C775      1.0  0.49235  0.03229  0.51389  1.0000
  H   H613      1.0  0.56143  0.45497  0.48714  1.0000
  Fe  Fe54      1.0  0.85972  0.47079  0.38882  1.0000
  C   C776      1.0  0.73384  0.45855  0.34739  1.0000
  C   C777      1.0  0.73591  0.45196  0.37038  1.0000
  C   C778      1.0  0.72309  0.41720  0.37824  1.0000
  C   C779      1.0  0.70884  0.38912  0.36316  1.0000
  H   H614      1.0  0.50820  0.16726  0.45990  1.0000
  C   C780      1.0  0.85140  0.25089  0.33288  1.0000
  C   C781      1.0  0.49546  0.08673  0.44352  1.0000
  H   H615      1.0  0.57495  0.12997  0.34096  1.0000
  C   C782      1.0  0.55658  0.47942  0.53505  1.0000
  H   H616      1.0  0.46807  0.33656  0.48686  1.0000
  H   H617      1.0  0.72525  0.41205  0.39598  1.0000
  H   H618      1.0  0.69977  0.36254  0.36955  1.0000
  H   H619      1.0  0.47437  0.29446  0.38134  1.0000
  C   C783      1.0  0.47031  0.16406  0.33712  1.0000
  S   S104      1.0  0.48793  0.34097  0.42188  1.0000
  C   C784      1.0  0.60183  0.45128  0.50711  1.0000
  H   H620      1.0  0.75359  0.36761  0.34765  1.0000
  H   H621      1.0  0.50709  0.39427  0.55347  1.0000
  C   C785      1.0  0.52672  0.32877  0.33931  1.0000
  P   P28       1.0  0.51997  0.07949  0.50980  1.0000
  C   C786      1.0  0.63812  0.41850  0.36155  1.0000
  C   C787      1.0  0.58397  0.09217  0.52939  1.0000
  H   H622      1.0  0.49168  0.29498  0.48235  1.0000
  H   H623      1.0  0.81398  0.28757  0.36492  1.0000
  H   H624      1.0  0.56878  0.09315  0.47277  1.0000
  C   C788      1.0  0.53548  0.15333  0.55749  1.0000
  C   C789      1.0  0.58880  0.46191  0.48831  1.0000
  C   C790      1.0  0.51119  0.12826  0.48204  1.0000
  H   H625      1.0  0.59979  0.00367  0.49877  1.0000
  C   C791      1.0  0.54078  0.13520  0.54008  1.0000
  C   C792      1.0  0.73209  0.44932  0.43550  1.0000
  C   C793      1.0  0.62907  0.25545  0.33944  1.0000
  H   H626      1.0  0.50627  0.14433  0.34526  1.0000
  C   C794      1.0  0.57540  0.99742  0.49009  1.0000
  H   H627      1.0  0.59705  0.36883  0.34953  1.0000
  H   H628      1.0  0.64299  0.40733  0.37692  1.0000
  H   H629      1.0  0.63361  0.10310  0.54457  1.0000
  C   C795      1.0  0.54592  0.44328  0.53835  1.0000
  C   C796      1.0  0.61801  0.10546  0.48829  1.0000
  C   C797      1.0  0.60423  0.25779  0.35254  1.0000
  C   C798      1.0  0.49296  0.34223  0.49469  1.0000
  C   C799      1.0  0.53922  0.32718  0.50115  1.0000
  H   H630      1.0  0.56594  0.14713  0.53212  1.0000
  C   C800      1.0  0.51288  0.98158  0.46748  1.0000
  C   C801      1.0  0.51548  0.42208  0.55045  1.0000
  C   C802      1.0  0.63693  0.45870  0.50759  1.0000
  H   H631      1.0  0.51646  0.07730  0.34488  1.0000
  C   C803      1.0  0.52375  0.09154  0.32895  1.0000
  H   H632      1.0  0.56034  0.36492  0.55948  1.0000
  C   C804      1.0  0.58298  0.38861  0.56551  1.0000
  C   C805      1.0  0.49837  0.12046  0.44193  1.0000
  C   C806      1.0  0.55668  0.12121  0.32679  1.0000
  C   C807      1.0  0.61937  0.10138  0.52897  1.0000
  S   S105      1.0  0.48995  0.35992  0.35651  1.0000
  H   H633      1.0  0.79620  0.34721  0.34198  1.0000
  H   H634      1.0  0.63111  0.11038  0.47230  1.0000
  H   H635      1.0  0.66385  0.11533  0.50804  1.0000
  C   C808      1.0  0.65830  0.31931  0.33337  1.0000
  H   H636      1.0  0.67650  0.47176  0.36985  1.0000
  C   C809      1.0  0.61233  0.39682  0.34606  1.0000
  S   S106      1.0  0.80424  0.42808  0.39266  1.0000
  S   S107      1.0  0.83020  0.40882  0.44105  1.0000
  S   S108      1.0  0.76709  0.44565  0.44859  1.0000
  S   S109      1.0  0.47320  0.40041  0.46201  1.0000
  S   S110      1.0  0.92684  0.45929  0.46069  1.0000
  C   C810      1.0  0.65602  0.28606  0.32987  1.0000
  H   H637      1.0  0.56475  0.24384  0.45731  1.0000
  H   H638      1.0  0.69493  0.39431  0.44055  1.0000
  C   C811      1.0  0.59472  0.42105  0.55394  1.0000
  C   C812      1.0  0.63643  0.10820  0.50843  1.0000
  Fe  Fe55      1.0  0.81073  0.44599  0.42845  1.0000
  C   C813      1.0  0.58650  0.99356  0.41551  1.0000
  C   C814      1.0  0.70738  0.39545  0.33998  1.0000
  H   H639      1.0  0.58344  0.23412  0.35999  1.0000
  C   C815      1.0  0.77745  0.34385  0.32867  1.0000
  C   C816      1.0  0.65708  0.45490  0.35754  1.0000
  C   C817      1.0  0.86851  0.38214  0.34323  1.0000
  H   H640      1.0  0.64182  0.41552  0.60935  1.0000
  H   H641      1.0  0.51781  0.14506  0.49660  1.0000
  C   C818      1.0  0.56529  0.08959  0.50921  1.0000
  H   H642      1.0  0.58516  0.01690  0.40961  1.0000
  H   H643      1.0  0.86634  0.27959  0.36418  1.0000
  S   S111      1.0  0.63727  0.46293  0.41419  1.0000
  H   H644      1.0  0.58738  0.29244  0.36675  1.0000
  H   H645      1.0  0.85573  0.42376  0.34912  1.0000
  S   S112      1.0  0.88307  0.43571  0.39868  1.0000
  H   H646      1.0  0.63517  0.34664  0.35005  1.0000
  C   C819      1.0  0.79226  0.26006  0.33374  1.0000
  C   C820      1.0  0.65029  0.46964  0.33809  1.0000
  H   H647      1.0  0.49046  0.07100  0.42850  1.0000
  C   C821      1.0  0.47486  0.43504  0.47878  1.0000
  H   H648      1.0  0.49879  0.04784  0.46518  1.0000
  C   C822      1.0  0.50232  0.16418  0.33606  1.0000
  H   H649      1.0  0.58511  0.47762  0.34023  1.0000
  C   C823      1.0  0.50629  0.31888  0.49210  1.0000
  H   H650      1.0  0.80970  0.44855  0.34432  1.0000
  C   C824      1.0  0.86198  0.40979  0.33662  1.0000
  H   H651      1.0  0.76913  0.26321  0.33427  1.0000
  H   H652      1.0  0.55009  0.30972  0.49819  1.0000
  C   C825      1.0  0.51248  0.37387  0.50635  1.0000
  H   H653      1.0  0.62758  0.22990  0.33685  1.0000
  H   H654      1.0  0.55597  0.30560  0.32521  1.0000
  H   H655      1.0  0.64729  0.44936  0.52130  1.0000
  H   H656      1.0  0.48919  0.47486  0.42773  1.0000
  C   C826      1.0  0.67321  0.17560  0.32638  1.0000
  C   C827      1.0  0.62275  0.45169  0.56305  1.0000
  C   C828      1.0  0.50311  0.13872  0.56791  1.0000
  C   C829      1.0  0.81980  0.46716  0.33043  1.0000
  C   C830      1.0  0.50281  0.46962  0.47830  1.0000
  C   C831      1.0  0.47598  0.10604  0.56087  1.0000
  C   C832      1.0  0.63985  0.44962  0.58286  1.0000
  H   H657      1.0  0.74782  0.47378  0.38208  1.0000
  H   H658      1.0  0.52453  0.47610  0.46739  1.0000
  H   H659      1.0  0.88009  0.34180  0.33214  1.0000
  C   C833      1.0  0.87577  0.36369  0.32701  1.0000
  C   C834      1.0  0.65875  0.47715  0.48969  1.0000
  H   H660      1.0  0.66161  0.47334  0.58972  1.0000
  H   H661      1.0  0.63126  0.47722  0.55487  1.0000
  C   C835      1.0  0.60542  0.41135  0.32653  1.0000
  H   H662      1.0  0.49900  0.15279  0.58139  1.0000
  H   H663      1.0  0.85724  0.12012  0.32483  1.0000
  H   H664      1.0  0.81951  0.02786  0.97459  1.0000
  H   H665      1.0  0.95333  0.01305  0.96431  1.0000
  C   C836      1.0  0.92967  0.17434  0.96627  1.0000
  C   C837      1.0  0.84004  0.99542  0.96137  1.0000
  P   P29       1.0  0.95477  0.12841  0.95525  1.0000
  S   S113      1.0  0.90974  0.03922  0.84980  1.0000
  H   H666      1.0  0.84313  0.04401  0.91926  1.0000
  H   H667      1.0  0.86315  0.06337  0.88018  1.0000
  H   H668      1.0  0.88331  0.07207  0.95159  1.0000
  C   C838      1.0  0.95157  0.04888  0.88754  1.0000
  Fe  Fe56      1.0  0.86947  0.98680  0.86454  1.0000
  H   H669      1.0  0.92814  0.02968  0.89583  1.0000
  C   C839      1.0  0.93213  0.14406  0.97285  1.0000
  C   C840      1.0  0.93669  0.12080  0.90897  1.0000
  S   S114      1.0  0.82981  0.98145  0.88992  1.0000
  H   H670      1.0  0.92258  0.11238  0.87362  1.0000
  C   C841      1.0  0.89208  0.08139  0.93466  1.0000
  C   C842      1.0  0.91397  0.10432  0.89073  1.0000
  C   C843      1.0  0.92613  0.10887  0.93111  1.0000
  C   C844      1.0  0.86927  0.06542  0.91640  1.0000
  C   C845      1.0  0.88037  0.07655  0.89442  1.0000
  H   H671      1.0  0.94204  0.18875  0.95104  1.0000
  C   C846      1.0  0.83521  0.01507  0.97826  1.0000
  C   C847      1.0  0.91106  0.18606  0.97924  1.0000
  H   H672      1.0  0.90949  0.20958  0.97417  1.0000
  C   C848      1.0  0.94983  0.05861  0.86510  1.0000
  H   H673      1.0  0.82789  0.99291  0.94491  1.0000
  H   H674      1.0  0.94035  0.05576  0.94402  1.0000
  C   C849      1.0  0.95328  0.06280  0.96040  1.0000
  C   C850      1.0  0.96084  0.03847  0.97186  1.0000
  C   C851      1.0  0.87482  0.98118  0.98766  1.0000
  H   H675      1.0  0.96227  0.14246  0.90551  1.0000
  H   H676      1.0  0.95694  0.12600  0.72976  1.0000
  C   C852      1.0  0.96252  0.09569  0.97008  1.0000
  C   C853      1.0  0.83917  0.72918  0.18664  1.0000
  Fe  Fe57      1.0  0.93721  0.83814  0.06975  1.0000
  S   S115      1.0  0.91316  0.87142  0.05691  1.0000
  H   H677      1.0  0.62978  0.59027  0.29665  1.0000
  S   S116      1.0  0.91486  0.78273  0.05687  1.0000
  C   C854      1.0  0.91891  0.48668  0.28405  1.0000
  S   S117      1.0  0.79723  0.52674  0.16985  1.0000
  H   H678      1.0  0.72871  0.49358  0.26921  1.0000
  H   H679      1.0  0.66005  0.50840  0.22234  1.0000
  C   C855      1.0  0.94352  0.80539  0.17554  1.0000
  C   C856      1.0  0.77064  0.56819  0.11860  1.0000
  Fe  Fe58      1.0  0.83282  0.56078  0.19727  1.0000
  S   S118      1.0  0.87765  0.61639  0.18999  1.0000
  H   H680      1.0  0.75675  0.55567  0.13392  1.0000
  S   S119      1.0  0.78895  0.54842  0.22110  1.0000
  H   H681      1.0  0.82861  0.65102  0.12398  1.0000
  S   S120      1.0  0.88332  0.71619  0.10658  1.0000
  H   H682      1.0  0.91795  0.70580  0.06669  1.0000
  Fe  Fe59      1.0  0.79646  0.50246  0.23332  1.0000
  H   H683      1.0  0.93778  0.87162  0.18703  1.0000
  H   H684      1.0  0.80841  0.97744  0.05945  1.0000
  C   C857      1.0  0.81164  0.52344  0.05820  1.0000
  C   C858      1.0  0.67927  0.48345  0.28239  1.0000
  H   H685      1.0  0.85533  0.53334  0.27992  1.0000
  C   C859      1.0  0.90430  0.61274  0.05160  1.0000
  C   C860      1.0  0.88283  0.68891  0.12980  1.0000
  C   C861      1.0  0.91233  0.69713  0.14349  1.0000
  C   C862      1.0  0.91028  0.67477  0.16185  1.0000
  C   C863      1.0  0.87902  0.64352  0.16646  1.0000
  C   C864      1.0  0.84970  0.63507  0.15255  1.0000
  C   C865      1.0  0.85158  0.65773  0.13446  1.0000
  H   H686      1.0  0.93671  0.72063  0.13997  1.0000
  H   H687      1.0  0.93313  0.68164  0.17249  1.0000
  H   H688      1.0  0.82544  0.61130  0.15592  1.0000
  H   H689      1.0  0.94019  0.63962  0.02466  1.0000
  C   C866      1.0  0.90082  0.95268  0.09865  1.0000
  C   C867      1.0  0.91221  0.93041  0.10921  1.0000
  C   C868      1.0  0.91720  0.90601  0.09653  1.0000
  C   C869      1.0  0.91030  0.90347  0.07330  1.0000
  C   C870      1.0  0.89942  0.92606  0.06274  1.0000
  C   C871      1.0  0.89489  0.95066  0.07532  1.0000
  H   H690      1.0  0.91684  0.93178  0.12723  1.0000
  H   H691      1.0  0.92543  0.88854  0.10479  1.0000
  H   H692      1.0  0.89396  0.92422  0.04479  1.0000
  H   H693      1.0  0.80829  0.55032  0.12395  1.0000
  S   S121      1.0  0.70442  0.50932  0.18106  1.0000
  Fe  Fe60      1.0  0.75400  0.51084  0.19437  1.0000
  C   C872      1.0  0.69918  0.82028  0.01639  1.0000
  H   H694      1.0  0.82634  0.64902  0.20660  1.0000
  H   H695      1.0  0.91905  0.56992  0.17055  1.0000
  H   H696      1.0  0.80417  0.87749  0.04811  1.0000
  C   C873      1.0  0.91977  0.86016  0.20082  1.0000
  C   C874      1.0  0.80006  0.56534  0.11297  1.0000
  C   C875      1.0  0.86321  0.83535  0.12918  1.0000
  H   H697      1.0  0.87941  0.82304  0.00091  1.0000
  H   H698      1.0  0.86203  0.85952  0.12547  1.0000
  C   C876      1.0  0.73681  0.79861  0.03294  1.0000
  H   H699      1.0  0.94565  0.56772  0.25964  1.0000
  C   C877      1.0  0.87889  0.79996  0.15475  1.0000
  Fe  Fe61      1.0  0.92644  0.76786  0.09154  1.0000
  C   C878      1.0  0.86616  0.77303  0.13862  1.0000
  H   H700      1.0  0.91352  0.52994  0.22710  1.0000
  C   C879      1.0  0.67534  0.76978  0.04193  1.0000
  C   C880      1.0  0.78141  0.89564  0.02141  1.0000
  C   C881      1.0  0.77295  0.92222  0.01490  1.0000
  C   C882      1.0  0.89371  0.73263  0.20004  1.0000
  C   C883      1.0  0.96512  0.93463  0.01431  1.0000
  C   C884      1.0  0.80768  0.92739  0.05614  1.0000
  C   C885      1.0  0.79815  0.89806  0.04241  1.0000
  H   H701      1.0  0.79354  0.67777  0.18958  1.0000
  C   C886      1.0  0.77762  0.60394  0.08512  1.0000
  H   H702      1.0  0.84392  0.75686  0.10532  1.0000
  C   C887      1.0  0.89572  0.86820  0.23507  1.0000
  C   C888      1.0  0.95081  0.94755  0.99765  1.0000
  C   C889      1.0  0.85269  0.77747  0.11786  1.0000
  C   C890      1.0  0.70837  0.77226  0.04450  1.0000
  C   C891      1.0  0.88663  0.61640  0.06993  1.0000
  C   C892      1.0  0.81219  0.48516  0.29220  1.0000
  C   C893      1.0  0.89202  0.65023  0.07528  1.0000
  C   C894      1.0  0.81879  0.58210  0.09353  1.0000
  C   C895      1.0  0.84345  0.53859  0.07042  1.0000
  C   C896      1.0  0.83979  0.67708  0.20243  1.0000
  H   H703      1.0  0.75890  0.92062  0.99930  1.0000
  S   S122      1.0  0.84324  0.51743  0.21168  1.0000
  H   H704      1.0  0.82097  0.92941  0.07221  1.0000
  S   S123      1.0  0.94412  0.82247  0.10506  1.0000
  C   C897      1.0  0.92017  0.60392  0.14306  1.0000
  H   H705      1.0  0.84193  0.81262  0.09673  1.0000
  C   C898      1.0  0.85150  0.80876  0.11305  1.0000
  H   H706      1.0  0.82057  0.61372  0.06412  1.0000
  H   H707      1.0  0.71204  0.75398  0.05565  1.0000
  H   H708      1.0  0.84528  0.51872  0.11672  1.0000
  C   C899      1.0  0.87442  0.80926  0.22013  1.0000
  H   H709      1.0  0.84521  0.89924  0.01213  1.0000
  H   H710      1.0  0.96189  0.97057  0.15855  1.0000
  C   C900      1.0  0.93158  0.67604  0.04421  1.0000
  C   C901      1.0  0.86668  0.54269  0.12358  1.0000
  C   C902      1.0  0.86557  0.86360  0.00728  1.0000
  H   H711      1.0  0.79471  0.53530  0.05822  1.0000
  C   C903      1.0  0.90830  0.57127  0.15410  1.0000
  C   C904      1.0  0.87844  0.57547  0.11233  1.0000
  C   C905      1.0  0.84545  0.51469  0.29384  1.0000
  C   C906      1.0  0.87721  0.83123  0.14982  1.0000
  H   H712      1.0  0.77729  0.97268  0.02319  1.0000
  H   H713      1.0  0.65336  0.74947  0.05098  1.0000
  C   C907      1.0  0.86562  0.52058  0.31387  1.0000
  H   H714      1.0  0.88664  0.85265  0.16165  1.0000
  H   H715      1.0  0.86712  0.74868  0.14191  1.0000
  H   H716      1.0  0.92173  0.74712  0.20276  1.0000
  C   C908      1.0  0.91880  0.88245  0.21721  1.0000
  H   H717      1.0  0.69545  0.83926  0.00598  1.0000
  C   C909      1.0  0.82143  0.69327  0.19273  1.0000
  C   C910      1.0  0.83878  0.87255  0.00757  1.0000
  H   H718      1.0  0.71581  0.50859  0.23076  1.0000
  C   C911      1.0  0.88167  0.54066  0.14432  1.0000
  H   H719      1.0  0.93038  0.77489  0.14490  1.0000
  C   C912      1.0  0.87358  0.83164  0.23653  1.0000
  C   C913      1.0  0.79748  0.81356  0.99491  1.0000
  H   H720      1.0  0.87883  0.65364  0.08937  1.0000
  C   C914      1.0  0.85461  0.49189  0.05748  1.0000
  H   H721      1.0  0.88551  0.96710  0.06702  1.0000
  P   P30       1.0  0.85692  0.57836  0.08647  1.0000
  C   C915      1.0  0.90511  0.60615  0.12239  1.0000
  C   C916      1.0  0.87581  0.69685  0.20628  1.0000
  C   C917      1.0  0.64731  0.48297  0.27773  1.0000
  C   C918      1.0  0.80038  0.95433  0.04910  1.0000
  C   C919      1.0  0.91481  0.51780  0.24303  1.0000
  H   H722      1.0  0.61610  0.49185  0.25189  1.0000
  H   H723      1.0  0.89496  0.88548  0.24777  1.0000
  H   H724      1.0  0.91383  0.63199  0.11472  1.0000
  C   C920      1.0  0.80699  0.60100  0.07942  1.0000
  H   H725      1.0  0.64532  0.79238  0.02626  1.0000
  C   C921      1.0  0.70406  0.49313  0.26555  1.0000
  C   C922      1.0  0.95098  0.79166  0.15654  1.0000
  H   H726      1.0  0.76913  0.61921  0.07444  1.0000
  C   C923      1.0  0.73223  0.82233  0.01841  1.0000
  C   C924      1.0  0.91426  0.67985  0.06247  1.0000
  C   C925      1.0  0.87556  0.74900  0.18994  1.0000
  C   C926      1.0  0.75952  0.58765  0.10474  1.0000
  H   H727      1.0  0.73701  0.59023  0.10931  1.0000
  C   C927      1.0  0.67079  0.79390  0.02796  1.0000
  C   C928      1.0  0.78277  0.95160  0.02861  1.0000
  H   H728      1.0  0.64007  0.50075  0.16407  1.0000
  H   H729      1.0  0.89001  0.68397  0.21344  1.0000
  H   H730      1.0  0.89193  0.88287  0.01217  1.0000
  H   H731      1.0  0.76237  0.80068  0.03567  1.0000
  H   H732      1.0  0.63464  0.54051  0.28109  1.0000
  C   C929      1.0  0.89755  0.82336  0.20213  1.0000
  C   C930      1.0  0.86497  0.52271  0.06987  1.0000
  H   H733      1.0  0.94333  0.96723  0.00187  1.0000
  P   P31       1.0  0.89890  0.79478  0.18077  1.0000
  H   H734      1.0  0.93591  0.91081  0.21603  1.0000
  C   C931      1.0  0.93314  0.53913  0.26132  1.0000
  H   H735      1.0  0.85569  0.82059  0.25039  1.0000
  H   H736      1.0  0.87199  0.51544  0.15312  1.0000
  H   H737      1.0  0.90091  0.58712  0.04705  1.0000
  H   H738      1.0  0.85701  0.78105  0.22162  1.0000
  P   P32       1.0  0.76885  0.85730  0.00404  1.0000
  H   H739      1.0  0.82461  0.74125  0.17896  1.0000
  C   C932      1.0  0.61001  0.50505  0.30937  1.0000
  H   H740      1.0  0.88977  0.53417  0.07903  1.0000
  H   H741      1.0  0.94955  0.54005  0.29600  1.0000
  C   C933      1.0  0.85848  0.82979  0.00083  1.0000
  C   C934      1.0  0.61993  0.56557  0.30605  1.0000
  C   C935      1.0  0.64070  0.49237  0.25599  1.0000
  C   C936      1.0  0.66541  0.50164  0.23918  1.0000
  C   C937      1.0  0.80424  0.84706  0.00229  1.0000
  H   H742      1.0  0.94006  0.62777  0.15104  1.0000
  H   H743      1.0  0.94875  0.69916  0.03428  1.0000
  H   H744      1.0  0.89114  0.54371  0.31517  1.0000
  C   C938      1.0  0.92667  0.64249  0.03882  1.0000
  C   C939      1.0  0.62257  0.53712  0.29724  1.0000
  C   C940      1.0  0.69697  0.50182  0.24393  1.0000
  C   C941      1.0  0.93535  0.52356  0.28178  1.0000
  Fe  Fe62      1.0  0.80402  0.48266  0.18570  1.0000
  C   C942      1.0  0.80137  0.49262  0.04581  1.0000
  C   C943      1.0  0.89783  0.48088  0.24534  1.0000
  H   H745      1.0  0.77674  0.48098  0.03647  1.0000
  C   C944      1.0  0.82453  0.80493  0.99428  1.0000
  H   H746      1.0  0.88956  0.96749  0.99156  1.0000
  C   C945      1.0  0.67400  0.76523  0.61097  1.0000
  C   C946      1.0  0.50402  0.83578  0.63779  1.0000
  H   H747      1.0  0.66484  0.49805  0.33547  1.0000
  C   C947      1.0  0.70649  0.78684  0.62122  1.0000
  H   H748      1.0  0.66995  0.90617  0.58112  1.0000
  C   C948      1.0  0.85271  0.49712  0.33237  1.0000
  C   C949      1.0  0.51296  0.96069  0.48611  1.0000
  S   S124      1.0  0.87869  0.50571  0.35734  1.0000
  Fe  Fe63      1.0  0.48068  0.85102  0.58135  1.0000
  C   C950      1.0  0.53304  0.86832  0.39185  1.0000
  Fe  Fe64      1.0  0.50163  0.89132  0.53584  1.0000
  C   C951      1.0  0.64930  0.79756  0.62959  1.0000
  S   S125      1.0  0.54546  0.94308  0.52136  1.0000
  C   C952      1.0  0.96044  0.54810  0.52410  1.0000
  H   H749      1.0  0.73575  0.83071  0.64348  1.0000
  S   S126      1.0  0.49654  0.86296  0.61816  1.0000
  C   C953      1.0  0.48018  0.89591  0.43727  1.0000
  H   H750      1.0  0.48845  0.97528  0.45884  1.0000
  H   H751      1.0  0.49824  0.75454  0.64479  1.0000
  S   S127      1.0  0.51724  0.85446  0.55435  1.0000
  H   H752      1.0  0.62063  0.75357  0.60688  1.0000
  C   C954      1.0  0.61071  0.48038  0.47047  1.0000
  H   H753      1.0  0.48386  0.80299  0.35465  1.0000
  C   C955      1.0  0.64567  0.48807  0.47119  1.0000
  H   H754      1.0  0.47486  0.87855  0.47220  1.0000
  C   C956      1.0  0.49617  0.80113  0.63278  1.0000
  H   H755      1.0  0.74424  0.48556  0.34124  1.0000
  H   H756      1.0  0.68563  0.48227  0.48978  1.0000
  C   C957      1.0  0.73642  0.48241  0.42846  1.0000
  H   H757      1.0  0.66851  0.85886  0.60596  1.0000
  H   H758      1.0  0.53842  0.97928  0.61768  1.0000
  H   H759      1.0  0.76212  0.50540  0.42923  1.0000
  H   H760      1.0  0.51812  0.72356  0.58367  1.0000
  H   H761      1.0  0.57132  0.77909  0.59312  1.0000
  C   C958      1.0  0.52867  0.72790  0.60077  1.0000
  H   H762      1.0  0.61814  0.91554  0.57745  1.0000
  C   C959      1.0  0.61541  0.84059  0.61675  1.0000
  H   H763      1.0  0.67086  0.74430  0.59979  1.0000
  H   H764      1.0  0.54417  0.52154  0.54028  1.0000
  C   C960      1.0  0.64665  0.88944  0.59052  1.0000
  C   C961      1.0  0.58646  0.84630  0.61456  1.0000
  C   C962      1.0  0.51215  0.70184  0.61728  1.0000
  H   H765      1.0  0.50591  0.78596  0.47651  1.0000
  H   H766      1.0  0.92490  0.53811  0.49590  1.0000
  H   H767      1.0  0.59192  0.91060  0.43687  1.0000
  H   H768      1.0  0.56489  0.87745  0.59912  1.0000
  C   C963      1.0  0.55880  0.75941  0.60625  1.0000
  S   S128      1.0  0.47569  0.52259  0.52304  1.0000
  C   C964      1.0  0.51959  0.94600  0.64723  1.0000
  H   H769      1.0  0.95128  0.52022  0.52756  1.0000
  H   H770      1.0  0.95074  0.67160  0.58160  1.0000
  H   H771      1.0  0.64595  0.96665  0.43001  1.0000
  H   H772      1.0  0.49731  0.81507  0.44247  1.0000
  C   C965      1.0  0.64549  0.77056  0.61508  1.0000
  S   S129      1.0  0.86496  0.49200  0.42414  1.0000
  C   C966      1.0  0.49040  0.81954  0.36941  1.0000
  H   H773      1.0  0.66239  0.50169  0.45710  1.0000
  H   H774      1.0  0.58016  0.49651  0.52606  1.0000
  H   H775      1.0  0.47700  0.91348  0.40324  1.0000
  H   H776      1.0  0.54447  0.85151  0.36075  1.0000
  C   C967      1.0  0.48533  0.60686  0.64780  1.0000
  C   C968      1.0  0.54417  0.96851  0.49759  1.0000
  C   C969      1.0  0.52575  0.70729  0.63930  1.0000
  C   C970      1.0  0.51197  0.83119  0.45664  1.0000
  C   C971      1.0  0.55595  0.73878  0.64485  1.0000
  C   C972      1.0  0.50245  0.49604  0.49178  1.0000
  C   C973      1.0  0.59487  0.50202  0.33045  1.0000
  C   C974      1.0  0.59001  0.93364  0.43103  1.0000
  H   H777      1.0  0.48526  0.79026  0.61640  1.0000
  H   H778      1.0  0.55380  0.91637  0.47528  1.0000
  C   C975      1.0  0.61752  0.89478  0.58843  1.0000
  C   C976      1.0  0.62074  0.96529  0.42704  1.0000
  C   C977      1.0  0.57273  0.76515  0.62837  1.0000
  C   C978      1.0  0.64570  0.86251  0.60467  1.0000
  H   H779      1.0  0.48879  0.93891  0.49189  1.0000
  H   H780      1.0  0.56314  0.82987  0.62384  1.0000
  P   P33       1.0  0.61291  0.80515  0.63492  1.0000
  H   H781      1.0  0.53109  0.96208  0.41732  1.0000
  C   C979      1.0  0.58749  0.87328  0.60054  1.0000
  Fe  Fe65      1.0  0.46909  0.81018  0.53840  1.0000
  H   H782      1.0  0.48875  0.67747  0.61297  1.0000
  H   H783      1.0  0.51264  0.68724  0.65212  1.0000
  H   H784      1.0  0.52426  0.52264  0.49133  1.0000
  H   H785      1.0  0.68570  0.84053  0.65078  1.0000
  C   C980      1.0  0.55717  0.93177  0.42749  1.0000
  C   C981      1.0  0.48232  0.97637  0.53096  1.0000
  P   P34       1.0  0.51777  0.89017  0.43210  1.0000
  C   C982      1.0  0.53533  0.83452  0.49458  1.0000
  H   H786      1.0  0.94705  0.60177  0.48694  1.0000
  C   C983      1.0  0.52454  0.84686  0.37285  1.0000
  H   H787      1.0  0.55962  0.88937  0.39411  1.0000
  C   C984      1.0  0.68210  0.81929  0.63973  1.0000
  C   C985      1.0  0.50346  0.78088  0.64887  1.0000
  H   H788      1.0  0.50686  0.60446  0.64103  1.0000
  H   H789      1.0  0.71077  0.51197  0.41654  1.0000
  C   C986      1.0  0.53659  0.49388  0.54336  1.0000
  C   C987      1.0  0.55570  0.96210  0.41979  1.0000
  C   C988      1.0  0.50733  0.86258  0.40755  1.0000
  C   C989      1.0  0.71054  0.81388  0.63558  1.0000
  H   H790      1.0  0.49223  0.96107  0.54035  1.0000
  C   C990      1.0  0.95825  0.59407  0.50109  1.0000
  H   H791      1.0  0.72854  0.78267  0.61799  1.0000
  C   C991      1.0  0.47418  0.48836  0.50588  1.0000
  C   C992      1.0  0.51694  0.81453  0.47583  1.0000
  C   C993      1.0  0.52542  0.86811  0.45614  1.0000
  C   C994      1.0  0.60485  0.56229  0.32703  1.0000
  H   H792      1.0  0.60297  0.58440  0.33389  1.0000
  H   H793      1.0  0.49012  0.48366  0.56092  1.0000
  C   C995      1.0  0.59233  0.53052  0.33922  1.0000
  S   S130      1.0  0.46798  0.89056  0.56399  1.0000
  C   C996      1.0  0.54380  0.88795  0.47508  1.0000
  C   C997      1.0  0.94556  0.55819  0.50621  1.0000
  H   H794      1.0  0.53846  0.82140  0.50960  1.0000
  H   H795      1.0  0.58081  0.52793  0.35555  1.0000
  H   H796      1.0  0.56258  0.88671  0.50885  1.0000
  C   C998      1.0  0.54883  0.87122  0.49417  1.0000
  H   H797      1.0  0.47946  0.95669  0.60003  1.0000
  C   C999      1.0  0.51567  0.95938  0.62631  1.0000
  C   C1000     1.0  0.48246  0.94661  0.61636  1.0000
  C   C1001     1.0  0.70729  0.48612  0.42140  1.0000
  H   H798      1.0  0.60038  0.48779  0.45570  1.0000
  H   H799      1.0  0.54536  0.95555  0.65483  1.0000
  H   H800      1.0  0.96375  0.53715  0.45466  1.0000
  C   C1002     1.0  0.47307  0.83502  0.40397  1.0000
  S   S131      1.0  0.46607  0.76312  0.52062  1.0000
  C   C1003     1.0  0.77795  0.89580  0.96422  1.0000
  Fe  Fe66      1.0  0.84761  0.90837  0.86584  1.0000
  S   S132      1.0  0.84870  0.86118  0.85071  1.0000
  H   H801      1.0  0.62397  0.84271  0.72751  1.0000
  S   S133      1.0  0.80757  0.89747  0.89205  1.0000
  Fe  Fe67      1.0  0.57918  0.81865  0.76917  1.0000
  S   S134      1.0  0.56631  0.76904  0.75024  1.0000
  S   S135      1.0  0.63793  0.85472  0.77623  1.0000
  Fe  Fe68      1.0  0.50227  0.80151  0.76672  1.0000
  S   S136      1.0  0.48469  0.75082  0.74813  1.0000
  Fe  Fe69      1.0  0.51967  0.74177  0.77232  1.0000
  S   S137      1.0  0.50851  0.68865  0.78729  1.0000
  Fe  Fe70      1.0  0.53208  0.78189  0.72732  1.0000
  S   S138      1.0  0.52532  0.76791  0.69015  1.0000
  S   S139      1.0  0.53446  0.79044  0.79297  1.0000
  S   S140      1.0  0.54801  0.83371  0.74423  1.0000
  H   H802      1.0  0.92321  0.82471  0.97150  1.0000
  C   C1004     1.0  0.72012  0.84213  0.94190  1.0000
  H   H803      1.0  0.60202  0.85879  0.65880  1.0000
  H   H804      1.0  0.95040  0.76098  0.93090  1.0000
  H   H805      1.0  0.53590  0.83994  0.69161  1.0000
  C   C1005     1.0  0.80112  0.75223  0.77808  1.0000
  C   C1006     1.0  0.88392  0.85214  0.91438  1.0000
  C   C1007     1.0  0.60946  0.84442  0.67093  1.0000
  C   C1008     1.0  0.70712  0.89565  0.84105  1.0000
  C   C1009     1.0  0.67053  0.87505  0.84261  1.0000
  C   C1010     1.0  0.64889  0.86205  0.82309  1.0000
  C   C1011     1.0  0.66355  0.87004  0.80166  1.0000
  C   C1012     1.0  0.70011  0.89066  0.80015  1.0000
  S   S141      1.0  0.86547  0.95195  0.94581  1.0000
  H   H806      1.0  0.65880  0.86907  0.85903  1.0000
  H   H807      1.0  0.62088  0.84623  0.82464  1.0000
  H   H808      1.0  0.71177  0.89725  0.78373  1.0000
  C   C1013     1.0  0.95191  0.90641  0.97068  1.0000
  C   C1014     1.0  0.84848  0.83675  0.90840  1.0000
  C   C1015     1.0  0.91800  0.87567  0.85895  1.0000
  C   C1016     1.0  0.88384  0.85158  0.85175  1.0000
  C   C1017     1.0  0.87663  0.81801  0.84459  1.0000
  C   C1018     1.0  0.90308  0.80855  0.84405  1.0000
  H   H809      1.0  0.60748  0.87476  0.69871  1.0000
  H   H810      1.0  0.92382  0.90169  0.86459  1.0000
  H   H811      1.0  0.85033  0.79909  0.83938  1.0000
  H   H812      1.0  0.47014  0.83590  0.72696  1.0000
  C   C1019     1.0  0.75735  0.86371  0.97548  1.0000
  H   H813      1.0  0.81756  0.74225  0.77151  1.0000
  H   H814      1.0  0.93362  0.94430  0.96308  1.0000
  H   H815      1.0  0.74972  0.91920  0.81811  1.0000
  H   H816      1.0  0.75479  0.71473  0.76019  1.0000
  Fe  Fe71      1.0  0.79236  0.93204  0.87077  1.0000
  H   H817      1.0  0.93104  0.93989  0.91677  1.0000
  H   H818      1.0  0.79800  0.82915  0.91753  1.0000
  H   H819      1.0  0.90147  0.84902  0.90328  1.0000
  H   H820      1.0  0.89696  0.78254  0.83824  1.0000
  C   C1020     1.0  0.93728  0.83236  0.85085  1.0000
  H   H821      1.0  0.88124  0.88899  0.96392  1.0000
  H   H822      1.0  0.63410  0.79347  0.71631  1.0000
  H   H823      1.0  0.50427  0.61173  0.68198  1.0000
  C   C1021     1.0  0.72883  0.83646  0.96396  1.0000
  H   H824      1.0  0.73343  0.87936  0.91406  1.0000
  C   C1022     1.0  0.83753  0.85959  0.94223  1.0000
  H   H825      1.0  0.78518  0.92654  0.93379  1.0000
  C   C1023     1.0  0.96073  0.81130  0.91643  1.0000
  C   C1024     1.0  0.52507  0.82908  0.67524  1.0000
  H   H826      1.0  0.56534  0.72712  0.70577  1.0000
  H   H827      1.0  0.92548  0.66268  0.70941  1.0000
  C   C1025     1.0  0.74013  0.87475  0.93112  1.0000
  H   H828      1.0  0.49743  0.61520  0.74855  1.0000
  H   H829      1.0  0.56567  0.74256  0.66207  1.0000
  H   H830      1.0  0.71332  0.81089  0.97190  1.0000
  H   H831      1.0  0.78838  0.92789  0.75769  1.0000
  H   H832      1.0  0.48742  0.62383  0.81042  1.0000
  C   C1026     1.0  0.94479  0.86601  0.85854  1.0000
  S   S142      1.0  0.83068  0.94071  0.84374  1.0000
  C   C1027     1.0  0.96006  0.84299  0.91969  1.0000
  H   H833      1.0  0.81984  0.86347  0.95271  1.0000
  C   C1028     1.0  0.55076  0.70218  0.71471  1.0000
  H   H834      1.0  0.80079  0.91654  0.97251  1.0000
  C   C1029     1.0  0.51743  0.79454  0.67024  1.0000
  C   C1030     1.0  0.81548  0.78113  0.79259  1.0000
  C   C1031     1.0  0.76574  0.73668  0.77180  1.0000
  C   C1032     1.0  0.74459  0.74972  0.78025  1.0000
  C   C1033     1.0  0.75852  0.77783  0.79557  1.0000
  C   C1034     1.0  0.79437  0.79408  0.80114  1.0000
  P   P35       1.0  0.73249  0.79667  0.80564  1.0000
  C   C1035     1.0  0.68592  0.76935  0.80102  1.0000
  C   C1036     1.0  0.73703  0.80316  0.83571  1.0000
  C   C1037     1.0  0.72081  0.82050  0.84571  1.0000
  C   C1038     1.0  0.72203  0.82416  0.86908  1.0000
  C   C1039     1.0  0.73965  0.81071  0.88267  1.0000
  C   C1040     1.0  0.75590  0.79337  0.87288  1.0000
  C   C1041     1.0  0.75432  0.78925  0.84949  1.0000
  C   C1042     1.0  0.66487  0.78508  0.79579  1.0000
  C   C1043     1.0  0.62858  0.76438  0.79395  1.0000
  C   C1044     1.0  0.61284  0.72779  0.79745  1.0000
  C   C1045     1.0  0.63346  0.71195  0.80322  1.0000
  C   C1046     1.0  0.66984  0.73270  0.80533  1.0000
  C   C1047     1.0  0.74895  0.83856  0.79094  1.0000
  C   C1048     1.0  0.73673  0.84013  0.76902  1.0000
  C   C1049     1.0  0.75075  0.87229  0.75712  1.0000
  C   C1050     1.0  0.77766  0.90289  0.76680  1.0000
  C   C1051     1.0  0.79061  0.90130  0.78835  1.0000
  C   C1052     1.0  0.77631  0.86928  0.80045  1.0000
  H   H835      1.0  0.84307  0.79378  0.79715  1.0000
  H   H836      1.0  0.71763  0.73816  0.77452  1.0000
  H   H837      1.0  0.80611  0.81694  0.81208  1.0000
  H   H838      1.0  0.70699  0.83102  0.83541  1.0000
  H   H839      1.0  0.70958  0.83783  0.87657  1.0000
  H   H840      1.0  0.74092  0.81408  0.90073  1.0000
  H   H841      1.0  0.76994  0.78328  0.88334  1.0000
  H   H842      1.0  0.76663  0.77524  0.84241  1.0000
  H   H843      1.0  0.67624  0.81348  0.79374  1.0000
  H   H844      1.0  0.61262  0.77699  0.79034  1.0000
  H   H845      1.0  0.58458  0.71193  0.79622  1.0000
  H   H846      1.0  0.62110  0.68371  0.80658  1.0000
  H   H847      1.0  0.68531  0.72030  0.81075  1.0000
  H   H848      1.0  0.71622  0.81656  0.76117  1.0000
  H   H849      1.0  0.74054  0.87356  0.74048  1.0000
  S   S143      1.0  0.88926  0.95487  0.88420  1.0000
  H   H850      1.0  0.81160  0.92499  0.79579  1.0000
  H   H851      1.0  0.78682  0.86855  0.81712  1.0000
  C   C1053     1.0  0.94330  0.67035  0.74409  1.0000
  C   C1054     1.0  0.56561  0.69412  0.73358  1.0000
  C   C1055     1.0  0.94916  0.78520  0.93329  1.0000
  S   S144      1.0  0.73330  0.91167  0.86619  1.0000
  C   C1056     1.0  0.51184  0.63912  0.73876  1.0000
  C   C1057     1.0  0.54611  0.66268  0.74563  1.0000
  C   C1058     1.0  0.48379  0.61109  0.67093  1.0000
  C   C1059     1.0  0.61534  0.81664  0.66432  1.0000
  Fe  Fe72      1.0  0.84800  0.94737  0.90883  1.0000
  H   H852      1.0  0.83917  0.82244  0.89274  1.0000
  H   H853      1.0  0.50522  0.68591  0.69348  1.0000
  C   C1060     1.0  0.76919  0.90145  0.94225  1.0000
  H   H854      1.0  0.59179  0.71273  0.73932  1.0000
  C   C1061     1.0  0.93465  0.82177  0.95632  1.0000
  C   C1062     1.0  0.62174  0.83553  0.70991  1.0000
  H   H855      1.0  0.69783  0.82133  0.93313  1.0000
  C   C1063     1.0  0.87286  0.87457  0.94842  1.0000
  C   C1064     1.0  0.62752  0.80779  0.70354  1.0000
  C   C1065     1.0  0.51646  0.67883  0.70789  1.0000
  C   C1066     1.0  0.89645  0.87098  0.93455  1.0000
  C   C1067     1.0  0.72175  0.90315  0.81964  1.0000
  H   H856      1.0  0.91732  0.65473  0.75076  1.0000
  C   C1068     1.0  0.82528  0.84041  0.92236  1.0000
  H   H857      1.0  0.55709  0.65699  0.76074  1.0000
  C   C1069     1.0  0.94756  0.84879  0.93986  1.0000
  C   C1070     1.0  0.61262  0.85372  0.69364  1.0000
  P   P36       1.0  0.94182  0.88739  0.94281  1.0000
  H   H858      1.0  0.92740  0.77031  0.96641  1.0000
  H   H859      1.0  0.52504  0.87648  0.66297  1.0000
  C   C1071     1.0  0.94790  0.67480  0.72081  1.0000
  C   C1072     1.0  0.94486  0.93405  0.97580  1.0000
  C   C1073     1.0  0.49668  0.64703  0.71982  1.0000
  C   C1074     1.0  0.93612  0.79044  0.95323  1.0000
  C   C1075     1.0  0.62435  0.79835  0.68086  1.0000
  H   H860      1.0  0.49418  0.90906  0.67401  1.0000
  C   C1076     1.0  0.51865  0.84967  0.65901  1.0000
  H   H861      1.0  0.62881  0.77671  0.67623  1.0000
  H   H862      1.0  0.47758  0.72205  0.81503  1.0000
  C   C1077     1.0  0.95737  0.94474  0.91395  1.0000
  C   C1078     1.0  0.46657  0.65109  0.78961  1.0000
  H   H863      1.0  0.81920  0.77891  0.98890  1.0000
  C   C1079     1.0  0.86007  0.97855  0.96599  1.0000
  H   H864      1.0  0.77124  0.79399  0.98992  1.0000
  C   C1080     1.0  0.49040  0.91938  0.65803  1.0000
