data_image0
_chemical_formula_structural       C3H3FeS3FeS2HFeS2FeCSC3HC2S2HCHC2H2C8H4C6H4CSHC2FeHC2HCHCHCH2CHSH2C2HC4PHCHC2H2C6PC18H6CH13C2H3SHC2HFeC7H2PFeHCH3FeCH2CHC2HC9PC5HC3HPCHCH3FeCHSH2CH3CSHCHCH4CH2CH3C2HC3HCH3CFeS2FeSCSH3FeCH2FeS2FeSCFeSCHFeSHSHC2H3C3SCH3C6H4C6H5C3H2CH2CHC3HC2HC2HCH4CH2CHCH2CHC6HCH2C6H2C5PC15HCH9CH3CH2FeC3SC6PC3H3C8H5CH7C2HC2PH2C2HCH5CH2C3PC4HC2HSCH3C2H2SCSCSC3HC4FeC2HSHCHCH4CH2CSH2CHFeSH2FeSCSCH3CHFeS2FeS2FeS2FeSFeS3C6H4C3HC2SHCH2C7H5SCH2CHCH2SH3CH3CFeC4PC7HC6H3C2H3C2H4CH2CHCH2C5HCHCSCHCH4CHC6HC2H4C12H11CHFeCHCHPH2CHC2HC2SHC7PC7HC3HCHCHSH4CH7CFeHC6H5C4HC4HCH2C4HCHPCH2C2H3CHFeS2FeS2FeS2FeSFeS3C2FeCSHC4SC2HC5HC7H4C6H4C4H3C4HCHC6PC12H7FeH10C2H3CHCHC5HCPHCHPHCHCHFeCH2C4H2CHC2H3CHSC2HSH4C3H5C2HCHFeCHCHCH3CHC3HC5SHC4H2CH2C3H2CHCHCSCH2CHFeC2HCHCH2C7H4CHCH3CHSCHCHFeS2FeSCFeS2FeSFeS3HCFeS2FeS2C2HC5HC3H2C3H4C8HCH2CPSC5H3C6H5C2H2C7HCHC2HCHCH2C4HCHFeCH2SH2CHC2H5CHCH3CHCH3C2SHC8PC18H20CHCH2S3C4HCHCH2PC2H6CHC4HSHC2HCHC3HC2H3C2H2C3FeSCHCFeS2HSFeCFeS4FeS2FeS2FeSFeS3FeHSC8H4CHC6HCHC7H3C3HC6H4C4HC5HC2HCHCH2CH3CH2C5HPC10H3C3PH4C7PC16HCHCH16CHC6PC15H9CH7C2H2C5SC3SHCHC4FeCHC4H3C4HC3SCHC6H4FeCH3C6H3CH5CH5C2HCHC3H4CH4PH2CH2CHCHSC3HCHCHCPHCHC2H2CPH3CH2CH5CHCHC2H2C2HCH5CSH4C3H2CHFeSCFeS2FeSFeS4FeS2C2SCFeS2C6H4C4HCHC6H4CH4CHCH3C6H2C2H2C3HCH2C3H3C3HCHC2H3CHC6PHC3HC2HC3PC2PCH7CHC2HC3H3CH4C2HPC2SCHPCHC2H2CSC2HC5HC2H2CHCHC3H2C2HCH6CH3C6H2C5H4CHCH7CFeC2H3C3HC4SHC2H2CFeS2FeS2FeHSFeHSHCFeCS2FeHSCHSC3HC2H3C4HCH2C2H2C3H2CH2CHC6H4C3H3C6H2CSCHSHCH2C2HCH2CH3CHC2FeC4HCHCHCHCH3CH2SHC2H2CH3SHCH2C3PC14HC3HCH2CH15PCSCH2CHCH2SC7H2CH3PCFeC4HCH2CH2C3SC2HCHFeHCH2CHC2HC2HC2H2SHC2HC4H2CHC2FeS3CHCFeSCS2FeCSCPFeS2FeHSH2C2S2C9HCH2C6HCH3C4H4CH3C6H4C2HC2H2C6PC3HC3H2CHC7H5CH4CSC2H6C2H2FeCH4C3HC2H2CH3CHC6PC3HC2HC6HCH2C2HC2PCH7CHSCHCH2C2HC4H4CHC2HC2HCHCH3C6H2FeHCHC5HCFeH2C3HCH4FeH4C6HC6H2CSCSC2H6SHC4SCHSH2CFeS2HFeSCSFeS2FeS2FeSFeHS2HCSH2FeS2C6H4C6H4S2HC6H4CH3C6HC7PC13HC4H16SCH2C6PC19H16CH3C2HCH3CFeHC4HCH4SC6PC7H7CH4C2HC6H2C4HC2HC2HCSC2HC2SH3SCHC3HCHC2H8CPHC4HCHPC3H3CHFeH3C4HSFeS2HCSCFeS2FeS2FeSFeS3FeS2FeS2C2FeH2PC6H4C2SHC2PC3HFeHC6H3C6H4FeCHC10HCHC2H6SH4C8PC2HC2HC3HC2H12SHC2HCH3CHCHC2H2CH2C6HC2HCHPHCSH2C3H2C2HCHSC2H2CHC4HC7H3CHC5PC2H2CH4CH4PH7CHC4H2C4HC3HC2HC2H4C2HC11H2C7H3CH4CHCHC2PC2HC2H2C6HCHPHSCHC4SHC4HC3H3C2SCH2C2HC2FeSCFeS2FeSFeS3HCHSFeS2CHCFeS2HC7HCSC6H3C6H4CHPCSC3H2CHCH2C2HC2HCH2CH2CH2CPC3H4C2HCHC3HC2HC6H2C3H2CHC5H2C2HCH2CPHCHCHCH3C3H2C2H2C2HCH2C2H2CH4CH3C5H2C4HCHCH6C3HCH4C3HSHCHCHC4H2CHCHC3H8CH2C2H2CH2FeC4HCH3CH2FeS2HFeS2FeS2FeSFeS3FeCSH2CSH2C2H2C2HC8H4C6H4C4H3C5H2PC5HCHCH3C4H2PC6HC7HC2HCH6C2HCHCFeC2HC3HFePCH4CHCHCSHCHCH2CH2CHC3HCHCHCH2C2HPH2C7PC13H2CHCH3CH2CH3CH2CH4SH4CH3CH4C3H2CHCHCHCH2SHC4H2CFeS2FeS2FeSFeS3CS2HFeS2HFeSCH3C3HC2H4C3HC6H4C6H3CHCH3C2H2C3H3C5SHCSPC13HC2HC3H4CH6CHC6PC8H2C4H8CH2Fe2H2CHC2H2C7HCH2CH6C2HC3H3CHC2HCHC2HCH2CHCH2PHCH2C6PC19HCH4C2H10C2HC2H2C3PHC3HC3H2CH9C2HC2H2C2HC2H2SH3C2SCHPH2FeS2CFeCHSFeS2HCFeSH2SHFeS2HCHCS2CHC6H3C6H5C7H4C5H3C6PC13H5CH5CH3CH2CH3PHSC3HCHCFeHC5HC2H2C2SHCH2CHC3FeSHCHCHC2HC2H3CHCH2C2H3C5HCH2FeCHC5SFeH4CH4CH3CSFeCH2CFeS2FeSHSCHPFeS2FeHSC2Fe2CSC2HSC2HC2HSC2HSH2C6H4C6H4CH5C2H4C3H2SHSHCHC2HFeHC2H3PCH2CHPFeHC2HC4PC18H2CH16C3H2C4H2C4H2C2H3C2HFeC2HCH2C4HC7H2C3FeHC11SCHCHSHCH3CSC2H2CHCH2C3H2C2H3C2H2CHPHC3
_chemical_formula_sum              "C2160 H1728 Fe144 S288 P72"
_cell_length_a       40.214
_cell_length_b       40.6755
_cell_length_c       80.2004
_cell_angle_alpha    87.9305
_cell_angle_beta     90.9583
_cell_angle_gamma    119.706

_space_group_name_H-M_alt    "P 1"
_space_group_IT_number       1

loop_
  _space_group_symop_operation_xyz
  'x, y, z'

loop_
  _atom_site_type_symbol
  _atom_site_label
  _atom_site_symmetry_multiplicity
  _atom_site_fract_x
  _atom_site_fract_y
  _atom_site_fract_z
  _atom_site_occupancy
  C   C1        1.0  0.16340  0.24823  0.14548  1.0000
  C   C2        1.0  0.35124  0.38644  0.00801  1.0000
  C   C3        1.0  0.37628  0.08575  0.97692  1.0000
  H   H1        1.0  0.16600  0.35663  0.00846  1.0000
  H   H2        1.0  0.26906  0.46222  0.99985  1.0000
  H   H3        1.0  0.00677  0.33003  0.01464  1.0000
  Fe  Fe1       1.0  0.10432  0.46018  0.04567  1.0000
  S   S1        1.0  0.08334  0.41613  0.06752  1.0000
  S   S2        1.0  0.11008  0.44807  0.01910  1.0000
  S   S3        1.0  0.05476  0.14966  0.12381  1.0000
  Fe  Fe2       1.0  0.17063  0.04762  0.09811  1.0000
  S   S4        1.0  0.16101  0.02864  0.12499  1.0000
  S   S5        1.0  0.14879  0.08541  0.08639  1.0000
  H   H4        1.0  0.45616  0.44272  0.99698  1.0000
  Fe  Fe3       1.0  0.22135  0.03868  0.12438  1.0000
  S   S6        1.0  0.26068  0.06428  0.14689  1.0000
  S   S7        1.0  0.23249  0.06114  0.09776  1.0000
  Fe  Fe4       1.0  0.42507  0.26413  0.17988  1.0000
  C   C4        1.0  0.14396  0.24000  0.13026  1.0000
  S   S8        1.0  0.38523  0.23777  0.15767  1.0000
  C   C5        1.0  0.34200  0.47768  0.98573  1.0000
  C   C6        1.0  0.38651  0.46870  0.02536  1.0000
  C   C7        1.0  0.41715  0.08035  0.12587  1.0000
  H   H5        1.0  0.40343  0.46316  0.01671  1.0000
  C   C8        1.0  0.36658  0.36359  0.00383  1.0000
  C   C9        1.0  0.41475  0.10208  0.97200  1.0000
  S   S9        1.0  0.48517  0.27433  0.17819  1.0000
  S   S10       1.0  0.44419  0.32439  0.18693  1.0000
  H   H6        1.0  0.23326  0.12536  0.14694  1.0000
  C   C10       1.0  0.34483  0.48540  0.04772  1.0000
  H   H7        1.0  0.29223  0.44561  0.97024  1.0000
  C   C11       1.0  0.32164  0.26436  0.17990  1.0000
  C   C12       1.0  0.17542  0.20520  0.12243  1.0000
  H   H8        1.0  0.27029  0.27459  0.14813  1.0000
  H   H9        1.0  0.35939  0.05941  0.16944  1.0000
  C   C13       1.0  0.34930  0.46101  0.02116  1.0000
  C   C14       1.0  0.34528  0.07498  0.12278  1.0000
  C   C15       1.0  0.29477  0.11281  0.14967  1.0000
  C   C16       1.0  0.30605  0.13984  0.13657  1.0000
  C   C17       1.0  0.33405  0.17777  0.13926  1.0000
  C   C18       1.0  0.35107  0.18925  0.15500  1.0000
  C   C19       1.0  0.34000  0.16219  0.16808  1.0000
  C   C20       1.0  0.31183  0.12427  0.16542  1.0000
  H   H10       1.0  0.29339  0.13152  0.12435  1.0000
  H   H11       1.0  0.34292  0.19837  0.12903  1.0000
  H   H12       1.0  0.35290  0.17052  0.18025  1.0000
  H   H13       1.0  0.30317  0.10363  0.17564  1.0000
  C   C21       1.0  0.07721  0.12817  0.11317  1.0000
  C   C22       1.0  0.07934  0.12932  0.09575  1.0000
  C   C23       1.0  0.10105  0.11583  0.08776  1.0000
  C   C24       1.0  0.12007  0.10009  0.09705  1.0000
  C   C25       1.0  0.11714  0.09810  0.11448  1.0000
  C   C26       1.0  0.09628  0.11254  0.12246  1.0000
  H   H14       1.0  0.06495  0.14135  0.08846  1.0000
  H   H15       1.0  0.10306  0.11750  0.07430  1.0000
  H   H16       1.0  0.13146  0.08605  0.12185  1.0000
  H   H17       1.0  0.09474  0.11150  0.13591  1.0000
  C   C27       1.0  0.30874  0.28204  0.16834  1.0000
  S   S11       1.0  0.46770  0.40679  0.96923  1.0000
  H   H18       1.0  0.36282  0.05980  0.98446  1.0000
  C   C28       1.0  0.05620  0.36570  0.06729  1.0000
  C   C29       1.0  0.04008  0.34623  0.05266  1.0000
  Fe  Fe5       1.0  0.20997  0.00012  0.09088  1.0000
  H   H19       1.0  0.41521  0.16489  0.20884  1.0000
  C   C30       1.0  0.02811  0.30467  0.08287  1.0000
  C   C31       1.0  0.05012  0.34462  0.08237  1.0000
  H   H20       1.0  0.04453  0.36204  0.04098  1.0000
  C   C32       1.0  0.46144  0.09503  0.16297  1.0000
  H   H21       1.0  0.06250  0.35930  0.09377  1.0000
  C   C33       1.0  0.05081  0.21779  0.04951  1.0000
  H   H22       1.0  0.02141  0.37916  0.16578  1.0000
  C   C34       1.0  0.40273  0.14212  0.20011  1.0000
  H   H23       1.0  0.30122  0.46686  0.02907  1.0000
  H   H24       1.0  0.13389  0.21089  0.10725  1.0000
  C   C35       1.0  0.44722  0.18949  0.14772  1.0000
  H   H25       1.0  0.27375  0.35901  0.00794  1.0000
  S   S12       1.0  0.04172  0.46806  0.99165  1.0000
  H   H26       1.0  0.34323  0.38641  0.02084  1.0000
  H   H27       1.0  0.43941  0.00827  0.98736  1.0000
  C   C36       1.0  0.38171  0.49273  0.05185  1.0000
  C   C37       1.0  0.19686  0.37233  0.00704  1.0000
  H   H28       1.0  0.43156  0.49105  0.04370  1.0000
  C   C38       1.0  0.25800  0.37412  0.00679  1.0000
  C   C39       1.0  0.37160  0.08285  0.17781  1.0000
  C   C40       1.0  0.01181  0.28521  0.06825  1.0000
  C   C41       1.0  0.99909  0.41242  0.17617  1.0000
  P   P1        1.0  0.43412  0.11731  0.15614  1.0000
  H   H29       1.0  0.20366  0.32339  0.01103  1.0000
  C   C42       1.0  0.35763  0.40917  0.97923  1.0000
  H   H30       1.0  0.30079  0.24251  0.12803  1.0000
  C   C43       1.0  0.32889  0.47020  0.03233  1.0000
  C   C44       1.0  0.30482  0.22496  0.18050  1.0000
  H   H31       1.0  0.19956  0.13688  0.11671  1.0000
  H   H32       1.0  0.31587  0.21140  0.18902  1.0000
  C   C45       1.0  0.13574  0.36716  0.11811  1.0000
  C   C46       1.0  0.10373  0.33826  0.12638  1.0000
  C   C47       1.0  0.08533  0.30178  0.12018  1.0000
  C   C48       1.0  0.09857  0.29417  0.10559  1.0000
  C   C49       1.0  0.13045  0.32315  0.09709  1.0000
  C   C50       1.0  0.14932  0.35959  0.10364  1.0000
  P   P2        1.0  0.14912  0.31324  0.07874  1.0000
  C   C51       1.0  0.18299  0.29817  0.08513  1.0000
  C   C52       1.0  0.11027  0.27604  0.06734  1.0000
  C   C53       1.0  0.09589  0.23793  0.07241  1.0000
  C   C54       1.0  0.06644  0.20900  0.06347  1.0000
  C   C55       1.0  0.18266  0.08255  0.15932  1.0000
  C   C56       1.0  0.06475  0.25556  0.04441  1.0000
  C   C57       1.0  0.09425  0.28462  0.05330  1.0000
  C   C58       1.0  0.18878  0.27359  0.07524  1.0000
  C   C59       1.0  0.21426  0.26117  0.08038  1.0000
  C   C60       1.0  0.23474  0.27379  0.09523  1.0000
  C   C61       1.0  0.22975  0.29884  0.10496  1.0000
  C   C62       1.0  0.20397  0.31100  0.09996  1.0000
  C   C63       1.0  0.17253  0.35576  0.06560  1.0000
  C   C64       1.0  0.15592  0.37892  0.06327  1.0000
  C   C65       1.0  0.17399  0.41205  0.05330  1.0000
  C   C66       1.0  0.20886  0.42243  0.04558  1.0000
  C   C67       1.0  0.22550  0.39944  0.04776  1.0000
  C   C68       1.0  0.20741  0.36618  0.05768  1.0000
  H   H33       1.0  0.15005  0.39550  0.12289  1.0000
  H   H34       1.0  0.09317  0.34411  0.13759  1.0000
  H   H35       1.0  0.06062  0.27936  0.12665  1.0000
  H   H36       1.0  0.08363  0.26571  0.10100  1.0000
  H   H37       1.0  0.17451  0.38230  0.09757  1.0000
  H   H38       1.0  0.10717  0.23043  0.08334  1.0000
  C   C69       1.0  0.42275  0.14456  0.18561  1.0000
  H   H39       1.0  0.34536  0.28120  0.18811  1.0000
  H   H40       1.0  0.05180  0.26234  0.03387  1.0000
  H   H41       1.0  0.10380  0.31357  0.04926  1.0000
  H   H42       1.0  0.17339  0.26368  0.06363  1.0000
  H   H43       1.0  0.21788  0.24145  0.07292  1.0000
  H   H44       1.0  0.25414  0.26379  0.09927  1.0000
  H   H45       1.0  0.24540  0.30836  0.11654  1.0000
  H   H46       1.0  0.20031  0.33013  0.10776  1.0000
  H   H47       1.0  0.12895  0.37143  0.06917  1.0000
  H   H48       1.0  0.16090  0.42972  0.05160  1.0000
  H   H49       1.0  0.22280  0.44819  0.03785  1.0000
  H   H50       1.0  0.25235  0.40730  0.04169  1.0000
  H   H51       1.0  0.22080  0.34883  0.05915  1.0000
  C   C70       1.0  0.46355  0.16599  0.14919  1.0000
  C   C71       1.0  0.31885  0.47194  0.97160  1.0000
  H   H52       1.0  0.31755  0.07323  0.12154  1.0000
  H   H53       1.0  0.19215  0.06181  0.15950  1.0000
  H   H54       1.0  0.32518  0.09049  0.97605  1.0000
  S   S13       1.0  0.99879  0.20649  0.11517  1.0000
  H   H55       1.0  0.40388  0.05157  0.10254  1.0000
  C   C72       1.0  0.27695  0.41346  0.00355  1.0000
  C   C73       1.0  0.27905  0.26032  0.15735  1.0000
  H   H56       1.0  0.37065  0.34636  0.01336  1.0000
  Fe  Fe6       1.0  0.43956  0.30277  0.21359  1.0000
  C   C74       1.0  0.34688  0.40962  0.99575  1.0000
  C   C75       1.0  0.21813  0.35370  0.00854  1.0000
  C   C76       1.0  0.40954  0.05855  0.00969  1.0000
  C   C77       1.0  0.46614  0.46318  0.98665  1.0000
  C   C78       1.0  0.42449  0.04898  0.99616  1.0000
  C   C79       1.0  0.36839  0.09242  0.13655  1.0000
  C   C80       1.0  0.14680  0.07285  0.16577  1.0000
  H   H57       1.0  0.15785  0.26396  0.15458  1.0000
  H   H58       1.0  0.35846  0.10456  0.14566  1.0000
  P   P3        1.0  0.44334  0.08070  0.97810  1.0000
  Fe  Fe7       1.0  0.08724  0.48768  0.01219  1.0000
  H   H59       1.0  0.02717  0.19537  0.04291  1.0000
  C   C81       1.0  0.21544  0.41138  0.00380  1.0000
  H   H60       1.0  0.45647  0.24525  0.14135  1.0000
  H   H61       1.0  0.26361  0.17283  0.16994  1.0000
  H   H62       1.0  0.20210  0.23987  0.16142  1.0000
  Fe  Fe8       1.0  0.00326  0.15340  0.11387  1.0000
  C   C82       1.0  0.37276  0.38611  0.97510  1.0000
  H   H63       1.0  0.00547  0.29155  0.04180  1.0000
  H   H64       1.0  0.05526  0.17970  0.06749  1.0000
  C   C83       1.0  0.39472  0.03382  0.02362  1.0000
  H   H65       1.0  0.40930  0.08507  0.00948  1.0000
  C   C84       1.0  0.01787  0.30629  0.05318  1.0000
  C   C85       1.0  0.35788  0.05989  0.11062  1.0000
  H   H66       1.0  0.19900  0.42594  0.00273  1.0000
  C   C86       1.0  0.25528  0.43190  0.00215  1.0000
  C   C87       1.0  0.13460  0.09959  0.16546  1.0000
  C   C88       1.0  0.40704  0.11516  0.17423  1.0000
  C   C89       1.0  0.30174  0.21741  0.10519  1.0000
  C   C90       1.0  0.28207  0.18698  0.09469  1.0000
  C   C91       1.0  0.24526  0.15819  0.09892  1.0000
  C   C92       1.0  0.22817  0.15952  0.11373  1.0000
  C   C93       1.0  0.24782  0.18983  0.12445  1.0000
  C   C94       1.0  0.28469  0.21894  0.11999  1.0000
  P   P4        1.0  0.22482  0.19273  0.14308  1.0000
  C   C95       1.0  0.19528  0.21350  0.13765  1.0000
  C   C96       1.0  0.19417  0.14582  0.15197  1.0000
  C   C97       1.0  0.15008  0.21859  0.11875  1.0000
  C   C98       1.0  0.20600  0.11866  0.15223  1.0000
  C   C99       1.0  0.15828  0.13604  0.15872  1.0000
  H   H67       1.0  0.14800  0.15610  0.15854  1.0000
  C   C100      1.0  0.01381  0.48872  0.98460  1.0000
  C   C101      1.0  0.18873  0.23478  0.14925  1.0000
  C   C102      1.0  0.26168  0.22060  0.15797  1.0000
  H   H68       1.0  0.10655  0.09195  0.17023  1.0000
  P   P5        1.0  0.32857  0.44028  0.00144  1.0000
  C   C103      1.0  0.47441  0.45313  0.97127  1.0000
  H   H69       1.0  0.17824  0.18727  0.11358  1.0000
  C   C104      1.0  0.27509  0.20314  0.16956  1.0000
  H   H70       1.0  0.33055  0.23949  0.10206  1.0000
  H   H71       1.0  0.29536  0.18549  0.08331  1.0000
  H   H72       1.0  0.22984  0.13468  0.09073  1.0000
  Fe  Fe9       1.0  0.47850  0.25621  0.20510  1.0000
  C   C105      1.0  0.00025  0.38822  0.16455  1.0000
  H   H73       1.0  0.44531  0.08307  0.12667  1.0000
  S   S14       1.0  0.41674  0.24193  0.20646  1.0000
  H   H74       1.0  0.01937  0.42225  0.18638  1.0000
  H   H75       1.0  0.35495  0.42690  0.96955  1.0000
  C   C106      1.0  0.40404  0.09432  0.13845  1.0000
  H   H76       1.0  0.12834  0.04447  0.17081  1.0000
  H   H77       1.0  0.01805  0.40272  0.09301  1.0000
  H   H78       1.0  0.45069  0.16924  0.18347  1.0000
  C   C107      1.0  0.39553  0.99983  0.02430  1.0000
  S   S15       1.0  0.07872  0.49745  0.03889  1.0000
  H   H79       1.0  0.12314  0.24899  0.12759  1.0000
  C   C108      1.0  0.39393  0.06281  0.11211  1.0000
  H   H80       1.0  0.41745  0.17879  0.15093  1.0000
  C   C109      1.0  0.40257  0.48444  0.04066  1.0000
  H   H81       1.0  0.32240  0.31265  0.16769  1.0000
  H   H82       1.0  0.38267  0.04094  0.03396  1.0000
  H   H83       1.0  0.32944  0.49353  0.05608  1.0000
  H   H84       1.0  0.39033  0.34664  0.98418  1.0000
  C   C110      1.0  0.35157  0.08059  0.19229  1.0000
  H   H85       1.0  0.33981  0.04627  0.09998  1.0000
  H   H86       1.0  0.02356  0.28896  0.09456  1.0000
  C   C111      1.0  0.36704  0.11030  0.20340  1.0000
  H   H87       1.0  0.47878  0.16058  0.98806  1.0000
  H   H88       1.0  0.32391  0.05588  0.19482  1.0000
  H   H89       1.0  0.01760  0.38705  0.99795  1.0000
  C   C112      1.0  0.35468  0.10285  0.97202  1.0000
  C   C113      1.0  0.46927  0.22721  0.14220  1.0000
  H   H90       1.0  0.42100  0.03974  0.15376  1.0000
  C   C114      1.0  0.37744  0.36353  0.98739  1.0000
  C   C115      1.0  0.44767  0.05644  0.16029  1.0000
  C   C116      1.0  0.42641  0.01546  0.99723  1.0000
  H   H91       1.0  0.40280  0.36557  0.21384  1.0000
  C   C117      1.0  0.49150  0.11560  0.98368  1.0000
  H   H92       1.0  0.35152  0.10861  0.21459  1.0000
  H   H93       1.0  0.45749  0.00918  0.16408  1.0000
  H   H94       1.0  0.12960  0.00134  0.04802  1.0000
  C   C118      1.0  0.46804  0.03884  0.16630  1.0000
  Fe  Fe10      1.0  0.06064  0.21222  0.35219  1.0000
  S   S16       1.0  0.07979  0.21958  0.37899  1.0000
  S   S17       1.0  0.08793  0.25670  0.33115  1.0000
  Fe  Fe11      1.0  0.06845  0.15945  0.37784  1.0000
  S   S18       1.0  0.10648  0.13749  0.38921  1.0000
  C   C119      1.0  0.47789  0.38076  0.40659  1.0000
  S   S19       1.0  0.05341  0.15391  0.35067  1.0000
  H   H95       1.0  0.37712  0.40897  0.21840  1.0000
  H   H96       1.0  0.14805  0.29073  0.26362  1.0000
  H   H97       1.0  0.42932  0.28951  0.42074  1.0000
  Fe  Fe12      1.0  0.99313  0.13200  0.35958  1.0000
  C   C120      1.0  0.18970  0.03562  0.41313  1.0000
  H   H98       1.0  0.26250  0.36895  0.24686  1.0000
  H   H99       1.0  0.20407  0.19094  0.27091  1.0000
  Fe  Fe13      1.0  0.45282  0.10633  0.41018  1.0000
  S   S20       1.0  0.40363  0.08212  0.39155  1.0000
  S   S21       1.0  0.44462  0.11417  0.43700  1.0000
  Fe  Fe14      1.0  0.32828  0.44607  0.26964  1.0000
  S   S22       1.0  0.34984  0.45297  0.29608  1.0000
  C   C121      1.0  0.36832  0.39676  0.24485  1.0000
  Fe  Fe15      1.0  0.27467  0.47798  0.27757  1.0000
  S   S23       1.0  0.00766  0.13501  0.38668  1.0000
  C   C122      1.0  0.43381  0.07562  0.35174  1.0000
  H   H100      1.0  0.19308  0.34809  0.24698  1.0000
  Fe  Fe16      1.0  0.28770  0.42879  0.30335  1.0000
  S   S24       1.0  0.26337  0.38570  0.32508  1.0000
  H   H101      1.0  0.48006  0.33060  0.40096  1.0000
  S   S25       1.0  0.26598  0.41885  0.27699  1.0000
  H   H102      1.0  0.15348  0.22922  0.32991  1.0000
  C   C123      1.0  0.38647  0.35097  0.25560  1.0000
  C   C124      1.0  0.37193  0.37569  0.25826  1.0000
  H   H103      1.0  0.38885  0.33465  0.26603  1.0000
  H   H104      1.0  0.36332  0.37827  0.27063  1.0000
  H   H105      1.0  0.02245  0.01570  0.38869  1.0000
  C   C125      1.0  0.35475  0.05112  0.39646  1.0000
  C   C126      1.0  0.32762  0.04025  0.38358  1.0000
  C   C127      1.0  0.21782  0.20075  0.30585  1.0000
  S   S26       1.0  0.34959  0.42807  0.24716  1.0000
  C   C128      1.0  0.34229  0.03740  0.41274  1.0000
  H   H106      1.0  0.33706  0.05042  0.37095  1.0000
  H   H107      1.0  0.41940  0.00367  0.43151  1.0000
  H   H108      1.0  0.36290  0.04547  0.42278  1.0000
  C   C129      1.0  0.10989  0.10159  0.37867  1.0000
  C   C130      1.0  0.11979  0.07718  0.38753  1.0000
  C   C131      1.0  0.12492  0.05006  0.37915  1.0000
  C   C132      1.0  0.12051  0.04745  0.36179  1.0000
  C   C133      1.0  0.11037  0.07166  0.35303  1.0000
  C   C134      1.0  0.10482  0.09832  0.36141  1.0000
  H   H109      1.0  0.12372  0.07942  0.40089  1.0000
  H   H110      1.0  0.13289  0.03170  0.38605  1.0000
  H   H111      1.0  0.10685  0.06985  0.33963  1.0000
  H   H112      1.0  0.09743  0.11689  0.35440  1.0000
  C   C135      1.0  0.13692  0.29214  0.32971  1.0000
  C   C136      1.0  0.16300  0.29739  0.34252  1.0000
  C   C137      1.0  0.20165  0.32594  0.34085  1.0000
  C   C138      1.0  0.21458  0.34974  0.32646  1.0000
  C   C139      1.0  0.18858  0.34431  0.31361  1.0000
  C   C140      1.0  0.14998  0.31565  0.31524  1.0000
  H   H113      1.0  0.15336  0.27951  0.35371  1.0000
  H   H114      1.0  0.22158  0.32987  0.35083  1.0000
  H   H115      1.0  0.19813  0.36228  0.30244  1.0000
  H   H116      1.0  0.13007  0.31178  0.30525  1.0000
  H   H117      1.0  0.33287  0.38171  0.31592  1.0000
  C   C141      1.0  0.27584  0.00211  0.40310  1.0000
  C   C142      1.0  0.39890  0.20481  0.46031  1.0000
  C   C143      1.0  0.17594  0.43335  0.42824  1.0000
  H   H118      1.0  0.31840  0.20450  0.39765  1.0000
  H   H119      1.0  0.42384  0.23162  0.25354  1.0000
  C   C144      1.0  0.41898  0.33392  0.42902  1.0000
  H   H120      1.0  0.20023  0.44619  0.41981  1.0000
  H   H121      1.0  0.37984  0.23078  0.41262  1.0000
  C   C145      1.0  0.33635  0.28235  0.41254  1.0000
  H   H122      1.0  0.30336  0.26582  0.38983  1.0000
  C   C146      1.0  0.17482  0.05117  0.42400  1.0000
  C   C147      1.0  0.44927  0.47773  0.45838  1.0000
  C   C148      1.0  0.02512  0.27678  0.45720  1.0000
  H   H123      1.0  0.44778  0.45925  0.43344  1.0000
  C   C149      1.0  0.21864  0.23495  0.30152  1.0000
  C   C150      1.0  0.35616  0.22633  0.44940  1.0000
  H   H124      1.0  0.29369  0.00219  0.42861  1.0000
  C   C151      1.0  0.18797  0.09007  0.42322  1.0000
  C   C152      1.0  0.32308  0.28974  0.29832  1.0000
  H   H125      1.0  0.49146  0.34287  0.27874  1.0000
  C   C153      1.0  0.19215  0.27967  0.27308  1.0000
  H   H126      1.0  0.27903  0.19150  0.23323  1.0000
  H   H127      1.0  0.00885  0.09396  0.41802  1.0000
  H   H128      1.0  0.40439  0.18198  0.46392  1.0000
  H   H129      1.0  0.31562  0.28882  0.26302  1.0000
  C   C154      1.0  0.29966  0.26902  0.43803  1.0000
  H   H130      1.0  0.19803  0.27291  0.30835  1.0000
  H   H131      1.0  0.32807  0.21929  0.44479  1.0000
  C   C155      1.0  0.16984  0.18675  0.32699  1.0000
  H   H132      1.0  0.29910  0.24455  0.35145  1.0000
  C   C156      1.0  0.99824  0.43843  0.42120  1.0000
  H   H133      1.0  0.38608  0.36774  0.31934  1.0000
  H   H134      1.0  0.15044  0.16788  0.33661  1.0000
  C   C157      1.0  0.20367  0.33217  0.25421  1.0000
  H   H135      1.0  0.36329  0.29340  0.40600  1.0000
  C   C158      1.0  0.26710  0.25181  0.41138  1.0000
  C   C159      1.0  0.01611  0.46135  0.26877  1.0000
  C   C160      1.0  0.19332  0.17667  0.31848  1.0000
  C   C161      1.0  0.30238  0.26656  0.40330  1.0000
  C   C162      1.0  0.19644  0.24576  0.31077  1.0000
  C   C163      1.0  0.47718  0.23149  0.28695  1.0000
  H   H136      1.0  0.02333  0.44377  0.27677  1.0000
  C   C164      1.0  0.39766  0.34694  0.23957  1.0000
  H   H137      1.0  0.32819  0.25669  0.24063  1.0000
  H   H138      1.0  0.41681  0.38501  0.43391  1.0000
  C   C165      1.0  0.48433  0.07739  0.36916  1.0000
  C   C166      1.0  0.01659  0.05711  0.40191  1.0000
  C   C167      1.0  0.36026  0.34822  0.31285  1.0000
  C   C168      1.0  0.00860  0.38922  0.41067  1.0000
  C   C169      1.0  0.17837  0.29998  0.26363  1.0000
  C   C170      1.0  0.27366  0.20533  0.24330  1.0000
  H   H139      1.0  0.37957  0.30852  0.30829  1.0000
  H   H140      1.0  0.00034  0.36643  0.40211  1.0000
  C   C171      1.0  0.29722  0.33151  0.30230  1.0000
  C   C172      1.0  0.26576  0.25309  0.42874  1.0000
  C   C173      1.0  0.21568  0.11335  0.41145  1.0000
  C   C174      1.0  0.22952  0.09766  0.39999  1.0000
  C   C175      1.0  0.21701  0.05871  0.40117  1.0000
  P   P6        1.0  0.26621  0.12812  0.38523  1.0000
  C   C176      1.0  0.25621  0.16330  0.37568  1.0000
  C   C177      1.0  0.31062  0.14796  0.39676  1.0000
  C   C178      1.0  0.33000  0.18622  0.40097  1.0000
  C   C179      1.0  0.36472  0.20120  0.40962  1.0000
  C   C180      1.0  0.38003  0.17804  0.41440  1.0000
  C   C181      1.0  0.36016  0.13962  0.41081  1.0000
  C   C182      1.0  0.32536  0.12450  0.40221  1.0000
  C   C183      1.0  0.28492  0.19433  0.36660  1.0000
  C   C184      1.0  0.21900  0.15821  0.37585  1.0000
  C   C185      1.0  0.26675  0.10130  0.36790  1.0000
  C   C186      1.0  0.23278  0.07949  0.35905  1.0000
  C   C187      1.0  0.23280  0.05971  0.34516  1.0000
  C   C188      1.0  0.26660  0.06125  0.34008  1.0000
  C   C189      1.0  0.30067  0.08333  0.34867  1.0000
  C   C190      1.0  0.30091  0.10361  0.36244  1.0000
  H   H141      1.0  0.15325  0.03311  0.43306  1.0000
  C   C191      1.0  0.43037  0.37256  0.42699  1.0000
  H   H142      1.0  0.22595  0.14352  0.41114  1.0000
  H   H143      1.0  0.22836  0.04604  0.39296  1.0000
  H   H144      1.0  0.40722  0.18975  0.42095  1.0000
  H   H145      1.0  0.37199  0.12159  0.41452  1.0000
  H   H146      1.0  0.31026  0.09459  0.39960  1.0000
  H   H147      1.0  0.31331  0.19777  0.36558  1.0000
  H   H148      1.0  0.19566  0.13343  0.38181  1.0000
  H   H149      1.0  0.20620  0.07775  0.36286  1.0000
  H   H150      1.0  0.20635  0.04272  0.33847  1.0000
  C   C192      1.0  0.23875  0.18697  0.25187  1.0000
  H   H151      1.0  0.32693  0.08463  0.34471  1.0000
  H   H152      1.0  0.32781  0.12095  0.36868  1.0000
  H   H153      1.0  0.42049  0.19178  0.27839  1.0000
  C   C193      1.0  0.37974  0.39287  0.22887  1.0000
  H   H154      1.0  0.21064  0.45296  0.45025  1.0000
  H   H155      1.0  0.23609  0.19263  0.29952  1.0000
  Fe  Fe17      1.0  0.01678  0.19421  0.38494  1.0000
  C   C194      1.0  0.21116  0.18476  0.36788  1.0000
  C   C195      1.0  0.11342  0.39950  0.45007  1.0000
  C   C196      1.0  0.24012  0.21609  0.35925  1.0000
  S   S27       1.0  0.41479  0.31447  0.23690  1.0000
  C   C197      1.0  0.07454  0.36349  0.37447  1.0000
  C   C198      1.0  0.07089  0.32774  0.37296  1.0000
  C   C199      1.0  0.06287  0.30387  0.38705  1.0000
  C   C200      1.0  0.05832  0.31542  0.40264  1.0000
  C   C201      1.0  0.06172  0.35118  0.40430  1.0000
  C   C202      1.0  0.07021  0.37528  0.39007  1.0000
  P   P7        1.0  0.05923  0.36785  0.42464  1.0000
  C   C203      1.0  0.03680  0.39679  0.42284  1.0000
  C   C204      1.0  0.03117  0.32879  0.43910  1.0000
  C   C205      1.0  0.17160  0.22137  0.32322  1.0000
  H   H156      1.0  0.47225  0.02528  0.38174  1.0000
  H   H157      1.0  0.24079  0.23954  0.40419  1.0000
  H   H158      1.0  0.38178  0.02251  0.35092  1.0000
  C   C206      1.0  0.04657  0.30697  0.44598  1.0000
  C   C207      1.0  0.04498  0.42494  0.43439  1.0000
  C   C208      1.0  0.37486  0.32802  0.45943  1.0000
  C   C209      1.0  0.33046  0.35630  0.31082  1.0000
  C   C210      1.0  0.39437  0.36825  0.22623  1.0000
  C   C211      1.0  0.41045  0.03716  0.35591  1.0000
  C   C212      1.0  0.10723  0.39528  0.43278  1.0000
  C   C213      1.0  0.13884  0.41255  0.42192  1.0000
  H   H159      1.0  0.08084  0.38205  0.36353  1.0000
  H   H160      1.0  0.07418  0.31841  0.36089  1.0000
  H   H161      1.0  0.05926  0.27589  0.38586  1.0000
  H   H162      1.0  0.05155  0.29591  0.41321  1.0000
  H   H163      1.0  0.07372  0.40331  0.39103  1.0000
  C   C214      1.0  0.02550  0.44545  0.43363  1.0000
  H   H164      1.0  0.32040  0.26376  0.29381  1.0000
  H   H165      1.0  0.99810  0.41827  0.22650  1.0000
  H   H166      1.0  0.46335  0.38237  0.26965  1.0000
  H   H167      1.0  0.07499  0.31297  0.44246  1.0000
  H   H168      1.0  0.06563  0.43051  0.44422  1.0000
  H   H169      1.0  0.28720  0.33434  0.26386  1.0000
  H   H170      1.0  0.18231  0.18057  0.36821  1.0000
  C   C215      1.0  0.35655  0.31490  0.30664  1.0000
  C   C216      1.0  0.36278  0.19681  0.45452  1.0000
  H   H171      1.0  0.13517  0.40981  0.40856  1.0000
  C   C217      1.0  0.42196  0.27192  0.45595  1.0000
  C   C218      1.0  0.18182  0.43718  0.44541  1.0000
  P   P8        1.0  0.37874  0.30254  0.44219  1.0000
  H   H172      1.0  0.44540  0.30079  0.45635  1.0000
  H   H173      1.0  0.17191  0.25420  0.27985  1.0000
  C   C219      1.0  0.30138  0.24195  0.24749  1.0000
  C   C220      1.0  0.38586  0.26415  0.44993  1.0000
  H   H174      1.0  0.26626  0.04524  0.32950  1.0000
  C   C221      1.0  0.27692  0.22072  0.35850  1.0000
  H   H175      1.0  0.03089  0.46630  0.44288  1.0000
  H   H176      1.0  0.23379  0.23635  0.35288  1.0000
  H   H177      1.0  0.17654  0.10220  0.43168  1.0000
  H   H178      1.0  0.03688  0.25957  0.46215  1.0000
  H   H179      1.0  0.19233  0.15005  0.32165  1.0000
  C   C222      1.0  0.46468  0.46929  0.44465  1.0000
  H   H180      1.0  0.34007  0.16764  0.45375  1.0000
  H   H181      1.0  0.27434  0.33823  0.30091  1.0000
  C   C223      1.0  0.23172  0.20504  0.26477  1.0000
  C   C224      1.0  0.26002  0.24126  0.26947  1.0000
  C   C225      1.0  0.29437  0.26000  0.26036  1.0000
  P   P9        1.0  0.25020  0.26606  0.28517  1.0000
  C   C226      1.0  0.29353  0.29832  0.29579  1.0000
  C   C227      1.0  0.23160  0.29230  0.27361  1.0000
  C   C228      1.0  0.25672  0.32439  0.26394  1.0000
  C   C229      1.0  0.24275  0.34401  0.25417  1.0000
  H   H182      1.0  0.23838  0.24178  0.43500  1.0000
  C   C230      1.0  0.01154  0.02102  0.39992  1.0000
  C   C231      1.0  0.44612  0.21876  0.27599  1.0000
  H   H183      1.0  0.21692  0.15892  0.24836  1.0000
  S   S28       1.0  0.29219  0.48606  0.30444  1.0000
  C   C232      1.0  0.48820  0.01591  0.46045  1.0000
  H   H184      1.0  0.29118  0.49824  0.44731  1.0000
  H   H185      1.0  0.35124  0.35677  0.44430  1.0000
  H   H186      1.0  0.47553  0.21439  0.29791  1.0000
  C   C233      1.0  0.47061  0.09577  0.35844  1.0000
  C   C234      1.0  0.46622  0.34231  0.40829  1.0000
  H   H187      1.0  0.08955  0.38657  0.45871  1.0000
  H   H188      1.0  0.29808  0.26955  0.45149  1.0000
  S   S29       1.0  0.47814  0.05304  0.46309  1.0000
  C   C235      1.0  0.44799  0.24103  0.26199  1.0000
  S   S30       1.0  0.23413  0.49568  0.26541  1.0000
  C   C236      1.0  0.33524  0.28374  0.43000  1.0000
  S   S31       1.0  0.40284  0.47238  0.45679  1.0000
  C   C237      1.0  0.45983  0.39583  0.41586  1.0000
  C   C238      1.0  0.15064  0.42044  0.45634  1.0000
  C   C239      1.0  0.43725  0.31905  0.41954  1.0000
  H   H189      1.0  0.03081  0.07857  0.39219  1.0000
  C   C240      1.0  0.36018  0.35270  0.45666  1.0000
  C   C241      1.0  0.42829  0.24234  0.46120  1.0000
  C   C242      1.0  0.28837  0.01623  0.38687  1.0000
  C   C243      1.0  0.42380  0.01857  0.36689  1.0000
  Fe  Fe18      1.0  0.48813  0.09540  0.44200  1.0000
  C   C244      1.0  0.30300  0.01295  0.41601  1.0000
  C   C245      1.0  0.99422  0.32033  0.44390  1.0000
  H   H190      1.0  0.46861  0.42557  0.41432  1.0000
  S   S32       1.0  0.12895  0.01585  0.35030  1.0000
  H   H191      1.0  0.26801  0.00817  0.37677  1.0000
  C   C246      1.0  0.46116  0.03891  0.37330  1.0000
  H   H192      1.0  0.42293  0.09012  0.34372  1.0000
  C   C247      1.0  0.48094  0.27586  0.25887  1.0000
  H   H193      1.0  0.18018  0.00562  0.41396  1.0000
  H   H194      1.0  0.13598  0.48440  0.43388  1.0000
  H   H195      1.0  0.49088  0.42772  0.24569  1.0000
  H   H196      1.0  0.48130  0.29314  0.24823  1.0000
  C   C248      1.0  0.00385  0.06554  0.41639  1.0000
  H   H197      1.0  0.40347  0.01142  0.40228  1.0000
  H   H198      1.0  0.49093  0.37582  0.45043  1.0000
  C   C249      1.0  0.48876  0.38589  0.26352  1.0000
  S   S33       1.0  0.99814  0.18973  0.35822  1.0000
  H   H199      1.0  0.48823  0.12582  0.35563  1.0000
  H   H200      1.0  0.03462  0.34488  0.54412  1.0000
  C   C250      1.0  0.01218  0.24189  0.59574  1.0000
  H   H201      1.0  0.18279  0.35935  0.48263  1.0000
  Fe  Fe19      1.0  0.44170  0.11990  0.68257  1.0000
  S   S34       1.0  0.44476  0.10260  0.65664  1.0000
  H   H202      1.0  0.15560  0.42362  0.46967  1.0000
  H   H203      1.0  0.31634  0.22898  0.66597  1.0000
  Fe  Fe20      1.0  0.42505  0.14383  0.64837  1.0000
  S   S35       1.0  0.38133  0.12514  0.62732  1.0000
  C   C251      1.0  0.47138  0.49090  0.47281  1.0000
  S   S36       1.0  0.41824  0.15817  0.67448  1.0000
  C   C252      1.0  0.14919  0.36794  0.50085  1.0000
  H   H204      1.0  0.05782  0.23945  0.53119  1.0000
  H   H205      1.0  0.04066  0.42980  0.47321  1.0000
  H   H206      1.0  0.24015  0.40635  0.52856  1.0000
  C   C253      1.0  0.32514  0.05575  0.67747  1.0000
  H   H207      1.0  0.25351  0.09364  0.64600  1.0000
  Fe  Fe21      1.0  0.33985  0.44918  0.51334  1.0000
  S   S37       1.0  0.33229  0.40793  0.53482  1.0000
  S   S38       1.0  0.31591  0.43352  0.48756  1.0000
  Fe  Fe22      1.0  0.21863  0.16406  0.59340  1.0000
  S   S39       1.0  0.23019  0.15251  0.56756  1.0000
  S   S40       1.0  0.25838  0.17924  0.61587  1.0000
  Fe  Fe23      1.0  0.13953  0.15249  0.58357  1.0000
  S   S41       1.0  0.14510  0.13925  0.55729  1.0000
  S   S42       1.0  0.08784  0.15369  0.59371  1.0000
  Fe  Fe24      1.0  0.16923  0.10415  0.56869  1.0000
  S   S43       1.0  0.15444  0.04691  0.55856  1.0000
  Fe  Fe25      1.0  0.20512  0.18879  0.55853  1.0000
  S   S44       1.0  0.22441  0.22859  0.53555  1.0000
  S   S45       1.0  0.15928  0.11374  0.59507  1.0000
  S   S46       1.0  0.19806  0.20411  0.58434  1.0000
  C   C254      1.0  0.30168  0.35819  0.53477  1.0000
  C   C255      1.0  0.28179  0.33969  0.52048  1.0000
  C   C256      1.0  0.25830  0.29999  0.52092  1.0000
  C   C257      1.0  0.25410  0.27846  0.53567  1.0000
  C   C258      1.0  0.27381  0.29700  0.54997  1.0000
  C   C259      1.0  0.29761  0.33666  0.54950  1.0000
  H   H208      1.0  0.28495  0.35584  0.50903  1.0000
  H   H209      1.0  0.24331  0.28582  0.50977  1.0000
  H   H210      1.0  0.27114  0.28060  0.56128  1.0000
  H   H211      1.0  0.31324  0.35069  0.56055  1.0000
  C   C260      1.0  0.04855  0.14776  0.56412  1.0000
  C   C261      1.0  0.04636  0.13915  0.58128  1.0000
  C   C262      1.0  0.46741  0.00707  0.69742  1.0000
  H   H212      1.0  0.07604  0.16123  0.55791  1.0000
  C   C263      1.0  0.03064  0.28140  0.59342  1.0000
  C   C264      1.0  0.31306  0.03718  0.69301  1.0000
  S   S47       1.0  0.48496  0.19312  0.64515  1.0000
  H   H213      1.0  0.01392  0.30576  0.65244  1.0000
  C   C265      1.0  0.30521  0.03820  0.66307  1.0000
  H   H214      1.0  0.13059  0.49502  0.55221  1.0000
  H   H215      1.0  0.35944  0.18611  0.70514  1.0000
  C   C266      1.0  0.30031  0.08692  0.55580  1.0000
  C   C267      1.0  0.34697  0.14000  0.62442  1.0000
  C   C268      1.0  0.33872  0.15785  0.63697  1.0000
  C   C269      1.0  0.31110  0.16911  0.63422  1.0000
  C   C270      1.0  0.29165  0.16294  0.61891  1.0000
  C   C271      1.0  0.29949  0.14456  0.60645  1.0000
  C   C272      1.0  0.32699  0.13309  0.60921  1.0000
  H   H216      1.0  0.35366  0.16307  0.64876  1.0000
  H   H217      1.0  0.30456  0.18235  0.64408  1.0000
  H   H218      1.0  0.28456  0.13941  0.59465  1.0000
  H   H219      1.0  0.33306  0.11919  0.59943  1.0000
  H   H220      1.0  0.38582  0.02541  0.68001  1.0000
  S   S48       1.0  0.31964  0.49126  0.51610  1.0000
  C   C273      1.0  0.47166  0.38133  0.67122  1.0000
  H   H221      1.0  0.43795  0.21391  0.62131  1.0000
  H   H222      1.0  0.32189  0.36292  0.64984  1.0000
  C   C274      1.0  0.24826  0.05448  0.62739  1.0000
  H   H223      1.0  0.01232  0.19098  0.58889  1.0000
  C   C275      1.0  0.14084  0.33483  0.61791  1.0000
  H   H224      1.0  0.24492  0.48879  0.51727  1.0000
  H   H225      1.0  0.22509  0.05918  0.58208  1.0000
  S   S49       1.0  0.07141  0.43160  0.70958  1.0000
  H   H226      1.0  0.13236  0.40855  0.58393  1.0000
  H   H227      1.0  0.45994  0.49747  0.48347  1.0000
  H   H228      1.0  0.11035  0.32450  0.61695  1.0000
  C   C276      1.0  0.17498  0.04420  0.62187  1.0000
  H   H229      1.0  0.40705  0.21259  0.59424  1.0000
  H   H230      1.0  0.34073  0.06672  0.55694  1.0000
  H   H231      1.0  0.02171  0.27249  0.62887  1.0000
  C   C277      1.0  0.18216  0.36870  0.49504  1.0000
  Fe  Fe26      1.0  0.37361  0.48073  0.47899  1.0000
  C   C278      1.0  0.09233  0.43879  0.48566  1.0000
  C   C279      1.0  0.10800  0.42539  0.49802  1.0000
  C   C280      1.0  0.08441  0.39237  0.50752  1.0000
  C   C281      1.0  0.04494  0.37237  0.50412  1.0000
  P   P10       1.0  0.10507  0.37768  0.52444  1.0000
  C   C282      1.0  0.14850  0.38048  0.51687  1.0000
  C   C283      1.0  0.11574  0.40804  0.54201  1.0000
  C   C284      1.0  0.12087  0.39550  0.55789  1.0000
  C   C285      1.0  0.40207  0.23121  0.68971  1.0000
  C   C286      1.0  0.34006  0.02046  0.62510  1.0000
  C   C287      1.0  0.25065  0.06084  0.57693  1.0000
  C   C288      1.0  0.11939  0.44416  0.54008  1.0000
  H   H232      1.0  0.36586  0.38358  0.49607  1.0000
  C   C289      1.0  0.02053  0.25533  0.54310  1.0000
  C   C290      1.0  0.18817  0.02470  0.61244  1.0000
  C   C291      1.0  0.05273  0.26256  0.53384  1.0000
  C   C292      1.0  0.18156  0.39446  0.52684  1.0000
  C   C293      1.0  0.07207  0.32955  0.53159  1.0000
  C   C294      1.0  0.12757  0.46704  0.55386  1.0000
  H   H233      1.0  0.22381  0.35042  0.54978  1.0000
  H   H234      1.0  0.19361  0.40267  0.58304  1.0000
  H   H235      1.0  0.01489  0.18998  0.62173  1.0000
  C   C295      1.0  0.07843  0.29947  0.52810  1.0000
  C   C296      1.0  0.29841  0.04106  0.57645  1.0000
  H   H236      1.0  0.13844  0.44140  0.50055  1.0000
  H   H237      1.0  0.32926  0.05060  0.70410  1.0000
  H   H238      1.0  0.11925  0.36822  0.55950  1.0000
  C   C297      1.0  0.19838  0.35846  0.63460  1.0000
  C   C298      1.0  0.13204  0.45415  0.56965  1.0000
  H   H239      1.0  0.35040  0.08349  0.67657  1.0000
  H   H240      1.0  0.11627  0.45522  0.52806  1.0000
  H   H241      1.0  0.12422  0.35743  0.49288  1.0000
  H   H242      1.0  0.21254  0.36678  0.64657  1.0000
  C   C299      1.0  0.38248  0.34316  0.48883  1.0000
  H   H243      1.0  0.24010  0.38257  0.50065  1.0000
  H   H244      1.0  0.18233  0.40511  0.53906  1.0000
  C   C300      1.0  0.15908  0.34529  0.63336  1.0000
  H   H245      1.0  0.41924  0.33210  0.67882  1.0000
  C   C301      1.0  0.27723  0.41635  0.56657  1.0000
  H   H246      1.0  0.10316  0.30420  0.52102  1.0000
  H   H247      1.0  0.18874  0.08505  0.64089  1.0000
  C   C302      1.0  0.43852  0.34681  0.66848  1.0000
  C   C303      1.0  0.27301  0.00198  0.66419  1.0000
  C   C304      1.0  0.20275  0.32315  0.55500  1.0000
  C   C305      1.0  0.03991  0.32208  0.54114  1.0000
  C   C306      1.0  0.23139  0.45011  0.56738  1.0000
  H   H248      1.0  0.27725  0.06033  0.62931  1.0000
  C   C307      1.0  0.16190  0.33754  0.60371  1.0000
  H   H249      1.0  0.02452  0.39919  0.68072  1.0000
  C   C308      1.0  0.33389  0.20516  0.68605  1.0000
  S   S50       1.0  0.24230  0.47254  0.48193  1.0000
  C   C309      1.0  0.12865  0.41834  0.57168  1.0000
  H   H250      1.0  0.46571  0.05348  0.68436  1.0000
  C   C310      1.0  0.01511  0.13985  0.55508  1.0000
  H   H251      1.0  0.30516  0.40755  0.59849  1.0000
  H   H252      1.0  0.21364  0.46327  0.56753  1.0000
  H   H253      1.0  0.45957  0.40024  0.46887  1.0000
  H   H254      1.0  0.36951  0.24574  0.59055  1.0000
  C   C311      1.0  0.23490  0.07372  0.63689  1.0000
  H   H255      1.0  0.21574  0.04233  0.53741  1.0000
  C   C312      1.0  0.31389  0.02739  0.61618  1.0000
  C   C313      1.0  0.31559  0.06509  0.56253  1.0000
  C   C314      1.0  0.37772  0.01085  0.69207  1.0000
  C   C315      1.0  0.19843  0.06888  0.63402  1.0000
  C   C316      1.0  0.21463  0.38202  0.50515  1.0000
  C   C317      1.0  0.36459  0.20565  0.69467  1.0000
  H   H256      1.0  0.25532  0.10080  0.55753  1.0000
  C   C318      1.0  0.48907  0.38575  0.64216  1.0000
  C   C319      1.0  0.35728  0.37282  0.46979  1.0000
  H   H257      1.0  0.36100  0.40071  0.60644  1.0000
  H   H258      1.0  0.02590  0.34680  0.51112  1.0000
  H   H259      1.0  0.29497  0.40336  0.56570  1.0000
  H   H260      1.0  0.31026  0.02385  0.58127  1.0000
  C   C320      1.0  0.02940  0.38566  0.49162  1.0000
  C   C321      1.0  0.18126  0.29389  0.54412  1.0000
  C   C322      1.0  0.15588  0.25756  0.55045  1.0000
  C   C323      1.0  0.15143  0.25064  0.56767  1.0000
  C   C324      1.0  0.17244  0.27993  0.57860  1.0000
  C   C325      1.0  0.19828  0.31651  0.57235  1.0000
  C   C326      1.0  0.26910  0.34854  0.59258  1.0000
  C   C327      1.0  0.30303  0.38000  0.59797  1.0000
  C   C328      1.0  0.33472  0.37622  0.60255  1.0000
  C   C329      1.0  0.33273  0.34100  0.60191  1.0000
  C   C330      1.0  0.29892  0.30945  0.59683  1.0000
  C   C331      1.0  0.26718  0.31314  0.59228  1.0000
  H   H261      1.0  0.18584  0.29889  0.53078  1.0000
  H   H262      1.0  0.14083  0.23441  0.54203  1.0000
  H   H263      1.0  0.13267  0.22214  0.57256  1.0000
  H   H264      1.0  0.16943  0.27356  0.59191  1.0000
  H   H265      1.0  0.27434  0.49419  0.55149  1.0000
  H   H266      1.0  0.35734  0.33814  0.60538  1.0000
  H   H267      1.0  0.29721  0.28201  0.59636  1.0000
  H   H268      1.0  0.24151  0.28834  0.58827  1.0000
  H   H269      1.0  0.14757  0.32976  0.59182  1.0000
  H   H270      1.0  0.31518  0.05277  0.65107  1.0000
  H   H271      1.0  0.24982  0.37135  0.62169  1.0000
  C   C332      1.0  0.26560  0.46764  0.55833  1.0000
  H   H272      1.0  0.15882  0.03199  0.52131  1.0000
  Fe  Fe27      1.0  0.47985  0.20455  0.67185  1.0000
  C   C333      1.0  0.20127  0.35029  0.60487  1.0000
  H   H273      1.0  0.14282  0.34327  0.64437  1.0000
  C   C334      1.0  0.21944  0.36097  0.62042  1.0000
  H   H274      1.0  0.36843  0.04381  0.62769  1.0000
  P   P11       1.0  0.22820  0.35348  0.58646  1.0000
  H   H275      1.0  0.13834  0.47213  0.58025  1.0000
  H   H276      1.0  0.11061  0.46498  0.47876  1.0000
  C   C335      1.0  0.01053  0.12178  0.58915  1.0000
  H   H277      1.0  0.31352  0.10550  0.54500  1.0000
  C   C336      1.0  0.22019  0.41579  0.57616  1.0000
  C   C337      1.0  0.24320  0.39873  0.57588  1.0000
  H   H278      1.0  0.47820  0.39282  0.68358  1.0000
  C   C338      1.0  0.28857  0.45083  0.55803  1.0000
  C   C339      1.0  0.26617  0.03925  0.58394  1.0000
  S   S51       1.0  0.42091  0.08144  0.70601  1.0000
  H   H279      1.0  0.42596  0.23152  0.69632  1.0000
  C   C340      1.0  0.22491  0.02957  0.61514  1.0000
  C   C341      1.0  0.42189  0.22872  0.61971  1.0000
  C   C342      1.0  0.40453  0.22805  0.60441  1.0000
  C   C343      1.0  0.38327  0.24658  0.60238  1.0000
  C   C344      1.0  0.37886  0.26528  0.61573  1.0000
  C   C345      1.0  0.39467  0.26454  0.63141  1.0000
  C   C346      1.0  0.41713  0.24695  0.63315  1.0000
  P   P12       1.0  0.38760  0.28693  0.64908  1.0000
  C   C347      1.0  0.43063  0.33133  0.65255  1.0000
  C   C348      1.0  0.34773  0.29537  0.64555  1.0000
  C   C349      1.0  0.35051  0.33001  0.64956  1.0000
  C   C350      1.0  0.31949  0.33611  0.64677  1.0000
  C   C351      1.0  0.28545  0.30770  0.64001  1.0000
  C   C352      1.0  0.28246  0.27320  0.63601  1.0000
  C   C353      1.0  0.31343  0.26715  0.63874  1.0000
  H   H280      1.0  0.32264  0.05608  0.61185  1.0000
  C   C354      1.0  0.45608  0.35108  0.63938  1.0000
  C   C355      1.0  0.37827  0.25565  0.66719  1.0000
  C   C356      1.0  0.40894  0.25599  0.67601  1.0000
  H   H281      1.0  0.11897  0.02963  0.59149  1.0000
  C   C357      1.0  0.26774  0.08457  0.56294  1.0000
  H   H282      1.0  0.01704  0.14696  0.54188  1.0000
  C   C358      1.0  0.34064  0.23013  0.67241  1.0000
  H   H283      1.0  0.30480  0.18523  0.68985  1.0000
  S   S52       1.0  0.39871  0.49394  0.50473  1.0000
  H   H284      1.0  0.48445  0.41991  0.49735  1.0000
  H   H285      1.0  0.36247  0.27955  0.61375  1.0000
  H   H286      1.0  0.43049  0.24658  0.64492  1.0000
  H   H287      1.0  0.37649  0.35242  0.65482  1.0000
  C   C359      1.0  0.00582  0.38855  0.69148  1.0000
  H   H288      1.0  0.26150  0.31243  0.63773  1.0000
  H   H289      1.0  0.25629  0.25107  0.63061  1.0000
  H   H290      1.0  0.31067  0.24042  0.63542  1.0000
  H   H291      1.0  0.31516  0.46426  0.55102  1.0000
  H   H292      1.0  0.45081  0.33968  0.62702  1.0000
  H   H293      1.0  0.43831  0.27512  0.67224  1.0000
  H   H294      1.0  0.39072  0.33927  0.50136  1.0000
  C   C360      1.0  0.05302  0.41902  0.48251  1.0000
  Fe  Fe28      1.0  0.29955  0.47881  0.48982  1.0000
  H   H295      1.0  0.01843  0.29741  0.59851  1.0000
  C   C361      1.0  0.02713  0.22158  0.58805  1.0000
  C   C362      1.0  0.06068  0.24052  0.57862  1.0000
  C   C363      1.0  0.07922  0.27988  0.57650  1.0000
  C   C364      1.0  0.06426  0.30034  0.58397  1.0000
  C   C365      1.0  0.02130  0.40013  0.70748  1.0000
  C   C366      1.0  0.39122  0.03144  0.70661  1.0000
  H   H296      1.0  0.07160  0.22432  0.57264  1.0000
  H   H297      1.0  0.10462  0.29422  0.56875  1.0000
  H   H298      1.0  0.07803  0.33074  0.58214  1.0000
  H   H299      1.0  0.14693  0.04095  0.61942  1.0000
  H   H300      1.0  0.17011  0.00667  0.60271  1.0000
  C   C367      1.0  0.36835  0.36804  0.48588  1.0000
  C   C368      1.0  0.22783  0.49895  0.51080  1.0000
  C   C369      1.0  0.21448  0.39521  0.52096  1.0000
  C   C370      1.0  0.01418  0.28510  0.54679  1.0000
  H   H301      1.0  0.99479  0.43183  0.65755  1.0000
  C   C371      1.0  0.01171  0.48987  0.47915  1.0000
  C   C372      1.0  0.19968  0.01644  0.53068  1.0000
  C   C373      1.0  0.38584  0.32325  0.47568  1.0000
  C   C374      1.0  0.28117  0.00084  0.69419  1.0000
  H   H302      1.0  0.99884  0.37059  0.48917  1.0000
  C   C375      1.0  0.12212  0.00385  0.56912  1.0000
  H   H303      1.0  0.00080  0.22670  0.54763  1.0000
  H   H304      1.0  0.00861  0.11483  0.60235  1.0000
  C   C376      1.0  0.16750  0.01061  0.52151  1.0000
  C   C377      1.0  0.22249  0.49499  0.49355  1.0000
  C   C378      1.0  0.48297  0.04044  0.68756  1.0000
  C   C379      1.0  0.11012  0.00328  0.58544  1.0000
  H   H305      1.0  0.39683  0.30419  0.47835  1.0000
  C   C380      1.0  0.48335  0.39701  0.47346  1.0000
  H   H306      1.0  0.00055  0.12806  0.63424  1.0000
  P   P13       1.0  0.24314  0.00746  0.60160  1.0000
  C   C381      1.0  0.99345  0.26742  0.63199  1.0000
  H   H307      1.0  0.34669  0.39241  0.46745  1.0000
  H   H308      1.0  0.45632  0.24834  0.46559  1.0000
  C   C382      1.0  0.00115  0.48286  0.71525  1.0000
  C   C383      1.0  0.46177  0.49515  0.81534  1.0000
  H   H309      1.0  0.11459  0.10443  0.78354  1.0000
  H   H310      1.0  0.48278  0.47295  0.83513  1.0000
  H   H311      1.0  0.05466  0.25673  0.77367  1.0000
  C   C384      1.0  0.30314  0.47456  0.78596  1.0000
  H   H312      1.0  0.27336  0.33287  0.85298  1.0000
  Fe  Fe29      1.0  0.44902  0.34445  0.91288  1.0000
  S   S53       1.0  0.40713  0.33273  0.89114  1.0000
  S   S54       1.0  0.43521  0.32160  0.93929  1.0000
  Fe  Fe30      1.0  0.18291  0.20678  0.86271  1.0000
  S   S55       1.0  0.19565  0.20501  0.83566  1.0000
  S   S56       1.0  0.22606  0.22230  0.88435  1.0000
  Fe  Fe31      1.0  0.09641  0.17551  0.85519  1.0000
  S   S57       1.0  0.10464  0.17303  0.82776  1.0000
  S   S58       1.0  0.03744  0.15620  0.86644  1.0000
  Fe  Fe32      1.0  0.14161  0.14815  0.83579  1.0000
  S   S59       1.0  0.13343  0.09600  0.82255  1.0000
  Fe  Fe33      1.0  0.15719  0.23017  0.83035  1.0000
  S   S60       1.0  0.17740  0.27848  0.81066  1.0000
  S   S61       1.0  0.13100  0.14795  0.86311  1.0000
  S   S62       1.0  0.14700  0.23470  0.85746  1.0000
  C   C385      1.0  0.12804  0.32048  0.74923  1.0000
  C   C386      1.0  0.40199  0.23903  0.88756  1.0000
  Fe  Fe34      1.0  0.12853  0.42952  0.76775  1.0000
  C   C387      1.0  0.03745  0.19870  0.81437  1.0000
  S   S63       1.0  0.10560  0.38267  0.78814  1.0000
  H   H313      1.0  0.43989  0.29363  0.87624  1.0000
  C   C388      1.0  0.41180  0.48379  0.90449  1.0000
  C   C389      1.0  0.01067  0.26952  0.73596  1.0000
  C   C390      1.0  0.30085  0.35474  0.85749  1.0000
  C   C391      1.0  0.30917  0.35622  0.87451  1.0000
  S   S64       1.0  0.09101  0.45367  0.75890  1.0000
  C   C392      1.0  0.41745  0.42792  0.91041  1.0000
  C   C393      1.0  0.38943  0.18496  0.87130  1.0000
  H   H314      1.0  0.40238  0.39106  0.80160  1.0000
  C   C394      1.0  0.03476  0.06826  0.81726  1.0000
  C   C395      1.0  0.99478  0.11902  0.85793  1.0000
  C   C396      1.0  0.12134  0.05127  0.85112  1.0000
  C   C397      1.0  0.11471  0.05234  0.83400  1.0000
  C   C398      1.0  0.41056  0.48853  0.92164  1.0000
  H   H315      1.0  0.13622  0.07735  0.85776  1.0000
  C   C399      1.0  0.02854  0.41194  0.79356  1.0000
  C   C400      1.0  0.15770  0.30809  0.80510  1.0000
  C   C401      1.0  0.12596  0.30541  0.81330  1.0000
  C   C402      1.0  0.11111  0.32920  0.80824  1.0000
  C   C403      1.0  0.12754  0.35573  0.79490  1.0000
  C   C404      1.0  0.15975  0.35895  0.78693  1.0000
  C   C405      1.0  0.17455  0.33512  0.79195  1.0000
  H   H316      1.0  0.11308  0.28523  0.82361  1.0000
  H   H317      1.0  0.08693  0.32733  0.81479  1.0000
  H   H318      1.0  0.17287  0.37936  0.77671  1.0000
  H   H319      1.0  0.19918  0.33757  0.78554  1.0000
  C   C406      1.0  0.35717  0.29994  0.88944  1.0000
  C   C407      1.0  0.33960  0.29450  0.87366  1.0000
  C   C408      1.0  0.29973  0.27045  0.87177  1.0000
  C   C409      1.0  0.27678  0.25173  0.88572  1.0000
  C   C410      1.0  0.29453  0.25648  0.90144  1.0000
  C   C411      1.0  0.33444  0.28027  0.90330  1.0000
  H   H320      1.0  0.35682  0.30957  0.86284  1.0000
  H   H321      1.0  0.28664  0.26701  0.85960  1.0000
  H   H322      1.0  0.27714  0.24200  0.91230  1.0000
  H   H323      1.0  0.34742  0.28395  0.91551  1.0000
  C   C412      1.0  0.36373  0.40880  0.85213  1.0000
  C   C413      1.0  0.44483  0.05681  0.95984  1.0000
  C   C414      1.0  0.01717  0.43488  0.78466  1.0000
  C   C415      1.0  0.43085  0.49114  0.86533  1.0000
  H   H324      1.0  0.13740  0.24249  0.74579  1.0000
  H   H325      1.0  0.37515  0.15463  0.86973  1.0000
  H   H326      1.0  0.27242  0.46319  0.78517  1.0000
  C   C416      1.0  0.09549  0.01810  0.82558  1.0000
  C   C417      1.0  0.10674  0.18271  0.77374  1.0000
  C   C418      1.0  0.09730  0.14452  0.77471  1.0000
  C   C419      1.0  0.32444  0.48118  0.77141  1.0000
  H   H327      1.0  0.02344  0.35726  0.79643  1.0000
  C   C420      1.0  0.38368  0.19965  0.88586  1.0000
  H   H328      1.0  0.14948  0.23972  0.78015  1.0000
  C   C421      1.0  0.25189  0.14509  0.87752  1.0000
  C   C422      1.0  0.23336  0.10599  0.87554  1.0000
  C   C423      1.0  0.25120  0.08542  0.88083  1.0000
  C   C424      1.0  0.28710  0.10376  0.88858  1.0000
  C   C425      1.0  0.30513  0.14284  0.89130  1.0000
  C   C426      1.0  0.28781  0.16353  0.88517  1.0000
  P   P14       1.0  0.35116  0.16750  0.90156  1.0000
  C   C427      1.0  0.34942  0.19177  0.91966  1.0000
  C   C428      1.0  0.36800  0.13623  0.90959  1.0000
  C   C429      1.0  0.34436  0.10529  0.92018  1.0000
  C   C430      1.0  0.35773  0.08199  0.92718  1.0000
  C   C431      1.0  0.39510  0.08996  0.92399  1.0000
  C   C432      1.0  0.41924  0.12137  0.91391  1.0000
  C   C433      1.0  0.40587  0.14456  0.90679  1.0000
  C   C434      1.0  0.38237  0.21077  0.92951  1.0000
  C   C435      1.0  0.38107  0.22733  0.94427  1.0000
  C   C436      1.0  0.34722  0.22601  0.94910  1.0000
  C   C437      1.0  0.31434  0.20736  0.93934  1.0000
  C   C438      1.0  0.31522  0.18987  0.92478  1.0000
  H   H329      1.0  0.23819  0.16115  0.87331  1.0000
  H   H330      1.0  0.20523  0.09167  0.86983  1.0000
  H   H331      1.0  0.23697  0.05517  0.87899  1.0000
  H   H332      1.0  0.30046  0.08728  0.89236  1.0000
  H   H333      1.0  0.30173  0.19392  0.88660  1.0000
  H   H334      1.0  0.31573  0.09946  0.92319  1.0000
  H   H335      1.0  0.33942  0.05821  0.93537  1.0000
  Fe  Fe35      1.0  0.19321  0.48176  0.74412  1.0000
  H   H336      1.0  0.42556  0.16940  0.89947  1.0000
  H   H337      1.0  0.40912  0.21263  0.92587  1.0000
  H   H338      1.0  0.40654  0.24152  0.95191  1.0000
  H   H339      1.0  0.45936  0.14614  0.95668  1.0000
  H   H340      1.0  0.28805  0.20638  0.94304  1.0000
  H   H341      1.0  0.28907  0.17495  0.91772  1.0000
  H   H342      1.0  0.39741  0.25129  0.89845  1.0000
  H   H343      1.0  0.39088  0.02762  0.73349  1.0000
  H   H344      1.0  0.29242  0.03377  0.76442  1.0000
  H   H345      1.0  0.44516  0.40652  0.82617  1.0000
  C   C439      1.0  0.41659  0.44891  0.79640  1.0000
  C   C440      1.0  0.09416  0.24478  0.76063  1.0000
  H   H346      1.0  0.27819  0.03413  0.81932  1.0000
  H   H347      1.0  0.04925  0.11837  0.80235  1.0000
  H   H348      1.0  0.08516  0.15353  0.74129  1.0000
  C   C441      1.0  0.41337  0.20932  0.85863  1.0000
  H   H349      1.0  0.19388  0.22109  0.79282  1.0000
  C   C442      1.0  0.14284  0.29774  0.74425  1.0000
  H   H350      1.0  0.44860  0.12809  0.91186  1.0000
  C   C443      1.0  0.07923  0.26771  0.76549  1.0000
  C   C444      1.0  0.15760  0.16165  0.78843  1.0000
  C   C445      1.0  0.04446  0.17028  0.74911  1.0000
  C   C446      1.0  0.03817  0.13520  0.72423  1.0000
  C   C447      1.0  0.99717  0.30743  0.75454  1.0000
  H   H351      1.0  0.32168  0.37951  0.83307  1.0000
  C   C448      1.0  0.41641  0.43286  0.92751  1.0000
  P   P15       1.0  0.07146  0.19554  0.76707  1.0000
  H   H352      1.0  0.06976  0.12264  0.77042  1.0000
  C   C449      1.0  0.01021  0.02934  0.81933  1.0000
  H   H353      1.0  0.38461  0.42879  0.84328  1.0000
  P   P16       1.0  0.41814  0.44719  0.87669  1.0000
  H   H354      1.0  0.39793  0.44177  0.78561  1.0000
  C   C450      1.0  0.14202  0.21023  0.78011  1.0000
  H   H355      1.0  0.34656  0.23956  0.96038  1.0000
  C   C451      1.0  0.32817  0.38095  0.84629  1.0000
  H   H356      1.0  0.48019  0.49400  0.77368  1.0000
  Fe  Fe36      1.0  0.10909  0.45004  0.73302  1.0000
  C   C452      1.0  0.16736  0.19973  0.78737  1.0000
  H   H357      1.0  0.03400  0.36812  0.75115  1.0000
  H   H358      1.0  0.05020  0.42383  0.80318  1.0000
  C   C453      1.0  0.28037  0.08266  0.83023  1.0000
  C   C454      1.0  0.25945  0.09981  0.83506  1.0000
  C   C455      1.0  0.21986  0.08139  0.83267  1.0000
  C   C456      1.0  0.20119  0.04601  0.82536  1.0000
  H   H359      1.0  0.08997  0.01868  0.81238  1.0000
  H   H360      1.0  0.28827  0.33521  0.88313  1.0000
  C   C457      1.0  0.40898  0.15150  0.95655  1.0000
  H   H361      1.0  0.14159  0.34994  0.74513  1.0000
  C   C458      1.0  0.12262  0.13406  0.78207  1.0000
  C   C459      1.0  0.25197  0.01209  0.78480  1.0000
  H   H362      1.0  0.42114  0.38909  0.85672  1.0000
  H   H363      1.0  0.01987  0.11989  0.83444  1.0000
  H   H364      1.0  0.00026  0.08370  0.78064  1.0000
  C   C460      1.0  0.05884  0.20686  0.79972  1.0000
  H   H365      1.0  0.05534  0.49515  0.72614  1.0000
  S   S65       1.0  0.25232  0.49784  0.73442  1.0000
  C   C461      1.0  0.09617  0.30542  0.75975  1.0000
  C   C462      1.0  0.34477  0.38384  0.88040  1.0000
  H   H366      1.0  0.00781  0.39655  0.73348  1.0000
  S   S66       1.0  0.48595  0.25867  0.94781  1.0000
  H   H367      1.0  0.31096  0.09663  0.83236  1.0000
  H   H368      1.0  0.27374  0.12713  0.84084  1.0000
  H   H369      1.0  0.20341  0.09437  0.83656  1.0000
  H   H370      1.0  0.41755  0.19782  0.84739  1.0000
  C   C463      1.0  0.41450  0.02055  0.95645  1.0000
  C   C464      1.0  0.22214  0.02927  0.81987  1.0000
  C   C465      1.0  0.10984  0.01642  0.85964  1.0000
  H   H371      1.0  0.16775  0.30962  0.73620  1.0000
  H   H372      1.0  0.05621  0.08327  0.82667  1.0000
  H   H373      1.0  0.01354  0.01517  0.83037  1.0000
  H   H374      1.0  0.03076  0.30419  0.78674  1.0000
  H   H375      1.0  0.11562  0.01598  0.87284  1.0000
  C   C466      1.0  0.99907  0.17034  0.81469  1.0000
  C   C467      1.0  0.99663  0.38667  0.72123  1.0000
  H   H376      1.0  0.37236  0.47999  0.86319  1.0000
  C   C468      1.0  0.27129  0.00867  0.77118  1.0000
  H   H377      1.0  0.44967  0.26741  0.85050  1.0000
  Fe  Fe37      1.0  0.48509  0.31095  0.93705  1.0000
  C   C469      1.0  0.43152  0.24849  0.86039  1.0000
  H   H378      1.0  0.02575  0.48414  0.84159  1.0000
  C   C470      1.0  0.43815  0.48667  0.80121  1.0000
  H   H379      1.0  0.39105  0.00570  0.96520  1.0000
  C   C471      1.0  0.05841  0.15294  0.73860  1.0000
  H   H380      1.0  0.00786  0.22941  0.87859  1.0000
  H   H381      1.0  0.05091  0.21382  0.82561  1.0000
  H   H382      1.0  0.08504  0.32332  0.76369  1.0000
  C   C472      1.0  0.04207  0.18633  0.78532  1.0000
  H   H383      1.0  0.30485  0.47763  0.81269  1.0000
  C   C473      1.0  0.00441  0.13544  0.72004  1.0000
  C   C474      1.0  0.00445  0.28446  0.79319  1.0000
  C   C475      1.0  0.45446  0.43402  0.87376  1.0000
  H   H384      1.0  0.31013  0.47494  0.75940  1.0000
  C   C476      1.0  0.48730  0.47988  0.95803  1.0000
  C   C477      1.0  0.03095  0.08796  0.80345  1.0000
  C   C478      1.0  0.38046  0.01195  0.72218  1.0000
  C   C479      1.0  0.47664  0.39520  0.86083  1.0000
  C   C480      1.0  0.14833  0.00067  0.79297  1.0000
  S   S67       1.0  0.14347  0.42254  0.74171  1.0000
  H   H385      1.0  0.46925  0.01350  0.73065  1.0000
  C   C481      1.0  0.00618  0.26313  0.80689  1.0000
  C   C482      1.0  0.44302  0.42883  0.81932  1.0000
  C   C483      1.0  0.42601  0.26327  0.87488  1.0000
  C   C484      1.0  0.46426  0.46628  0.82432  1.0000
  H   H386      1.0  0.02993  0.46460  0.78744  1.0000
  H   H387      1.0  0.08881  0.22856  0.79977  1.0000
  C   C485      1.0  0.37214  0.41080  0.86929  1.0000
  H   H388      1.0  0.17656  0.15338  0.79469  1.0000
  H   H389      1.0  0.35070  0.38363  0.89359  1.0000
  C   C486      1.0  0.41286  0.46309  0.93314  1.0000
  C   C487      1.0  0.00365  0.15724  0.78587  1.0000
  C   C488      1.0  0.44828  0.40508  0.86299  1.0000
  H   H390      1.0  0.00459  0.24216  0.73169  1.0000
  H   H391      1.0  0.41982  0.40408  0.90626  1.0000
  C   C489      1.0  0.26177  0.04740  0.82275  1.0000
  H   H392      1.0  0.25789  0.03999  0.78818  1.0000
  C   C490      1.0  0.02673  0.34040  0.74694  1.0000
  H   H393      1.0  0.10996  0.01405  0.77915  1.0000
  C   C491      1.0  0.41542  0.45346  0.89875  1.0000
  S   S68       1.0  0.18042  0.48694  0.77070  1.0000
  C   C492      1.0  0.12576  0.25989  0.74981  1.0000
  H   H394      1.0  0.40567  0.07233  0.92962  1.0000
  H   H395      1.0  0.41888  0.41348  0.93642  1.0000
  C   C493      1.0  0.03902  0.30252  0.72802  1.0000
  H   H396      1.0  0.38193  0.38642  0.96246  1.0000
  Fe  Fe38      1.0  0.47894  0.38070  0.94674  1.0000
  C   C494      1.0  0.47376  0.05835  0.93323  1.0000
  C   C495      1.0  0.04709  0.33789  0.73355  1.0000
  H   H397      1.0  0.17184  0.02952  0.79211  1.0000
  C   C496      1.0  0.41903  0.42012  0.80543  1.0000
  H   H398      1.0  0.06894  0.36350  0.72734  1.0000
  C   C497      1.0  0.32150  0.48294  0.80143  1.0000
  H   H399      1.0  0.17038  0.03170  0.82417  1.0000
  H   H400      1.0  0.47122  0.37209  0.85289  1.0000
  C   C498      1.0  0.01336  0.37397  0.78957  1.0000
  C   C499      1.0  0.99377  0.10756  0.84163  1.0000
  C   C500      1.0  0.43044  0.13428  0.96131  1.0000
  C   C501      1.0  0.01134  0.17167  0.74445  1.0000
  C   C502      1.0  0.47408  0.07592  0.94794  1.0000
  C   C503      1.0  0.37115  0.13594  0.96197  1.0000
  C   C504      1.0  0.41435  0.00300  0.94176  1.0000
  H   H401      1.0  0.44382  0.00836  0.91876  1.0000
  H   H402      1.0  0.41236  0.46705  0.94642  1.0000
  H   H403      1.0  0.42188  0.17693  0.94863  1.0000
  H   H404      1.0  0.03346  0.26629  0.81083  1.0000
  C   C505      1.0  0.44400  0.02187  0.93016  1.0000
  H   H405      1.0  0.00123  0.18665  0.75192  1.0000
  C   C506      1.0  0.00324  0.06851  0.79136  1.0000
  H   H406      1.0  0.44005  0.01860  0.75634  1.0000
  H   H407      1.0  0.35453  0.14932  0.95825  1.0000
  H   H408      1.0  0.05491  0.30082  0.71763  1.0000
  C   C507      1.0  0.36122  0.49818  0.80235  1.0000
  H   H409      1.0  0.04889  0.12160  0.71623  1.0000
  S   S69       1.0  0.49005  0.40442  0.92045  1.0000
  C   C508      1.0  0.36417  0.49672  0.77225  1.0000
  H   H410      1.0  0.31175  0.49571  0.94828  1.0000
  C   C509      1.0  0.48923  0.45251  0.88251  1.0000
  H   H411      1.0  0.49080  0.24371  0.91262  1.0000
  Fe  Fe39      1.0  0.13971  0.54634  0.03714  1.0000
  S   S70       1.0  0.16227  0.60469  0.04824  1.0000
  S   S71       1.0  0.14607  0.53868  0.01004  1.0000
  Fe  Fe40      1.0  0.39437  0.88846  0.00751  1.0000
  S   S72       1.0  0.41956  0.90317  0.03323  1.0000
  C   C510      1.0  0.49132  0.97391  0.99390  1.0000
  Fe  Fe41      1.0  0.32449  0.81430  0.02033  1.0000
  S   S73       1.0  0.34490  0.82394  0.04679  1.0000
  S   S74       1.0  0.27211  0.76229  0.01042  1.0000
  Fe  Fe42      1.0  0.35908  0.88462  0.04168  1.0000
  S   S75       1.0  0.34904  0.91754  0.06188  1.0000
  Fe  Fe43      1.0  0.40294  0.84152  0.03600  1.0000
  S   S76       1.0  0.44018  0.81893  0.04732  1.0000
  S   S77       1.0  0.33503  0.87387  0.01566  1.0000
  S   S78       1.0  0.38162  0.82815  0.00992  1.0000
  H   H412      1.0  0.46586  0.68737  0.97491  1.0000
  C   C511      1.0  0.29856  0.65884  0.98632  1.0000
  Fe  Fe44      1.0  0.14284  0.97074  0.11559  1.0000
  S   S79       1.0  0.09016  0.91893  0.12645  1.0000
  S   S80       1.0  0.41913  0.92090  0.98284  1.0000
  Fe  Fe45      1.0  0.44112  0.60328  0.02992  1.0000
  S   S81       1.0  0.44810  0.62356  0.00327  1.0000
  S   S82       1.0  0.38442  0.57941  0.04356  1.0000
  C   C512      1.0  0.23282  0.56729  0.19882  1.0000
  C   C513      1.0  0.00202  0.77906  0.16197  1.0000
  H   H413      1.0  0.11337  0.83474  0.16369  1.0000
  C   C514      1.0  0.08509  0.79265  0.03881  1.0000
  C   C515      1.0  0.37293  0.67171  0.01783  1.0000
  C   C516      1.0  0.37591  0.69875  0.04460  1.0000
  C   C517      1.0  0.02549  0.77270  0.09021  1.0000
  C   C518      1.0  0.05723  0.71174  0.20365  1.0000
  H   H414      1.0  0.09812  0.87077  0.01618  1.0000
  C   C519      1.0  0.01169  0.87628  0.12434  1.0000
  C   C520      1.0  0.04599  0.89851  0.11549  1.0000
  C   C521      1.0  0.04459  0.90173  0.09811  1.0000
  H   H415      1.0  0.01249  0.87432  0.13778  1.0000
  H   H416      1.0  0.07064  0.91893  0.09110  1.0000
  C   C522      1.0  0.45477  0.79301  0.03496  1.0000
  C   C523      1.0  0.45668  0.79719  0.01755  1.0000
  C   C524      1.0  0.39606  0.76452  0.97404  1.0000
  H   H417      1.0  0.02188  0.81661  0.01449  1.0000
  H   H418      1.0  0.47428  0.78332  0.99481  1.0000
  H   H419      1.0  0.45569  0.68166  0.07694  1.0000
  H   H420      1.0  0.44781  0.81555  0.01131  1.0000
  C   C525      1.0  0.06328  0.82547  0.14986  1.0000
  C   C526      1.0  0.02143  0.77208  0.17514  1.0000
  C   C527      1.0  0.31531  0.93371  0.06368  1.0000
  C   C528      1.0  0.31265  0.94861  0.07888  1.0000
  C   C529      1.0  0.28686  0.96233  0.08088  1.0000
  C   C530      1.0  0.26353  0.96168  0.06760  1.0000
  C   C531      1.0  0.26622  0.94681  0.05239  1.0000
  C   C532      1.0  0.29166  0.93265  0.05046  1.0000
  H   H421      1.0  0.33072  0.94955  0.08921  1.0000
  C   C533      1.0  0.41165  0.99084  0.01116  1.0000
  H   H422      1.0  0.24847  0.94628  0.04202  1.0000
  H   H423      1.0  0.29329  0.92131  0.03870  1.0000
  C   C534      1.0  0.27806  0.66063  0.97228  1.0000
  P   P17       1.0  0.05689  0.84031  0.04774  1.0000
  S   S83       1.0  0.23037  0.97861  0.06923  1.0000
  C   C535      1.0  0.34001  0.56163  0.03297  1.0000
  C   C536      1.0  0.33671  0.55539  0.01582  1.0000
  C   C537      1.0  0.30042  0.53869  0.00813  1.0000
  C   C538      1.0  0.26715  0.52836  0.01747  1.0000
  C   C539      1.0  0.30683  0.55178  0.04223  1.0000
  H   H424      1.0  0.36198  0.56271  0.00856  1.0000
  H   H425      1.0  0.29811  0.53351  0.99491  1.0000
  H   H426      1.0  0.13754  0.90005  0.04798  1.0000
  C   C540      1.0  0.19606  0.64743  0.03769  1.0000
  C   C541      1.0  0.19969  0.65004  0.02030  1.0000
  C   C542      1.0  0.22391  0.68519  0.01220  1.0000
  C   C543      1.0  0.24549  0.71803  0.02136  1.0000
  C   C544      1.0  0.24299  0.71524  0.03880  1.0000
  C   C545      1.0  0.21801  0.68022  0.04689  1.0000
  H   H427      1.0  0.18287  0.62524  0.01304  1.0000
  H   H428      1.0  0.22554  0.68697  0.99872  1.0000
  H   H429      1.0  0.25932  0.74026  0.04603  1.0000
  H   H430      1.0  0.21544  0.67856  0.06033  1.0000
  H   H431      1.0  0.07190  0.77614  0.05005  1.0000
  C   C546      1.0  0.07363  0.83542  0.09816  1.0000
  C   C547      1.0  0.35951  0.73864  0.98032  1.0000
  H   H432      1.0  0.15759  0.81366  0.21031  1.0000
  H   H433      1.0  0.16868  0.96971  0.04800  1.0000
  C   C548      1.0  0.02911  0.78541  0.07355  1.0000
  C   C549      1.0  0.07776  0.84811  0.08150  1.0000
  C   C550      1.0  0.38060  0.67342  0.03494  1.0000
  C   C551      1.0  0.46601  0.96004  0.98046  1.0000
  C   C552      1.0  0.36340  0.72230  0.03717  1.0000
  C   C553      1.0  0.11572  0.97074  0.04742  1.0000
  C   C554      1.0  0.33161  0.74978  0.98091  1.0000
  H   H434      1.0  0.41283  0.96478  0.01174  1.0000
  C   C555      1.0  0.05787  0.90964  0.04683  1.0000
  H   H435      1.0  0.16665  0.87279  0.19669  1.0000
  C   C556      1.0  0.33973  0.78568  0.97488  1.0000
  C   C557      1.0  0.35571  0.72071  0.02007  1.0000
  H   H436      1.0  0.46490  0.76554  0.05627  1.0000
  C   C558      1.0  0.00209  0.52719  0.19251  1.0000
  H   H437      1.0  0.44883  0.61702  0.21082  1.0000
  C   C559      1.0  0.13597  0.82174  0.21192  1.0000
  H   H438      1.0  0.08995  0.85530  0.10773  1.0000
  H   H439      1.0  0.32561  0.63806  0.19906  1.0000
  C   C560      1.0  0.01911  0.52275  0.99072  1.0000
  C   C561      1.0  0.02548  0.68476  0.19496  1.0000
  C   C562      1.0  0.48513  0.68804  0.07837  1.0000
  C   C563      1.0  0.36083  0.69569  0.01023  1.0000
  H   H440      1.0  0.04382  0.78827  0.11550  1.0000
  C   C564      1.0  0.06146  0.79188  0.17565  1.0000
  H   H441      1.0  0.28517  0.97355  0.09266  1.0000
  Fe  Fe46      1.0  0.16842  0.50048  0.01951  1.0000
  C   C565      1.0  0.13774  0.95286  0.04745  1.0000
  H   H442      1.0  0.00893  0.81073  0.13876  1.0000
  H   H443      1.0  0.07627  0.78657  0.18586  1.0000
  S   S84       1.0  0.49088  0.57276  0.97756  1.0000
  H   H444      1.0  0.07938  0.84673  0.14023  1.0000
  H   H445      1.0  0.02692  0.89359  0.04676  1.0000
  C   C566      1.0  0.08238  0.81883  0.16312  1.0000
  H   H446      1.0  0.00480  0.74369  0.09363  1.0000
  C   C567      1.0  0.99349  0.50542  0.20737  1.0000
  C   C568      1.0  0.46652  0.76908  0.04283  1.0000
  H   H447      1.0  0.01086  0.76594  0.06422  1.0000
  H   H448      1.0  0.09762  0.87766  0.07859  1.0000
  H   H449      1.0  0.22801  0.57913  0.00538  1.0000
  H   H450      1.0  0.02850  0.67906  0.18215  1.0000
  H   H451      1.0  0.30381  0.73118  0.98646  1.0000
  C   C569      1.0  0.07582  0.94914  0.04712  1.0000
  H   H452      1.0  0.08468  0.72708  0.19739  1.0000
  C   C570      1.0  0.04751  0.79778  0.10254  1.0000
  H   H453      1.0  0.48864  0.73096  0.03964  1.0000
  H   H454      1.0  0.39002  0.65491  0.04071  1.0000
  H   H455      1.0  0.48249  0.96043  0.00614  1.0000
  C   C571      1.0  0.48004  0.74950  0.03343  1.0000
  H   H456      1.0  0.00599  0.75146  0.18502  1.0000
  C   C572      1.0  0.00829  0.82041  0.04016  1.0000
  H   H457      1.0  0.31825  0.79424  0.97584  1.0000
  H   H458      1.0  0.03101  0.59598  0.21521  1.0000
  H   H459      1.0  0.99968  0.56367  0.99000  1.0000
  C   C573      1.0  0.11857  0.83346  0.00920  1.0000
  C   C574      1.0  0.99977  0.81214  0.02324  1.0000
  S   S85       1.0  0.16447  0.51013  0.04652  1.0000
  H   H460      1.0  0.26953  0.60872  0.18034  1.0000
  C   C575      1.0  0.37592  0.67548  0.97703  1.0000
  C   C576      1.0  0.26725  0.59804  0.19309  1.0000
  C   C577      1.0  0.25762  0.75742  0.09156  1.0000
  C   C578      1.0  0.29449  0.78871  0.09030  1.0000
  C   C579      1.0  0.29997  0.82266  0.08290  1.0000
  C   C580      1.0  0.26882  0.82508  0.07634  1.0000
  C   C581      1.0  0.23185  0.79359  0.07723  1.0000
  C   C582      1.0  0.22627  0.76000  0.08531  1.0000
  P   P18       1.0  0.19199  0.79789  0.06918  1.0000
  C   C583      1.0  0.18234  0.82340  0.08466  1.0000
  C   C584      1.0  0.20522  0.82243  0.04910  1.0000
  C   C585      1.0  0.19309  0.84829  0.04414  1.0000
  C   C586      1.0  0.20366  0.86702  0.02853  1.0000
  C   C587      1.0  0.22473  0.85870  0.01745  1.0000
  C   C588      1.0  0.23535  0.83172  0.02201  1.0000
  C   C589      1.0  0.22612  0.81401  0.03783  1.0000
  C   C590      1.0  0.20201  0.86319  0.08416  1.0000
  C   C591      1.0  0.19448  0.88300  0.09603  1.0000
  C   C592      1.0  0.16843  0.86337  0.10890  1.0000
  C   C593      1.0  0.15022  0.82383  0.11003  1.0000
  C   C594      1.0  0.15742  0.80391  0.09806  1.0000
  C   C595      1.0  0.15193  0.75185  0.06474  1.0000
  C   C596      1.0  0.11415  0.74320  0.06788  1.0000
  C   C597      1.0  0.08346  0.70765  0.06401  1.0000
  C   C598      1.0  0.09028  0.68076  0.05676  1.0000
  C   C599      1.0  0.12772  0.68953  0.05320  1.0000
  C   C600      1.0  0.15836  0.72504  0.05700  1.0000
  H   H461      1.0  0.25336  0.73113  0.09735  1.0000
  H   H462      1.0  0.31886  0.78673  0.09503  1.0000
  H   H463      1.0  0.32850  0.84710  0.08200  1.0000
  H   H464      1.0  0.27367  0.85155  0.07052  1.0000
  H   H465      1.0  0.19791  0.73567  0.08671  1.0000
  H   H466      1.0  0.17557  0.85417  0.05225  1.0000
  H   H467      1.0  0.19526  0.88782  0.02500  1.0000
  H   H468      1.0  0.23277  0.87301  0.00532  1.0000
  H   H469      1.0  0.25098  0.82453  0.01333  1.0000
  H   H470      1.0  0.23523  0.79361  0.04115  1.0000
  H   H471      1.0  0.22342  0.87908  0.07468  1.0000
  H   H472      1.0  0.20911  0.91371  0.09530  1.0000
  H   H473      1.0  0.16275  0.87897  0.11807  1.0000
  H   H474      1.0  0.13061  0.80869  0.12022  1.0000
  H   H475      1.0  0.14385  0.77338  0.09936  1.0000
  H   H476      1.0  0.10825  0.76398  0.07306  1.0000
  H   H477      1.0  0.05435  0.70095  0.06653  1.0000
  H   H478      1.0  0.06662  0.65317  0.05377  1.0000
  H   H479      1.0  0.13314  0.66879  0.04748  1.0000
  H   H480      1.0  0.18711  0.73143  0.05389  1.0000
  C   C601      1.0  0.37699  0.51163  0.98684  1.0000
  H   H481      1.0  0.38214  0.70028  0.05782  1.0000
  C   C602      1.0  0.48332  0.75480  0.01608  1.0000
  H   H482      1.0  0.37589  0.65121  0.01069  1.0000
  H   H483      1.0  0.04114  0.53753  0.99990  1.0000
  S   S86       1.0  0.22163  0.50444  0.00769  1.0000
  S   S87       1.0  0.47925  0.57746  0.02773  1.0000
  S   S88       1.0  0.48870  0.65798  0.03941  1.0000
  C   C603      1.0  0.40433  0.80069  0.96828  1.0000
  C   C604      1.0  0.09984  0.84571  0.01976  1.0000
  C   C605      1.0  0.47170  0.77885  0.00820  1.0000
  C   C606      1.0  0.11993  0.91335  0.04738  1.0000
  H   H484      1.0  0.34549  0.73883  0.01468  1.0000
  C   C607      1.0  0.02331  0.80531  0.14916  1.0000
  H   H485      1.0  0.46495  0.50703  0.00078  1.0000
  C   C608      1.0  0.07980  0.89141  0.04703  1.0000
  H   H486      1.0  0.36002  0.74216  0.04464  1.0000
  H   H487      1.0  0.24540  0.52765  0.04188  1.0000
  P   P19       1.0  0.34895  0.69225  0.98830  1.0000
  C   C609      1.0  0.05516  0.82331  0.06905  1.0000
  C   C610      1.0  0.22129  0.60430  0.98234  1.0000
  H   H488      1.0  0.29540  0.62609  0.00885  1.0000
  H   H489      1.0  0.19142  0.58326  0.98086  1.0000
  H   H490      1.0  0.13149  0.84921  0.99770  1.0000
  H   H491      1.0  0.10596  0.75549  0.03153  1.0000
  H   H492      1.0  0.03147  0.54833  0.18969  1.0000
  H   H493      1.0  0.41846  0.75722  0.97388  1.0000
  C   C611      1.0  0.14107  0.85517  0.20401  1.0000
  H   H494      1.0  0.00882  0.88381  0.07624  1.0000
  C   C612      1.0  0.29887  0.61476  0.20374  1.0000
  C   C613      1.0  0.28023  0.62895  0.99812  1.0000
  C   C614      1.0  0.24176  0.60196  0.99614  1.0000
  C   C615      1.0  0.00949  0.88154  0.08966  1.0000
  H   H495      1.0  0.39595  0.51663  0.99736  1.0000
  S   S89       1.0  0.20226  0.97831  0.11752  1.0000
  H   H496      1.0  0.42863  0.70967  0.99026  1.0000
  C   C616      1.0  0.12079  0.80099  0.01347  1.0000
  C   C617      1.0  0.10413  0.78066  0.02828  1.0000
  H   H497      1.0  0.13564  0.79169  0.00537  1.0000
  C   C618      1.0  0.08290  0.82538  0.03467  1.0000
  H   H498      1.0  0.30908  0.55654  0.05548  1.0000
  C   C619      1.0  0.27064  0.53543  0.03452  1.0000
  C   C620      1.0  0.41477  0.68931  0.98061  1.0000
  C   C621      1.0  0.23014  0.55298  0.21516  1.0000
  H   H499      1.0  0.05877  0.96304  0.04744  1.0000
  C   C622      1.0  0.99559  0.53753  0.98506  1.0000
  C   C623      1.0  0.11316  0.86586  0.20547  1.0000
  H   H500      1.0  0.11711  0.89171  0.19927  1.0000
  H   H501      1.0  0.41503  0.56588  0.97522  1.0000
  H   H502      1.0  0.20837  0.55425  0.19056  1.0000
  C   C624      1.0  0.23942  0.63365  0.97041  1.0000
  C   C625      1.0  0.43590  0.67665  0.97191  1.0000
  H   H503      1.0  0.46975  0.63097  0.08604  1.0000
  H   H504      1.0  0.39461  0.50619  0.06346  1.0000
  C   C626      1.0  0.08008  0.84311  0.21483  1.0000
  C   C627      1.0  0.38803  0.53973  0.97424  1.0000
  C   C628      1.0  0.37613  0.81122  0.96862  1.0000
  Fe  Fe47      1.0  0.48950  0.60153  0.00141  1.0000
  S   S90       1.0  0.14913  0.98900  0.08867  1.0000
  C   C629      1.0  0.48350  0.52619  0.97554  1.0000
  H   H505      1.0  0.38402  0.98061  0.03509  1.0000
  C   C630      1.0  0.47089  0.49956  0.98882  1.0000
  Fe  Fe48      1.0  0.15833  0.90734  0.35405  1.0000
  S   S91       1.0  0.15010  0.88622  0.38073  1.0000
  S   S92       1.0  0.18304  0.88587  0.33470  1.0000
  H   H506      1.0  0.23527  0.91900  0.36411  1.0000
  S   S93       1.0  0.12801  0.95158  0.38875  1.0000
  Fe  Fe49      1.0  0.18194  0.94791  0.38702  1.0000
  C   C631      1.0  0.16436  0.70927  0.22472  1.0000
  Fe  Fe50      1.0  0.09712  0.89202  0.37964  1.0000
  S   S94       1.0  0.04074  0.84902  0.39179  1.0000
  S   S95       1.0  0.19349  0.96884  0.36043  1.0000
  S   S96       1.0  0.10333  0.90925  0.35249  1.0000
  S   S97       1.0  0.39908  0.56363  0.30624  1.0000
  Fe  Fe51      1.0  0.20536  0.70830  0.27541  1.0000
  S   S98       1.0  0.19531  0.69002  0.30238  1.0000
  S   S99       1.0  0.26398  0.75088  0.26484  1.0000
  Fe  Fe52      1.0  0.12111  0.65242  0.26576  1.0000
  S   S100      1.0  0.10610  0.63024  0.29225  1.0000
  S   S101      1.0  0.08109  0.62787  0.24319  1.0000
  Fe  Fe53      1.0  0.14047  0.69155  0.29927  1.0000
  S   S102      1.0  0.11645  0.71166  0.31957  1.0000
  Fe  Fe54      1.0  0.16241  0.63085  0.29287  1.0000
  S   S103      1.0  0.17172  0.58571  0.30615  1.0000
  S   S104      1.0  0.15241  0.71395  0.27270  1.0000
  S   S105      1.0  0.17560  0.64898  0.26598  1.0000
  Fe  Fe55      1.0  0.47341  0.82536  0.29449  1.0000
  H   H507      1.0  0.18860  0.92357  0.43768  1.0000
  S   S106      1.0  0.41928  0.81802  0.30672  1.0000
  C   C632      1.0  0.45687  0.77697  0.42184  1.0000
  C   C633      1.0  0.42003  0.89816  0.33618  1.0000
  C   C634      1.0  0.30666  0.77024  0.27686  1.0000
  C   C635      1.0  0.34207  0.78667  0.26856  1.0000
  C   C636      1.0  0.37658  0.80079  0.27756  1.0000
  C   C637      1.0  0.37616  0.79942  0.29502  1.0000
  C   C638      1.0  0.34078  0.78370  0.30336  1.0000
  C   C639      1.0  0.30614  0.76879  0.29434  1.0000
  H   H508      1.0  0.34281  0.78794  0.25506  1.0000
  H   H509      1.0  0.40353  0.81324  0.27097  1.0000
  H   H510      1.0  0.34008  0.78272  0.31684  1.0000
  H   H511      1.0  0.27911  0.75630  0.30089  1.0000
  C   C640      1.0  0.03110  0.61096  0.24072  1.0000
  H   H512      1.0  0.02113  0.62211  0.26562  1.0000
  C   C641      1.0  0.42141  0.60759  0.29499  1.0000
  C   C642      1.0  0.43446  0.64126  0.30362  1.0000
  C   C643      1.0  0.45385  0.67675  0.29517  1.0000
  C   C644      1.0  0.46147  0.67895  0.27808  1.0000
  C   C645      1.0  0.44862  0.64527  0.26948  1.0000
  C   C646      1.0  0.42842  0.60975  0.27785  1.0000
  H   H513      1.0  0.42952  0.63986  0.31691  1.0000
  C   C647      1.0  0.07495  0.80975  0.22282  1.0000
  H   H514      1.0  0.41895  0.58405  0.27109  1.0000
  C   C648      1.0  0.34878  0.55992  0.23157  1.0000
  C   C649      1.0  0.21622  0.51877  0.29449  1.0000
  C   C650      1.0  0.20223  0.53881  0.30328  1.0000
  C   C651      1.0  0.18638  0.55855  0.29473  1.0000
  C   C652      1.0  0.18326  0.55686  0.27733  1.0000
  C   C653      1.0  0.19695  0.53654  0.26855  1.0000
  C   C654      1.0  0.15508  0.88368  0.45734  1.0000
  H   H515      1.0  0.17069  0.57152  0.27060  1.0000
  H   H516      1.0  0.33980  0.53062  0.42500  1.0000
  H   H517      1.0  0.02178  0.84404  0.35652  1.0000
  C   C655      1.0  0.02857  0.73525  0.38229  1.0000
  C   C656      1.0  0.32533  0.58889  0.28316  1.0000
  C   C657      1.0  0.27488  0.56308  0.34966  1.0000
  H   H518      1.0  0.09628  0.51509  0.43711  1.0000
  C   C658      1.0  0.16387  0.83727  0.33065  1.0000
  C   C659      1.0  0.13277  0.80895  0.33967  1.0000
  C   C660      1.0  0.11851  0.77057  0.33613  1.0000
  C   C661      1.0  0.13518  0.76021  0.32355  1.0000
  C   C662      1.0  0.16616  0.78851  0.31449  1.0000
  C   C663      1.0  0.18046  0.82686  0.31806  1.0000
  H   H519      1.0  0.11965  0.81668  0.34930  1.0000
  H   H520      1.0  0.09436  0.74886  0.34312  1.0000
  H   H521      1.0  0.17908  0.78088  0.30472  1.0000
  H   H522      1.0  0.20444  0.84860  0.31099  1.0000
  C   C664      1.0  0.07623  0.74955  0.28796  1.0000
  C   C665      1.0  0.27572  0.54185  0.44770  1.0000
  C   C666      1.0  0.02406  0.69907  0.38480  1.0000
  C   C667      1.0  0.14915  0.51352  0.43765  1.0000
  H   H523      1.0  0.08777  0.63565  0.33809  1.0000
  C   C668      1.0  0.08277  0.77662  0.44866  1.0000
  C   C669      1.0  0.12677  0.53067  0.43942  1.0000
  C   C670      1.0  0.34260  0.71051  0.39125  1.0000
  C   C671      1.0  0.33265  0.67597  0.38414  1.0000
  C   C672      1.0  0.32158  0.61128  0.25512  1.0000
  H   H524      1.0  0.08380  0.90480  0.42006  1.0000
  C   C673      1.0  0.11148  0.79842  0.42116  1.0000
  C   C674      1.0  0.37165  0.72549  0.40323  1.0000
  H   H525      1.0  0.20447  0.53965  0.31673  1.0000
  C   C675      1.0  0.40623  0.70736  0.44319  1.0000
  H   H526      1.0  0.10562  0.69220  0.22005  1.0000
  C   C676      1.0  0.39429  0.66961  0.44812  1.0000
  H   H527      1.0  0.28572  0.58882  0.30094  1.0000
  H   H528      1.0  0.03375  0.70866  0.43500  1.0000
  C   C677      1.0  0.04593  0.96986  0.43493  1.0000
  H   H529      1.0  0.32738  0.72541  0.38766  1.0000
  H   H530      1.0  0.30984  0.66421  0.37500  1.0000
  H   H531      1.0  0.44960  0.74756  0.24296  1.0000
  C   C678      1.0  0.28037  0.61075  0.27695  1.0000
  H   H532      1.0  0.40742  0.75886  0.45034  1.0000
  H   H533      1.0  0.39814  0.65117  0.43995  1.0000
  C   C679      1.0  0.33056  0.57858  0.42273  1.0000
  C   C680      1.0  0.10304  0.79903  0.22155  1.0000
  C   C681      1.0  0.02422  0.94507  0.36290  1.0000
  C   C682      1.0  0.20275  0.77052  0.23684  1.0000
  C   C683      1.0  0.14374  0.56822  0.44415  1.0000
  H   H534      1.0  0.22353  0.73221  0.23183  1.0000
  P   P20       1.0  0.09465  0.75476  0.23114  1.0000
  C   C684      1.0  0.13599  0.74856  0.22999  1.0000
  C   C685      1.0  0.02473  0.52308  0.26093  1.0000
  C   C686      1.0  0.21429  0.51812  0.27705  1.0000
  C   C687      1.0  0.01196  0.64920  0.43924  1.0000
  C   C688      1.0  0.07619  0.96895  0.44340  1.0000
  C   C689      1.0  0.28261  0.57721  0.44128  1.0000
  C   C690      1.0  0.08570  0.75282  0.25323  1.0000
  C   C691      1.0  0.07227  0.71835  0.26226  1.0000
  C   C692      1.0  0.06730  0.71671  0.27954  1.0000
  C   C693      1.0  0.09519  0.78586  0.26182  1.0000
  H   H535      1.0  0.46453  0.56664  0.29067  1.0000
  H   H536      1.0  0.46334  0.70237  0.30195  1.0000
  H   H537      1.0  0.33868  0.55768  0.32439  1.0000
  C   C694      1.0  0.18306  0.58862  0.44731  1.0000
  C   C695      1.0  0.36465  0.59906  0.22850  1.0000
  C   C696      1.0  0.40758  0.98768  0.40579  1.0000
  P   P21       1.0  0.39433  0.96875  0.37232  1.0000
  H   H538      1.0  0.25505  0.52764  0.45758  1.0000
  H   H539      1.0  0.06661  0.69292  0.25598  1.0000
  H   H540      1.0  0.48216  0.85193  0.39451  1.0000
  H   H541      1.0  0.10722  0.81311  0.25531  1.0000
  C   C697      1.0  0.29390  0.54741  0.34151  1.0000
  C   C698      1.0  0.10281  0.64116  0.34992  1.0000
  C   C699      1.0  0.11957  0.61962  0.35519  1.0000
  C   C700      1.0  0.13993  0.62757  0.37019  1.0000
  C   C701      1.0  0.14380  0.65727  0.37985  1.0000
  C   C702      1.0  0.12683  0.67893  0.37466  1.0000
  C   C703      1.0  0.10636  0.67065  0.35960  1.0000
  P   P22       1.0  0.13493  0.71972  0.38612  1.0000
  C   C704      1.0  0.14294  0.71153  0.40787  1.0000
  C   C705      1.0  0.17589  0.76143  0.37728  1.0000
  C   C706      1.0  0.19585  0.79407  0.38672  1.0000
  C   C707      1.0  0.22602  0.82710  0.37958  1.0000
  C   C708      1.0  0.23631  0.82790  0.36295  1.0000
  C   C709      1.0  0.21661  0.79563  0.35348  1.0000
  C   C710      1.0  0.18645  0.76256  0.36056  1.0000
  C   C711      1.0  0.11187  0.68987  0.41868  1.0000
  C   C712      1.0  0.11814  0.68195  0.43520  1.0000
  C   C713      1.0  0.15539  0.69568  0.44113  1.0000
  C   C714      1.0  0.18648  0.71688  0.43048  1.0000
  C   C715      1.0  0.18035  0.72450  0.41389  1.0000
  C   C716      1.0  0.09325  0.72578  0.38427  1.0000
  C   C717      1.0  0.09735  0.76189  0.38119  1.0000
  C   C718      1.0  0.40002  0.73020  0.45400  1.0000
  C   C719      1.0  0.03148  0.68704  0.44392  1.0000
  H   H542      1.0  0.25921  0.55737  0.23829  1.0000
  C   C720      1.0  0.05622  0.69429  0.38572  1.0000
  H   H543      1.0  0.30984  0.67708  0.45970  1.0000
  C   C721      1.0  0.28857  0.93504  0.35181  1.0000
  H   H544      1.0  0.15299  0.61086  0.37421  1.0000
  H   H545      1.0  0.16023  0.66333  0.39126  1.0000
  H   H546      1.0  0.09410  0.68771  0.35499  1.0000
  H   H547      1.0  0.18756  0.79434  0.39946  1.0000
  H   H548      1.0  0.24090  0.85239  0.38681  1.0000
  H   H549      1.0  0.25894  0.85376  0.35724  1.0000
  H   H550      1.0  0.22380  0.79659  0.34042  1.0000
  H   H551      1.0  0.17080  0.73854  0.35269  1.0000
  H   H552      1.0  0.08272  0.67840  0.41443  1.0000
  H   H553      1.0  0.09415  0.66457  0.44343  1.0000
  H   H554      1.0  0.16015  0.68941  0.45393  1.0000
  H   H555      1.0  0.21529  0.72689  0.43517  1.0000
  H   H556      1.0  0.20485  0.74001  0.40574  1.0000
  H   H557      1.0  0.12523  0.78667  0.37936  1.0000
  H   H558      1.0  0.00378  0.73916  0.38169  1.0000
  H   H559      1.0  0.45444  0.64659  0.25628  1.0000
  C   C722      1.0  0.45956  0.79694  0.40678  1.0000
  H   H560      1.0  0.05218  0.66600  0.38748  1.0000
  C   C723      1.0  0.22243  0.66171  0.33795  1.0000
  C   C724      1.0  0.23046  0.69400  0.34660  1.0000
  C   C725      1.0  0.26827  0.71990  0.35077  1.0000
  C   C726      1.0  0.29808  0.71350  0.34630  1.0000
  C   C727      1.0  0.29023  0.68114  0.33751  1.0000
  C   C728      1.0  0.25212  0.65554  0.33323  1.0000
  P   P23       1.0  0.32826  0.67274  0.33093  1.0000
  C   C729      1.0  0.37317  0.70277  0.34120  1.0000
  C   C730      1.0  0.31482  0.62367  0.33518  1.0000
  C   C731      1.0  0.33447  0.60790  0.32743  1.0000
  C   C732      1.0  0.28558  0.60116  0.34670  1.0000
  C   C733      1.0  0.39095  0.68731  0.35146  1.0000
  C   C734      1.0  0.42717  0.71075  0.35819  1.0000
  C   C735      1.0  0.44599  0.74975  0.35468  1.0000
  C   C736      1.0  0.42876  0.76526  0.34427  1.0000
  C   C737      1.0  0.39262  0.74185  0.33750  1.0000
  C   C738      1.0  0.33760  0.68444  0.30889  1.0000
  C   C739      1.0  0.37327  0.69323  0.30215  1.0000
  C   C740      1.0  0.38163  0.70448  0.28536  1.0000
  C   C741      1.0  0.35443  0.70681  0.27515  1.0000
  C   C742      1.0  0.31879  0.69759  0.28163  1.0000
  C   C743      1.0  0.31041  0.68675  0.29844  1.0000
  H   H561      1.0  0.19326  0.64199  0.33429  1.0000
  H   H562      1.0  0.20739  0.69927  0.34967  1.0000
  H   H563      1.0  0.27451  0.74539  0.35712  1.0000
  H   H564      1.0  0.32705  0.73417  0.34951  1.0000
  H   H565      1.0  0.24528  0.63096  0.32597  1.0000
  H   H566      1.0  0.35750  0.62451  0.31870  1.0000
  H   H567      1.0  0.27055  0.61257  0.35329  1.0000
  H   H568      1.0  0.37744  0.65713  0.35402  1.0000
  H   H569      1.0  0.44095  0.69841  0.36577  1.0000
  C   C744      1.0  0.10371  0.77457  0.43527  1.0000
  H   H570      1.0  0.44373  0.79528  0.34093  1.0000
  H   H571      1.0  0.38021  0.75406  0.32896  1.0000
  H   H572      1.0  0.39500  0.69213  0.30989  1.0000
  H   H573      1.0  0.40936  0.71185  0.28028  1.0000
  H   H574      1.0  0.36097  0.71613  0.26225  1.0000
  H   H575      1.0  0.29757  0.69902  0.27360  1.0000
  H   H576      1.0  0.28276  0.68058  0.30303  1.0000
  C   C745      1.0  0.29619  0.52515  0.44187  1.0000
  C   C746      1.0  0.38193  0.67211  0.40044  1.0000
  H   H577      1.0  0.37802  0.75153  0.40912  1.0000
  H   H578      1.0  0.03866  0.55334  0.26279  1.0000
  C   C747      1.0  0.40521  0.94096  0.35859  1.0000
  C   C748      1.0  0.40442  0.96184  0.39383  1.0000
  C   C749      1.0  0.41032  0.93160  0.39874  1.0000
  C   C750      1.0  0.41924  0.92738  0.41536  1.0000
  C   C751      1.0  0.42220  0.95316  0.42715  1.0000
  S   S107      1.0  0.47797  0.81398  0.26769  1.0000
  C   C752      1.0  0.32763  0.94751  0.35386  1.0000
  C   C753      1.0  0.37817  0.90270  0.35623  1.0000
  C   C754      1.0  0.38553  0.88149  0.34500  1.0000
  S   S108      1.0  0.04978  0.56159  0.46394  1.0000
  H   H579      1.0  0.35700  0.51154  0.23018  1.0000
  C   C755      1.0  0.18856  0.53390  0.44072  1.0000
  H   H580      1.0  0.34406  0.62961  0.38345  1.0000
  C   C756      1.0  0.08985  0.94546  0.43810  1.0000
  C   C757      1.0  0.34561  0.69293  0.22621  1.0000
  C   C758      1.0  0.48112  0.83653  0.40597  1.0000
  C   C759      1.0  0.01370  0.59636  0.22529  1.0000
  Fe  Fe56      1.0  0.13758  0.96874  0.36170  1.0000
  C   C760      1.0  0.06516  0.76657  0.38035  1.0000
  H   H581      1.0  0.40849  0.91154  0.38979  1.0000
  C   C761      1.0  0.34402  0.95400  0.36988  1.0000
  C   C762      1.0  0.02397  0.95149  0.37989  1.0000
  C   C763      1.0  0.02897  0.94707  0.42110  1.0000
  C   C764      1.0  0.39233  0.70697  0.40752  1.0000
  H   H582      1.0  0.35114  0.88943  0.36287  1.0000
  H   H583      1.0  0.36430  0.85227  0.34288  1.0000
  H   H584      1.0  0.41273  0.64919  0.21742  1.0000
  C   C765      1.0  0.36920  0.54172  0.22753  1.0000
  C   C766      1.0  0.04729  0.69639  0.46000  1.0000
  C   C767      1.0  0.20587  0.57154  0.44589  1.0000
  C   C768      1.0  0.09033  0.78413  0.27913  1.0000
  H   H585      1.0  0.33216  0.95275  0.39630  1.0000
  C   C769      1.0  0.26549  0.92850  0.36573  1.0000
  C   C770      1.0  0.00740  0.62046  0.45065  1.0000
  C   C771      1.0  0.29596  0.60131  0.22032  1.0000
  S   S109      1.0  0.22684  0.96987  0.40761  1.0000
  C   C772      1.0  0.32394  0.56994  0.33060  1.0000
  H   H586      1.0  0.25148  0.54549  0.35809  1.0000
  C   C773      1.0  0.07297  0.92260  0.42443  1.0000
  C   C774      1.0  0.13278  0.71494  0.22422  1.0000
  C   C775      1.0  0.06829  0.80179  0.44729  1.0000
  C   C776      1.0  0.07494  0.82456  0.43288  1.0000
  C   C777      1.0  0.09684  0.82317  0.41991  1.0000
  C   C778      1.0  0.18282  0.95155  0.45883  1.0000
  H   H587      1.0  0.44509  0.78216  0.39566  1.0000
  H   H588      1.0  0.27595  0.93032  0.33944  1.0000
  H   H589      1.0  0.32973  0.73910  0.44604  1.0000
  H   H590      1.0  0.42936  0.95003  0.44000  1.0000
  Fe  Fe57      1.0  0.35222  0.50962  0.29474  1.0000
  C   C779      1.0  0.99834  0.83982  0.38093  1.0000
  H   H591      1.0  0.06262  0.84292  0.43163  1.0000
  H   H592      1.0  0.10178  0.84082  0.40876  1.0000
  H   H593      1.0  0.06852  0.79456  0.37811  1.0000
  C   C780      1.0  0.37880  0.65581  0.46402  1.0000
  C   C781      1.0  0.30952  0.71355  0.43984  1.0000
  C   C782      1.0  0.29372  0.71590  0.42451  1.0000
  C   C783      1.0  0.26789  0.68280  0.41653  1.0000
  C   C784      1.0  0.25770  0.64741  0.42396  1.0000
  C   C785      1.0  0.27233  0.64492  0.43970  1.0000
  H   H594      1.0  0.41828  0.78297  0.23173  1.0000
  H   H595      1.0  0.19497  0.53591  0.25510  1.0000
  H   H596      1.0  0.39677  0.65681  0.40395  1.0000
  C   C786      1.0  0.47761  0.71301  0.40316  1.0000
  H   H597      1.0  0.36044  0.59132  0.26289  1.0000
  H   H598      1.0  0.05119  0.80358  0.45710  1.0000
  H   H599      1.0  0.34508  0.95225  0.34291  1.0000
  H   H600      1.0  0.12823  0.79726  0.41103  1.0000
  H   H601      1.0  0.35189  0.59257  0.41307  1.0000
  C   C787      1.0  0.40087  0.69270  0.23858  1.0000
  H   H602      1.0  0.46140  0.98675  0.35133  1.0000
  H   H603      1.0  0.30154  0.74338  0.41886  1.0000
  H   H604      1.0  0.25562  0.68452  0.40463  1.0000
  H   H605      1.0  0.23766  0.62197  0.41766  1.0000
  H   H606      1.0  0.22896  0.50428  0.30120  1.0000
  C   C788      1.0  0.04246  0.92314  0.41608  1.0000
  C   C789      1.0  0.36540  0.73257  0.22593  1.0000
  H   H607      1.0  0.32066  0.54348  0.23723  1.0000
  C   C790      1.0  0.35204  0.65658  0.38887  1.0000
  H   H608      1.0  0.05837  0.85134  0.21589  1.0000
  C   C791      1.0  0.32054  0.94750  0.38380  1.0000
  C   C792      1.0  0.17114  0.77616  0.23649  1.0000
  C   C793      1.0  0.29645  0.59582  0.28830  1.0000
  H   H609      1.0  0.05639  0.51320  0.28049  1.0000
  H   H610      1.0  0.09830  0.80970  0.28581  1.0000
  H   H611      1.0  0.28006  0.63018  0.25181  1.0000
  H   H612      1.0  0.47426  0.76783  0.35967  1.0000
  C   C794      1.0  0.44002  0.95738  0.34980  1.0000
  H   H613      1.0  0.47778  0.78230  0.44721  1.0000
  H   H614      1.0  0.29922  0.75924  0.46469  1.0000
  H   H615      1.0  0.26348  0.92981  0.39247  1.0000
  H   H616      1.0  0.41449  0.67781  0.24425  1.0000
  P   P24       1.0  0.25700  0.59911  0.44970  1.0000
  H   H617      1.0  0.17384  0.80154  0.24173  1.0000
  H   H618      1.0  0.42431  0.90440  0.41915  1.0000
  C   C795      1.0  0.31029  0.59556  0.42870  1.0000
  H   H619      1.0  0.04905  0.79222  0.22995  1.0000
  H   H620      1.0  0.33743  0.57677  0.29189  1.0000
  C   C796      1.0  0.36355  0.67268  0.23217  1.0000
  H   H621      1.0  0.07313  0.74833  0.30140  1.0000
  C   C797      1.0  0.33809  0.59685  0.26664  1.0000
  H   H622      1.0  0.20500  0.51993  0.43902  1.0000
  S   S110      1.0  0.48818  0.72298  0.26713  1.0000
  C   C798      1.0  0.29855  0.67824  0.44751  1.0000
  C   C799      1.0  0.28140  0.93443  0.38170  1.0000
  C   C800      1.0  0.40306  0.75226  0.23175  1.0000
  H   H623      1.0  0.19550  0.61782  0.45086  1.0000
  C   C801      1.0  0.46442  0.71146  0.41942  1.0000
  H   H624      1.0  0.31661  0.62307  0.42365  1.0000
  C   C802      1.0  0.29293  0.61863  0.26043  1.0000
  H   H625      1.0  0.11706  0.59705  0.34752  1.0000
  C   C803      1.0  0.32366  0.54350  0.42938  1.0000
  P   P25       1.0  0.33733  0.62155  0.23375  1.0000
  H   H626      1.0  0.05771  0.69020  0.28652  1.0000
  C   C804      1.0  0.99670  0.83846  0.36353  1.0000
  H   H627      1.0  0.25799  0.61612  0.28097  1.0000
  C   C805      1.0  0.19935  0.73707  0.23097  1.0000
  C   C806      1.0  0.42072  0.73231  0.23808  1.0000
  H   H628      1.0  0.47396  0.94892  0.33169  1.0000
  H   H629      1.0  0.11357  0.94506  0.44449  1.0000
  C   C807      1.0  0.99696  0.50683  0.24851  1.0000
  P   P26       1.0  0.42943  0.72587  0.42316  1.0000
  H   H630      1.0  0.15262  0.77103  0.45716  1.0000
  H   H631      1.0  0.15072  0.85928  0.45058  1.0000
  H   H632      1.0  0.12620  0.58137  0.44565  1.0000
  C   C808      1.0  0.47821  0.79704  0.43564  1.0000
  H   H633      1.0  0.05107  0.96769  0.38621  1.0000
  H   H634      1.0  0.22958  0.79133  0.24228  1.0000
  C   C809      1.0  0.40053  0.61941  0.22064  1.0000
  H   H635      1.0  0.42120  0.54815  0.21722  1.0000
  H   H636      1.0  0.47194  0.70098  0.44545  1.0000
  H   H637      1.0  0.42545  0.88185  0.32727  1.0000
  H   H638      1.0  0.02947  0.90504  0.40560  1.0000
  H   H639      1.0  0.46732  0.72339  0.39285  1.0000
  C   C810      1.0  0.01755  0.69899  0.22810  1.0000
  H   H640      1.0  0.28533  0.51773  0.34355  1.0000
  C   C811      1.0  0.44732  0.93600  0.33865  1.0000
  H   H641      1.0  0.01351  0.70418  0.24083  1.0000
  C   C812      1.0  0.47992  0.70015  0.43273  1.0000
  C   C813      1.0  0.17654  0.91991  0.45007  1.0000
  H   H642      1.0  0.05116  0.95567  0.35637  1.0000
  H   H643      1.0  0.11323  0.75392  0.43551  1.0000
  C   C814      1.0  0.00834  0.61126  0.25365  1.0000
  C   C815      1.0  0.41646  0.98333  0.42237  1.0000
  H   H644      1.0  0.19978  0.97963  0.45315  1.0000
  C   C816      1.0  0.03461  0.50044  0.27095  1.0000
  H   H645      1.0  0.16120  0.68259  0.22087  1.0000
  H   H646      1.0  0.48585  0.53038  0.27414  1.0000
  H   H647      1.0  0.20377  0.52869  0.21959  1.0000
  H   H648      1.0  0.00013  0.64202  0.42681  1.0000
  H   H649      1.0  0.46646  0.57510  0.46308  1.0000
  C   C817      1.0  0.40540  0.56236  0.22022  1.0000
  S   S111      1.0  0.33501  0.50467  0.26791  1.0000
  H   H650      1.0  0.35130  0.74805  0.22151  1.0000
  H   H651      1.0  0.08913  0.98663  0.45404  1.0000
  H   H652      1.0  0.31606  0.67828  0.22219  1.0000
  H   H653      1.0  0.03594  0.98834  0.43923  1.0000
  C   C818      1.0  0.26167  0.56963  0.22582  1.0000
  C   C819      1.0  0.05370  0.71848  0.22041  1.0000
  C   C820      1.0  0.42097  0.60114  0.21669  1.0000
  H   H654      1.0  0.99265  0.59108  0.44709  1.0000
  H   H655      1.0  0.99557  0.67471  0.38594  1.0000
  C   C821      1.0  0.99312  0.99273  0.41236  1.0000
  H   H656      1.0  0.01669  0.50943  0.21562  1.0000
  Fe  Fe58      1.0  0.09124  0.59081  0.48520  1.0000
  S   S112      1.0  0.08252  0.57431  0.51254  1.0000
  C   C822      1.0  0.15843  0.89848  0.65887  1.0000
  Fe  Fe59      1.0  0.17232  0.65797  0.49067  1.0000
  S   S113      1.0  0.16890  0.64583  0.51821  1.0000
  S   S114      1.0  0.22419  0.70404  0.47651  1.0000
  Fe  Fe60      1.0  0.14312  0.58472  0.51150  1.0000
  S   S115      1.0  0.16463  0.54725  0.52360  1.0000
  Fe  Fe61      1.0  0.10887  0.63722  0.51660  1.0000
  S   S116      1.0  0.09253  0.66452  0.53725  1.0000
  S   S117      1.0  0.14988  0.59745  0.48407  1.0000
  S   S118      1.0  0.11406  0.65307  0.48918  1.0000
  S   S119      1.0  0.05096  0.89095  0.59821  1.0000
  Fe  Fe62      1.0  0.44327  0.82366  0.50269  1.0000
  S   S120      1.0  0.45276  0.81680  0.47593  1.0000
  S   S121      1.0  0.38382  0.79771  0.51410  1.0000
  C   C823      1.0  0.01699  0.70237  0.52597  1.0000
  C   C824      1.0  0.20076  0.92609  0.70228  1.0000
  S   S122      1.0  0.48898  0.88526  0.50322  1.0000
  C   C825      1.0  0.18304  0.93273  0.66656  1.0000
  Fe  Fe63      1.0  0.37580  0.53446  0.50469  1.0000
  S   S123      1.0  0.40274  0.59224  0.51583  1.0000
  S   S124      1.0  0.35457  0.52445  0.47837  1.0000
  C   C826      1.0  0.46889  0.70508  0.48626  1.0000
  C   C827      1.0  0.44895  0.70237  0.50081  1.0000
  C   C828      1.0  0.42843  0.66753  0.50958  1.0000
  C   C829      1.0  0.42656  0.63467  0.50364  1.0000
  C   C830      1.0  0.44543  0.63690  0.48878  1.0000
  C   C831      1.0  0.46715  0.67213  0.48030  1.0000
  H   H657      1.0  0.19758  0.93351  0.52393  1.0000
  H   H658      1.0  0.41397  0.66609  0.52108  1.0000
  H   H659      1.0  0.44432  0.61175  0.48418  1.0000
  H   H660      1.0  0.48305  0.67382  0.46930  1.0000
  C   C832      1.0  0.07553  0.93402  0.58637  1.0000
  C   C833      1.0  0.08777  0.96853  0.59417  1.0000
  C   C834      1.0  0.10958  0.96931  0.56127  1.0000
  C   C835      1.0  0.08578  0.93457  0.56973  1.0000
  H   H661      1.0  0.07982  0.96839  0.60700  1.0000
  C   C836      1.0  0.44852  0.89740  0.68962  1.0000
  H   H662      1.0  0.07666  0.90819  0.56361  1.0000
  C   C837      1.0  0.26877  0.72902  0.48696  1.0000
  C   C838      1.0  0.27188  0.72445  0.50417  1.0000
  C   C839      1.0  0.30739  0.74529  0.51220  1.0000
  C   C840      1.0  0.34042  0.77047  0.50313  1.0000
  C   C841      1.0  0.33747  0.77483  0.48585  1.0000
  C   C842      1.0  0.30166  0.75457  0.47787  1.0000
  H   H663      1.0  0.24687  0.70540  0.51141  1.0000
  H   H664      1.0  0.30928  0.74199  0.52558  1.0000
  H   H665      1.0  0.36250  0.79475  0.47878  1.0000
  H   H666      1.0  0.01005  0.89350  0.52749  1.0000
  C   C843      1.0  0.18757  0.52835  0.51166  1.0000
  H   H667      1.0  0.44951  0.72714  0.50548  1.0000
  H   H668      1.0  0.47481  0.56973  0.49353  1.0000
  H   H669      1.0  0.21393  0.51759  0.53319  1.0000
  H   H670      1.0  0.35005  0.97842  0.63759  1.0000
  C   C844      1.0  0.26062  0.98302  0.67980  1.0000
  H   H671      1.0  0.25810  0.98865  0.65287  1.0000
  C   C845      1.0  0.48436  0.95732  0.47136  1.0000
  H   H672      1.0  0.30131  0.57954  0.47471  1.0000
  H   H673      1.0  0.16383  0.91667  0.55857  1.0000
  H   H674      1.0  0.18426  0.85452  0.68892  1.0000
  C   C846      1.0  0.01811  0.72200  0.54028  1.0000
  C   C847      1.0  0.03863  0.68374  0.52500  1.0000
  C   C848      1.0  0.06258  0.68534  0.53816  1.0000
  C   C849      1.0  0.06328  0.70448  0.55257  1.0000
  C   C850      1.0  0.04100  0.72242  0.55370  1.0000
  C   C851      1.0  0.18876  0.95469  0.52320  1.0000
  H   H675      1.0  0.03699  0.66836  0.51403  1.0000
  H   H676      1.0  0.08127  0.70550  0.56295  1.0000
  C   C852      1.0  0.32967  0.98369  0.63068  1.0000
  C   C853      1.0  0.35307  0.97135  0.69314  1.0000
  H   H677      1.0  0.34274  0.95577  0.68183  1.0000
  H   H678      1.0  0.04203  0.73708  0.56486  1.0000
  C   C854      1.0  0.29010  0.70428  0.71252  1.0000
  C   C855      1.0  0.11051  0.74259  0.49542  1.0000
  C   C856      1.0  0.00012  0.87140  0.50278  1.0000
  H   H679      1.0  0.23230  0.63402  0.47447  1.0000
  C   C857      1.0  0.37002  0.87044  0.69280  1.0000
  H   H680      1.0  0.14703  0.98655  0.64926  1.0000
  H   H681      1.0  0.28524  0.92516  0.63125  1.0000
  C   C858      1.0  0.27684  0.99772  0.61292  1.0000
  C   C859      1.0  0.14391  0.90555  0.60006  1.0000
  C   C860      1.0  0.23351  0.90133  0.67670  1.0000
  H   H682      1.0  0.33099  0.59248  0.69964  1.0000
  H   H683      1.0  0.18491  0.52688  0.68121  1.0000
  H   H684      1.0  0.11094  0.86955  0.64200  1.0000
  C   C861      1.0  0.13975  0.87899  0.47335  1.0000
  C   C862      1.0  0.21057  0.98870  0.53139  1.0000
  C   C863      1.0  0.31013  0.75734  0.69285  1.0000
  H   H685      1.0  0.43794  0.99428  0.70155  1.0000
  C   C864      1.0  0.02530  0.78278  0.50122  1.0000
  H   H686      1.0  0.12093  0.97294  0.50620  1.0000
  C   C865      1.0  0.42270  0.87001  0.67887  1.0000
  C   C866      1.0  0.14120  0.74333  0.50420  1.0000
  H   H687      1.0  0.35079  0.76314  0.67420  1.0000
  H   H688      1.0  0.08397  0.73336  0.50197  1.0000
  H   H689      1.0  0.36350  0.83571  0.67200  1.0000
  C   C867      1.0  0.20333  0.96400  0.59429  1.0000
  H   H690      1.0  0.33961  0.86028  0.69400  1.0000
  C   C868      1.0  0.16207  0.82909  0.51945  1.0000
  C   C869      1.0  0.13508  0.80753  0.53178  1.0000
  C   C870      1.0  0.10683  0.81628  0.53588  1.0000
  C   C871      1.0  0.10500  0.84603  0.52749  1.0000
  C   C872      1.0  0.13095  0.86685  0.51458  1.0000
  C   C873      1.0  0.16021  0.85879  0.51094  1.0000
  P   P27       1.0  0.12792  0.90476  0.50340  1.0000
  H   H691      1.0  0.99905  0.70133  0.51558  1.0000
  C   C874      1.0  0.14627  0.91067  0.48236  1.0000
  C   C875      1.0  0.06158  0.89942  0.51669  1.0000
  C   C876      1.0  0.39576  0.89779  0.70359  1.0000
  H   H692      1.0  0.05191  0.67338  0.48416  1.0000
  C   C877      1.0  0.19923  0.50736  0.48545  1.0000
  C   C878      1.0  0.17938  0.76431  0.47907  1.0000
  H   H693      1.0  0.11469  0.87242  0.57883  1.0000
  C   C879      1.0  0.26674  0.96073  0.61844  1.0000
  C   C880      1.0  0.13990  0.89751  0.58313  1.0000
  C   C881      1.0  0.18238  0.52454  0.49439  1.0000
  P   P28       1.0  0.46912  0.94803  0.71525  1.0000
  C   C882      1.0  0.07818  0.89289  0.50280  1.0000
  C   C883      1.0  0.05525  0.87563  0.48885  1.0000
  P   P29       1.0  0.21931  0.93591  0.68117  1.0000
  C   C884      1.0  0.31407  0.69358  0.70470  1.0000
  H   H694      1.0  0.30828  0.78180  0.68839  1.0000
  H   H695      1.0  0.24222  0.91077  0.71174  1.0000
  H   H696      1.0  0.18438  0.82265  0.51648  1.0000
  H   H697      1.0  0.13606  0.78410  0.53825  1.0000
  H   H698      1.0  0.08603  0.79983  0.54554  1.0000
  H   H699      1.0  0.08281  0.85203  0.53107  1.0000
  H   H700      1.0  0.18161  0.87534  0.50154  1.0000
  C   C885      1.0  0.47629  0.98700  0.47279  1.0000
  H   H701      1.0  0.03518  0.80278  0.51116  1.0000
  C   C886      1.0  0.38346  0.85660  0.68044  1.0000
  C   C887      1.0  0.21059  0.86338  0.68214  1.0000
  H   H702      1.0  0.20593  0.77179  0.47272  1.0000
  C   C888      1.0  0.29313  0.95381  0.62721  1.0000
  C   C889      1.0  0.25893  0.57438  0.70793  1.0000
  C   C890      1.0  0.28801  0.73583  0.70649  1.0000
  H   H703      1.0  0.20466  0.80771  0.68384  1.0000
  H   H704      1.0  0.21990  0.97493  0.56824  1.0000
  H   H705      1.0  0.99866  0.85129  0.47818  1.0000
  C   C891      1.0  0.15022  0.96197  0.65198  1.0000
  H   H706      1.0  0.26545  0.64582  0.68213  1.0000
  H   H707      1.0  0.07838  0.91221  0.52773  1.0000
  H   H708      1.0  0.10390  0.92588  0.63575  1.0000
  H   H709      1.0  0.43315  0.85937  0.66925  1.0000
  C   C892      1.0  0.02276  0.88873  0.51665  1.0000
  C   C893      1.0  0.14867  0.76355  0.47025  1.0000
  H   H710      1.0  0.08152  0.79426  0.49459  1.0000
  P   P30       1.0  0.07131  0.74476  0.46669  1.0000
  C   C894      1.0  0.39144  0.62087  0.69552  1.0000
  C   C895      1.0  0.26757  0.91192  0.66804  1.0000
  S   S125      1.0  0.48316  0.80396  0.51282  1.0000
  C   C896      1.0  0.25620  0.84762  0.67082  1.0000
  H   H711      1.0  0.38475  0.90864  0.71287  1.0000
  P   P31       1.0  0.31343  0.65040  0.71131  1.0000
  C   C897      1.0  0.03800  0.75007  0.47964  1.0000
  H   H712      1.0  0.16090  0.87347  0.66136  1.0000
  C   C898      1.0  0.17544  0.93867  0.60563  1.0000
  C   C899      1.0  0.14580  0.97683  0.51321  1.0000
  H   H713      1.0  0.26535  0.82708  0.66890  1.0000
  H   H714      1.0  0.11848  0.96937  0.54865  1.0000
  C   C900      1.0  0.15594  0.94835  0.51420  1.0000
  S   S126      1.0  0.30856  0.90259  0.70925  1.0000
  C   C901      1.0  0.35726  0.61930  0.70010  1.0000
  C   C902      1.0  0.35745  0.65191  0.70546  1.0000
  H   H715      1.0  0.37134  0.62728  0.46810  1.0000
  C   C903      1.0  0.05129  0.77748  0.49193  1.0000
  C   C904      1.0  0.27892  0.88517  0.66518  1.0000
  C   C905      1.0  0.33555  0.71476  0.69068  1.0000
  C   C906      1.0  0.27312  0.61138  0.70144  1.0000
  C   C907      1.0  0.20969  0.55043  0.68670  1.0000
  H   H716      1.0  0.28606  0.94097  0.66395  1.0000
  C   C908      1.0  0.25529  0.61761  0.68741  1.0000
  C   C909      1.0  0.17554  0.75390  0.49600  1.0000
  H   H717      1.0  0.23579  0.99357  0.53838  1.0000
  H   H718      1.0  0.48145  0.98305  0.51356  1.0000
  C   C910      1.0  0.19919  0.95568  0.57728  1.0000
  H   H719      1.0  0.26882  0.74334  0.71235  1.0000
  C   C911      1.0  0.24853  0.62278  0.48085  1.0000
  H   H720      1.0  0.38135  0.73449  0.47855  1.0000
  C   C912      1.0  0.22759  0.54402  0.70050  1.0000
  C   C913      1.0  0.12995  0.89607  0.64788  1.0000
  C   C914      1.0  0.42600  0.65499  0.69616  1.0000
  H   H721      1.0  0.17324  0.97202  0.48145  1.0000
  H   H722      1.0  0.45345  0.71368  0.70265  1.0000
  C   C915      1.0  0.01637  0.86496  0.48887  1.0000
  C   C916      1.0  0.12582  0.92778  0.64442  1.0000
  H   H723      1.0  0.12172  0.88661  0.60874  1.0000
  C   C917      1.0  0.16772  0.94702  0.47489  1.0000
  H   H724      1.0  0.17793  0.94488  0.61873  1.0000
  H   H725      1.0  0.12322  0.85070  0.47876  1.0000
  H   H726      1.0  0.30587  0.89378  0.65899  1.0000
  H   H727      1.0  0.36357  0.66904  0.48751  1.0000
  H   H728      1.0  0.16466  0.53400  0.48798  1.0000
  H   H729      1.0  0.21691  0.51552  0.70563  1.0000
  C   C918      1.0  0.21005  0.51510  0.51982  1.0000
  H   H730      1.0  0.06700  0.86986  0.47804  1.0000
  H   H731      1.0  0.39376  0.71107  0.71123  1.0000
  H   H732      1.0  0.20960  0.59223  0.66948  1.0000
  C   C919      1.0  0.17857  0.96444  0.66307  1.0000
  C   C920      1.0  0.39251  0.68586  0.70647  1.0000
  C   C921      1.0  0.22358  0.58722  0.68014  1.0000
  C   C922      1.0  0.42650  0.68747  0.70161  1.0000
  C   C923      1.0  0.22199  0.83671  0.67925  1.0000
  C   C924      1.0  0.16753  0.92255  0.57174  1.0000
  H   H733      1.0  0.39118  0.59546  0.69171  1.0000
  H   H734      1.0  0.19893  0.75320  0.50266  1.0000
  C   C925      1.0  0.25381  0.62717  0.49806  1.0000
  C   C926      1.0  0.27565  0.61414  0.50670  1.0000
  C   C927      1.0  0.29262  0.59704  0.49808  1.0000
  C   C928      1.0  0.28731  0.59249  0.48086  1.0000
  C   C929      1.0  0.11359  0.75212  0.47829  1.0000
  H   H735      1.0  0.13791  0.73451  0.51728  1.0000
  H   H736      1.0  0.24077  0.64057  0.50476  1.0000
  H   H737      1.0  0.27934  0.61726  0.52007  1.0000
  H   H738      1.0  0.30981  0.58712  0.50479  1.0000
  C   C930      1.0  0.26458  0.60474  0.47207  1.0000
  H   H739      1.0  0.23877  0.93704  0.61592  1.0000
  C   C931      1.0  0.33397  0.74683  0.68493  1.0000
  H   H740      1.0  0.35302  0.70621  0.68398  1.0000
  H   H741      1.0  0.47469  0.93512  0.48092  1.0000
  H   H742      1.0  0.45258  0.65601  0.69297  1.0000
  H   H743      1.0  0.19412  0.50363  0.47223  1.0000
  H   H744      1.0  0.19683  0.99109  0.66895  1.0000
  H   H745      1.0  0.15565  0.93957  0.69726  1.0000
  H   H746      1.0  0.01782  0.60713  0.47574  1.0000
  C   C932      1.0  0.34163  0.95196  0.70869  1.0000
  Fe  Fe64      1.0  0.00392  0.83896  0.58576  1.0000
  C   C933      1.0  0.02176  0.62948  0.46682  1.0000
  C   C934      1.0  0.37448  0.67933  0.47499  1.0000
  H   H747      1.0  0.46058  0.98750  0.48351  1.0000
  H   H748      1.0  0.47892  0.90796  0.68813  1.0000
  H   H749      1.0  0.27322  0.98673  0.70633  1.0000
  C   C935      1.0  0.43518  0.91109  0.70220  1.0000
  C   C936      1.0  0.38480  0.71639  0.46995  1.0000
  C   C937      1.0  0.04145  0.66720  0.47150  1.0000
  H   H750      1.0  0.48777  0.94129  0.53518  1.0000
  C   C938      1.0  0.99844  0.72848  0.47668  1.0000
  C   C939      1.0  0.16927  0.93016  0.70651  1.0000
  C   C940      1.0  0.99297  0.53701  0.70862  1.0000
  C   C941      1.0  0.48991  0.99074  0.70221  1.0000
  S   S127      1.0  0.99562  0.77989  0.58808  1.0000
  H   H751      1.0  0.04075  0.59133  0.71483  1.0000
  C   C942      1.0  0.02960  0.56099  0.71492  1.0000
  C   C943      1.0  0.21774  0.91387  0.71465  1.0000
  H   H752      1.0  0.03301  0.50102  0.48892  1.0000
  H   H753      1.0  0.48464  0.67214  0.65966  1.0000
  C   C944      1.0  0.01310  0.51359  0.46578  1.0000
  Fe  Fe65      1.0  0.03845  0.82813  0.82448  1.0000
  S   S128      1.0  0.06840  0.84133  0.84921  1.0000
  S   S129      1.0  0.06288  0.82261  0.79990  1.0000
  Fe  Fe66      1.0  0.04465  0.88081  0.85184  1.0000
  S   S130      1.0  0.07942  0.93943  0.86243  1.0000
  S   S131      1.0  0.01793  0.87033  0.82650  1.0000
  Fe  Fe67      1.0  0.25477  0.83538  0.76628  1.0000
  H   H754      1.0  0.06220  0.77332  0.82821  1.0000
  S   S132      1.0  0.23184  0.85061  0.78879  1.0000
  Fe  Fe68      1.0  0.32195  0.82342  0.75670  1.0000
  H   H755      1.0  0.20401  0.70077  0.76621  1.0000
  S   S133      1.0  0.37298  0.81979  0.76733  1.0000
  H   H756      1.0  0.03808  0.53928  0.90242  1.0000
  C   C945      1.0  0.08377  0.98314  0.83412  1.0000
  Fe  Fe69      1.0  0.24354  0.77676  0.74108  1.0000
  C   C946      1.0  0.03641  0.50825  0.84957  1.0000
  S   S134      1.0  0.31539  0.87532  0.75788  1.0000
  S   S135      1.0  0.26350  0.78480  0.76758  1.0000
  Fe  Fe70      1.0  0.46022  0.65196  0.76129  1.0000
  H   H757      1.0  0.22868  0.91263  0.77075  1.0000
  S   S136      1.0  0.40287  0.61159  0.77330  1.0000
  C   C947      1.0  0.47219  0.56428  0.74213  1.0000
  H   H758      1.0  0.15339  0.58187  0.73513  1.0000
  S   S137      1.0  0.14792  0.56267  0.77088  1.0000
  C   C948      1.0  0.36126  0.58262  0.76169  1.0000
  C   C949      1.0  0.32553  0.56612  0.76969  1.0000
  C   C950      1.0  0.29181  0.54152  0.76120  1.0000
  H   H759      1.0  0.04846  0.54572  0.81198  1.0000
  C   C951      1.0  0.01247  0.57178  0.93545  1.0000
  C   C952      1.0  0.08288  0.95479  0.78624  1.0000
  H   H760      1.0  0.32392  0.57228  0.78256  1.0000
  H   H761      1.0  0.22674  0.89627  0.84485  1.0000
  H   H762      1.0  0.39133  0.97462  0.93944  1.0000
  C   C953      1.0  0.27098  0.62634  0.74089  1.0000
  C   C954      1.0  0.19325  0.67505  0.75937  1.0000
  C   C955      1.0  0.18069  0.64009  0.76802  1.0000
  C   C956      1.0  0.16604  0.60624  0.75938  1.0000
  H   H763      1.0  0.06388  0.89728  0.79471  1.0000
  C   C957      1.0  0.03781  0.50688  0.72141  1.0000
  H   H764      1.0  0.18225  0.63919  0.78147  1.0000
  H   H765      1.0  0.24565  0.61627  0.73316  1.0000
  C   C958      1.0  0.18128  0.90225  0.85549  1.0000
  C   C959      1.0  0.39771  0.80104  0.75648  1.0000
  H   H766      1.0  0.13734  0.91426  0.86317  1.0000
  H   H767      1.0  0.08052  0.56458  0.72604  1.0000
  C   C960      1.0  0.17174  0.90930  0.73502  1.0000
  C   C961      1.0  0.43996  0.77369  0.75784  1.0000
  C   C962      1.0  0.41655  0.78518  0.76574  1.0000
  H   H768      1.0  0.27233  0.68797  0.72305  1.0000
  H   H769      1.0  0.48942  0.95336  0.76834  1.0000
  C   C963      1.0  0.09080  0.74507  0.81861  1.0000
  H   H770      1.0  0.41352  0.78234  0.77917  1.0000
  H   H771      1.0  0.09575  0.52622  0.84488  1.0000
  C   C964      1.0  0.12202  0.93496  0.80208  1.0000
  H   H772      1.0  0.33105  0.54168  0.72401  1.0000
  C   C965      1.0  0.18411  0.84078  0.79172  1.0000
  C   C966      1.0  0.17343  0.84699  0.80739  1.0000
  C   C967      1.0  0.13660  0.84184  0.81008  1.0000
  C   C968      1.0  0.10977  0.82980  0.79714  1.0000
  C   C969      1.0  0.12027  0.82305  0.78152  1.0000
  C   C970      1.0  0.15728  0.82856  0.77880  1.0000
  H   H773      1.0  0.19394  0.85615  0.81747  1.0000
  H   H774      1.0  0.12899  0.84711  0.82218  1.0000
  H   H775      1.0  0.09966  0.81350  0.77146  1.0000
  H   H776      1.0  0.16507  0.82362  0.76668  1.0000
  C   C971      1.0  0.09122  0.98220  0.85120  1.0000
  C   C972      1.0  0.11241  0.74167  0.85168  1.0000
  C   C973      1.0  0.41830  0.64964  0.95971  1.0000
  H   H777      1.0  0.06959  0.95706  0.82745  1.0000
  H   H778      1.0  0.36032  0.66223  0.76946  1.0000
  H   H779      1.0  0.42006  0.89312  0.74067  1.0000
  C   C974      1.0  0.01072  0.51569  0.85796  1.0000
  C   C975      1.0  0.29364  0.53214  0.74478  1.0000
  C   C976      1.0  0.46120  0.62400  0.81029  1.0000
  C   C977      1.0  0.06408  0.57062  0.87008  1.0000
  C   C978      1.0  0.00811  0.66640  0.85110  1.0000
  C   C979      1.0  0.40197  0.80466  0.73909  1.0000
  H   H780      1.0  0.42345  0.76525  0.81438  1.0000
  H   H781      1.0  0.13040  0.92469  0.72604  1.0000
  C   C980      1.0  0.01830  0.63595  0.87563  1.0000
  S   S138      1.0  0.23103  0.82515  0.74023  1.0000
  C   C981      1.0  0.15486  0.92178  0.72283  1.0000
  H   H782      1.0  0.34759  0.95783  0.73529  1.0000
  S   S139      1.0  0.30266  0.81240  0.73019  1.0000
  H   H783      1.0  0.37503  0.50409  0.81443  1.0000
  C   C982      1.0  0.05204  0.54596  0.72127  1.0000
  H   H784      1.0  0.37974  0.50145  0.76075  1.0000
  H   H785      1.0  0.08088  0.76996  0.85755  1.0000
  C   C983      1.0  0.33533  0.65257  0.76151  1.0000
  C   C984      1.0  0.41172  0.53335  0.85142  1.0000
  H   H786      1.0  0.29518  0.63012  0.78191  1.0000
  C   C985      1.0  0.40216  0.49951  0.86025  1.0000
  H   H787      1.0  0.07516  0.59514  0.87784  1.0000
  H   H788      1.0  0.26461  0.52887  0.76758  1.0000
  C   C986      1.0  0.99852  0.60068  0.86808  1.0000
  H   H789      1.0  0.43285  0.82089  0.96391  1.0000
  H   H790      1.0  0.40262  0.96184  0.77483  1.0000
  H   H791      1.0  0.38777  0.81696  0.73179  1.0000
  C   C987      1.0  0.38300  0.50583  0.78773  1.0000
  H   H792      1.0  0.45836  0.96781  0.95426  1.0000
  C   C988      1.0  0.47875  0.55143  0.85292  1.0000
  C   C989      1.0  0.02500  0.55258  0.90910  1.0000
  Fe  Fe71      1.0  0.14470  0.51072  0.75948  1.0000
  C   C990      1.0  0.41499  0.95944  0.76335  1.0000
  C   C991      1.0  0.45211  0.98813  0.73818  1.0000
  C   C992      1.0  0.19067  0.67637  0.74196  1.0000
  C   C993      1.0  0.44045  0.58707  0.80456  1.0000
  H   H793      1.0  0.23809  0.60712  0.76364  1.0000
  C   C994      1.0  0.08732  0.92627  0.79437  1.0000
  H   H794      1.0  0.16039  0.90249  0.74763  1.0000
  C   C995      1.0  0.20319  0.90537  0.73091  1.0000
  H   H795      1.0  0.12026  0.58170  0.86296  1.0000
  C   C996      1.0  0.47713  0.51318  0.76494  1.0000
  H   H796      1.0  0.17435  0.64327  0.71984  1.0000
  C   C997      1.0  0.21582  0.94380  0.78819  1.0000
  H   H797      1.0  0.02980  0.63847  0.88810  1.0000
  H   H798      1.0  0.47829  0.52388  0.81946  1.0000
  H   H799      1.0  0.43797  0.57062  0.76060  1.0000
  C   C998      1.0  0.02442  0.54664  0.86848  1.0000
  H   H800      1.0  0.04754  0.54603  0.93287  1.0000
  H   H801      1.0  0.43469  0.63946  0.95322  1.0000
  S   S140      1.0  0.46814  0.66791  0.73418  1.0000
  H   H802      1.0  0.05583  0.94807  0.78054  1.0000
  C   C999      1.0  0.02295  0.66860  0.86715  1.0000
  C   C1000     1.0  0.32938  0.54882  0.73671  1.0000
  H   H803      1.0  0.22351  0.63538  0.95972  1.0000
  H   H804      1.0  0.01064  0.69162  0.84486  1.0000
  C   C1001     1.0  0.36457  0.53406  0.96037  1.0000
  H   H805      1.0  0.40814  0.51211  0.92607  1.0000
  H   H806      1.0  0.42973  0.79737  0.71781  1.0000
  H   H807      1.0  0.36580  0.61473  0.94660  1.0000
  S   S141      1.0  0.20267  0.71914  0.73065  1.0000
  H   H808      1.0  0.01595  0.57387  0.94888  1.0000
  C   C1002     1.0  0.08967  0.56319  0.86163  1.0000
  H   H809      1.0  0.29193  0.68277  0.96277  1.0000
  H   H810      1.0  0.44626  0.63877  0.81372  1.0000
  C   C1003     1.0  0.12381  0.72643  0.83908  1.0000
  C   C1004     1.0  0.11282  0.72769  0.82244  1.0000
  C   C1005     1.0  0.15258  0.97239  0.80166  1.0000
  P   P32       1.0  0.12731  0.70689  0.80651  1.0000
  C   C1006     1.0  0.11724  0.71799  0.78567  1.0000
  C   C1007     1.0  0.17825  0.72525  0.80872  1.0000
  C   C1008     1.0  0.20228  0.76405  0.81116  1.0000
  C   C1009     1.0  0.24200  0.77939  0.81182  1.0000
  C   C1010     1.0  0.25804  0.75610  0.81007  1.0000
  C   C1011     1.0  0.23430  0.71733  0.80786  1.0000
  C   C1012     1.0  0.19454  0.70187  0.80727  1.0000
  C   C1013     1.0  0.07912  0.70490  0.78077  1.0000
  C   C1014     1.0  0.07057  0.71091  0.76436  1.0000
  C   C1015     1.0  0.09989  0.72892  0.75257  1.0000
  C   C1016     1.0  0.13775  0.74115  0.75723  1.0000
  C   C1017     1.0  0.14655  0.73611  0.77373  1.0000
  C   C1018     1.0  0.10145  0.65579  0.80838  1.0000
  C   C1019     1.0  0.07841  0.63671  0.82235  1.0000
  H   H811      1.0  0.08297  0.74799  0.80592  1.0000
  C   C1020     1.0  0.06291  0.57635  0.81093  1.0000
  C   C1021     1.0  0.08531  0.59512  0.79689  1.0000
  C   C1022     1.0  0.10405  0.63462  0.79551  1.0000
  H   H812      1.0  0.99821  0.70011  0.90682  1.0000
  C   C1023     1.0  0.03031  0.55614  0.92638  1.0000
  H   H813      1.0  0.47187  0.83089  0.80666  1.0000
  H   H814      1.0  0.14119  0.71358  0.84228  1.0000
  C   C1024     1.0  0.45959  0.56860  0.79893  1.0000
  H   H815      1.0  0.19041  0.78270  0.81207  1.0000
  H   H816      1.0  0.26034  0.80964  0.81312  1.0000
  H   H817      1.0  0.28889  0.76826  0.81007  1.0000
  H   H818      1.0  0.27822  0.97013  0.75570  1.0000
  H   H819      1.0  0.17695  0.67188  0.80546  1.0000
  H   H820      1.0  0.05598  0.68989  0.78965  1.0000
  H   H821      1.0  0.04117  0.70119  0.76072  1.0000
  H   H822      1.0  0.45475  0.76228  0.76526  1.0000
  H   H823      1.0  0.16031  0.75403  0.74797  1.0000
  H   H824      1.0  0.17614  0.74575  0.77691  1.0000
  H   H825      1.0  0.04154  0.58259  0.83435  1.0000
  H   H826      1.0  0.21620  0.89546  0.74027  1.0000
  H   H827      1.0  0.37336  0.55589  0.95064  1.0000
  H   H828      1.0  0.08854  0.57917  0.78708  1.0000
  H   H829      1.0  0.12117  0.64871  0.78448  1.0000
  P   P33       1.0  0.19806  0.98324  0.81070  1.0000
  C   C1025     1.0  0.07923  0.76000  0.83127  1.0000
  S   S142      1.0  0.48564  0.71164  0.76960  1.0000
  C   C1026     1.0  0.40989  0.92434  0.75894  1.0000
  H   H830      1.0  0.39042  0.58686  0.73877  1.0000
  H   H831      1.0  0.99792  0.92914  0.86210  1.0000
  C   C1027     1.0  0.35590  0.97239  0.72323  1.0000
  H   H832      1.0  0.41009  0.50390  0.89583  1.0000
  C   C1028     1.0  0.00199  0.56503  0.90080  1.0000
  H   H833      1.0  0.38947  0.53963  0.84752  1.0000
  H   H834      1.0  0.12488  0.91229  0.80820  1.0000
  S   S143      1.0  0.16055  0.50891  0.73304  1.0000
  C   C1029     1.0  0.33991  0.65740  0.74419  1.0000
  C   C1030     1.0  0.20926  0.90964  0.84355  1.0000
  C   C1031     1.0  0.29868  0.63441  0.76851  1.0000
  C   C1032     1.0  0.15883  0.91960  0.85384  1.0000
  C   C1033     1.0  0.26653  0.62135  0.75821  1.0000
  C   C1034     1.0  0.30773  0.64390  0.73371  1.0000
  C   C1035     1.0  0.22496  0.97962  0.79375  1.0000
  H   H835      1.0  0.03714  0.69558  0.87322  1.0000
  H   H836      1.0  0.17694  0.88315  0.86605  1.0000
  C   C1036     1.0  0.26317  0.97286  0.76619  1.0000
  H   H837      1.0  0.99478  0.93883  0.83178  1.0000
  H   H838      1.0  0.14593  0.95678  0.83902  1.0000
  H   H839      1.0  0.45748  0.58572  0.84113  1.0000
  P   P34       1.0  0.43389  0.52301  0.78937  1.0000
  C   C1037     1.0  0.05919  0.59712  0.82356  1.0000
  Fe  Fe72      1.0  0.01206  0.79554  0.85997  1.0000
  C   C1038     1.0  0.21454  0.93408  0.82985  1.0000
  C   C1039     1.0  0.44527  0.77837  0.74054  1.0000
  C   C1040     1.0  0.07586  0.53195  0.85142  1.0000
  C   C1041     1.0  0.42474  0.92075  0.74393  1.0000
  H   H840      1.0  0.48420  0.84602  0.77542  1.0000
  C   C1042     1.0  0.45563  0.53045  0.76903  1.0000
  H   H841      1.0  0.24676  0.69936  0.80625  1.0000
  H   H842      1.0  0.39427  0.89971  0.76717  1.0000
  C   C1043     1.0  0.16371  0.94366  0.84009  1.0000
  H   H843      1.0  0.19357  0.91839  0.79431  1.0000
  H   H844      1.0  0.07500  0.65207  0.83229  1.0000
  C   C1044     1.0  0.36305  0.57436  0.74505  1.0000
  C   C1045     1.0  0.46182  0.74313  0.81162  1.0000
  C   C1046     1.0  0.45000  0.55931  0.84779  1.0000
  S   S144      1.0  0.01177  0.75364  0.87984  1.0000
  C   C1047     1.0  0.17645  0.64255  0.73330  1.0000
  C   C1048     1.0  0.42589  0.79364  0.73120  1.0000
  H   H845      1.0  0.09332  0.73302  0.73977  1.0000
  C   C1049     1.0  0.16459  0.60769  0.74194  1.0000
  H   H846      1.0  0.44043  0.71424  0.81491  1.0000
  Fe  Fe73      1.0  0.29237  0.86181  0.73186  1.0000
  H   H847      1.0  0.40967  0.57414  0.80365  1.0000
  C   C1050     1.0  0.23527  0.94046  0.77465  1.0000
  H   H848      1.0  0.12081  0.74050  0.86449  1.0000
  H   H849      1.0  0.36862  0.67131  0.73914  1.0000
  C   C1051     1.0  0.09000  0.75835  0.84778  1.0000
  H   H850      1.0  0.45639  0.88383  0.76417  1.0000
  C   C1052     1.0  0.46928  0.51751  0.86165  1.0000
  C   C1053     1.0  0.45226  0.77184  0.81126  1.0000
  H   H851      1.0  0.32845  0.63703  0.96169  1.0000
  C   C1054     1.0  0.44613  0.95265  0.73345  1.0000
  C   C1055     1.0  0.48167  0.93769  0.92640  1.0000
  H   H852      1.0  0.23669  0.93974  0.82088  1.0000
  C   C1056     1.0  0.19128  0.95072  0.82789  1.0000
  C   C1057     1.0  0.45357  0.55627  0.75754  1.0000
  H   H853      1.0  0.46714  0.87495  0.72061  1.0000
  H   H854      1.0  0.27211  0.56907  0.71879  1.0000
  S   S145      1.0  0.47807  0.76829  0.73040  1.0000
  H   H855      1.0  0.47946  0.97749  0.90857  1.0000
  C   C1058     1.0  0.47973  0.80900  0.80668  1.0000
  C   C1059     1.0  0.48275  0.89755  0.77124  1.0000
  H   H856      1.0  0.47094  0.58466  0.73341  1.0000
  C   C1060     1.0  0.11343  0.99193  0.78544  1.0000
  C   C1061     1.0  0.43605  0.99132  0.75295  1.0000
  C   C1062     1.0  0.37957  0.63565  0.95605  1.0000
  C   C1063     1.0  0.49120  0.51593  0.96010  1.0000
  H   H857      1.0  0.45090  0.92140  0.92807  1.0000
  H   H858      1.0  0.49212  0.51222  0.86549  1.0000
  C   C1064     1.0  0.35843  0.64849  0.96465  1.0000
  H   H859      1.0  0.38285  0.83964  0.96467  1.0000
  C   C1065     1.0  0.47782  0.97823  0.96469  1.0000
  C   C1066     1.0  0.32998  0.50017  0.95904  1.0000
  Fe  Fe74      1.0  0.93905  0.16833  0.12504  1.0000
  S   S146      1.0  0.91212  0.15625  0.09969  1.0000
  S   S147      1.0  0.91776  0.18940  0.14611  1.0000
  S   S148      1.0  0.58664  0.06316  0.97346  1.0000
  C   C1067     1.0  0.92591  0.48981  0.01128  1.0000
  H   H860      1.0  0.98125  0.44406  0.96752  1.0000
  C   C1068     1.0  0.61625  0.49197  0.97889  1.0000
  Fe  Fe75      1.0  0.92329  0.10710  0.10024  1.0000
  S   S149      1.0  0.87841  0.04966  0.09086  1.0000
  C   C1069     1.0  0.76627  0.00795  0.03822  1.0000
  S   S150      1.0  0.94606  0.11672  0.12637  1.0000
  S   S151      1.0  0.55741  0.38050  0.17522  1.0000
  Fe  Fe76      1.0  0.82796  0.47286  0.18731  1.0000
  C   C1070     1.0  0.95980  0.37601  0.00086  1.0000
  S   S152      1.0  0.83081  0.42337  0.17658  1.0000
  C   C1071     1.0  0.87285  0.11494  0.18820  1.0000
  P   P35       1.0  0.80807  0.04380  0.19236  1.0000
  Fe  Fe77      1.0  0.71890  0.14703  0.18174  1.0000
  S   S153      1.0  0.78450  0.48724  0.17674  1.0000
  S   S154      1.0  0.74080  0.12548  0.16114  1.0000
  Fe  Fe78      1.0  0.65834  0.16961  0.18921  1.0000
  H   H861      1.0  0.65420  0.44314  0.99926  1.0000
  S   S155      1.0  0.61595  0.18435  0.17679  1.0000
  H   H862      1.0  0.89102  0.35561  0.04103  1.0000
  H   H863      1.0  0.92386  0.41991  0.16087  1.0000
  C   C1072     1.0  0.72704  0.47310  0.13510  1.0000
  C   C1073     1.0  0.53843  0.17942  0.99144  1.0000
  S   S156      1.0  0.71827  0.20183  0.17892  1.0000
  S   S157      1.0  0.65672  0.11330  0.18952  1.0000
  C   C1074     1.0  0.76116  0.15401  0.06174  1.0000
  C   C1075     1.0  0.79462  0.31195  0.04662  1.0000
  C   C1076     1.0  0.82361  0.04559  0.14203  1.0000
  C   C1077     1.0  0.86714  0.34855  0.98429  1.0000
  C   C1078     1.0  0.79237  0.02159  0.06618  1.0000
  C   C1079     1.0  0.81248  0.37933  0.18761  1.0000
  C   C1080     1.0  0.80080  0.34631  0.17865  1.0000
  C   C1081     1.0  0.78924  0.31130  0.18701  1.0000
  C   C1082     1.0  0.76034  0.05368  0.10469  1.0000
  H   H864      1.0  0.85536  0.41201  0.99297  1.0000
  C   C1083     1.0  0.80129  0.34203  0.21342  1.0000
  H   H865      1.0  0.80079  0.34775  0.16517  1.0000
  H   H866      1.0  0.78096  0.28625  0.17995  1.0000
  C   C1084     1.0  0.92381  0.35236  0.00809  1.0000
  C   C1085     1.0  0.74161  0.04789  0.18766  1.0000
  C   C1086     1.0  0.88107  0.42903  0.00009  1.0000
  C   C1087     1.0  0.54414  0.22333  0.18880  1.0000
  C   C1088     1.0  0.57028  0.21616  0.18043  1.0000
  C   C1089     1.0  0.58594  0.19559  0.18836  1.0000
  H   H867      1.0  0.69026  0.05107  0.18340  1.0000
  C   C1090     1.0  0.63298  0.44853  0.99324  1.0000
  H   H868      1.0  0.78292  0.23088  0.15460  1.0000
  H   H869      1.0  0.57819  0.22638  0.16767  1.0000
  H   H870      1.0  0.86489  0.47856  0.11718  1.0000
  C   C1091     1.0  0.60105  0.40371  0.18640  1.0000
  C   C1092     1.0  0.63606  0.41932  0.17780  1.0000
  C   C1093     1.0  0.67116  0.43930  0.18631  1.0000
  C   C1094     1.0  0.93535  0.43594  0.01640  1.0000
  H   H871      1.0  0.92341  0.16964  0.18520  1.0000
  H   H872      1.0  0.82106  0.40216  0.21212  1.0000
  H   H873      1.0  0.63596  0.41553  0.16453  1.0000
  H   H874      1.0  0.69783  0.45062  0.17956  1.0000
  C   C1095     1.0  0.96716  0.36519  0.21435  1.0000
  H   H875      1.0  0.87528  0.32644  0.20038  1.0000
  H   H876      1.0  0.77701  0.26783  0.13060  1.0000
  H   H877      1.0  0.82994  0.28973  0.99168  1.0000
  C   C1096     1.0  0.86843  0.17262  0.14953  1.0000
  C   C1097     1.0  0.84016  0.14464  0.13977  1.0000
  C   C1098     1.0  0.80118  0.13046  0.14347  1.0000
  C   C1099     1.0  0.79013  0.14456  0.15677  1.0000
  C   C1100     1.0  0.81838  0.17339  0.16619  1.0000
  C   C1101     1.0  0.85735  0.18752  0.16248  1.0000
  H   H878      1.0  0.84842  0.13345  0.12961  1.0000
  H   H879      1.0  0.77950  0.10812  0.13612  1.0000
  H   H880      1.0  0.81021  0.18442  0.17646  1.0000
  H   H881      1.0  0.87907  0.20972  0.16986  1.0000
  C   C1102     1.0  0.78554  0.18460  0.07162  1.0000
  C   C1103     1.0  0.91752  0.31958  0.01720  1.0000
  H   H882      1.0  0.89899  0.03029  0.12349  1.0000
  C   C1104     1.0  0.88130  0.37443  0.97063  1.0000
  C   C1105     1.0  0.50785  0.24184  0.13821  1.0000
  H   H883      1.0  0.66454  0.25816  0.19300  1.0000
  H   H884      1.0  0.77332  0.30074  0.05647  1.0000
  C   C1106     1.0  0.88252  0.24257  0.12284  1.0000
  C   C1107     1.0  0.91322  0.25088  0.11234  1.0000
  C   C1108     1.0  0.90636  0.23831  0.09603  1.0000
  C   C1109     1.0  0.86881  0.21698  0.09025  1.0000
  C   C1110     1.0  0.83766  0.20842  0.10074  1.0000
  C   C1111     1.0  0.84489  0.22121  0.11714  1.0000
  P   P36       1.0  0.78916  0.17743  0.09382  1.0000
  C   C1112     1.0  0.77951  0.19572  0.03717  1.0000
  C   C1113     1.0  0.77759  0.12885  0.09804  1.0000
  C   C1114     1.0  0.57824  0.46241  0.97767  1.0000
  H   H885      1.0  0.82030  0.25423  0.04109  1.0000
  C   C1115     1.0  0.78329  0.31146  0.03001  1.0000
  C   C1116     1.0  0.79769  0.08145  0.10058  1.0000
  C   C1117     1.0  0.80621  0.11877  0.09716  1.0000
  H   H886      1.0  0.59652  0.19053  0.99411  1.0000
  H   H887      1.0  0.83934  0.07816  0.06947  1.0000
  C   C1118     1.0  0.70227  0.03437  0.18879  1.0000
  H   H888      1.0  0.94275  0.28667  0.02685  1.0000
  C   C1119     1.0  0.73989  0.10057  0.10185  1.0000
  C   C1120     1.0  0.75641  0.18774  0.10470  1.0000
  C   C1121     1.0  0.74251  0.21024  0.09710  1.0000
  C   C1122     1.0  0.71660  0.21727  0.10558  1.0000
  C   C1123     1.0  0.70445  0.20202  0.12169  1.0000
  C   C1124     1.0  0.71840  0.17994  0.12936  1.0000
  C   C1125     1.0  0.74429  0.17292  0.12093  1.0000
  H   H889      1.0  0.88792  0.25110  0.13568  1.0000
  H   H890      1.0  0.94231  0.26619  0.11698  1.0000
  H   H891      1.0  0.93025  0.24419  0.08801  1.0000
  H   H892      1.0  0.86428  0.20613  0.07779  1.0000
  H   H893      1.0  0.82175  0.21365  0.12582  1.0000
  C   C1126     1.0  0.67147  0.44470  0.20347  1.0000
  H   H894      1.0  0.92981  0.31387  0.20158  1.0000
  H   H895      1.0  0.91252  0.48887  0.17602  1.0000
  H   H896      1.0  0.82023  0.07415  0.10013  1.0000
  H   H897      1.0  0.83523  0.13970  0.09396  1.0000
  C   C1127     1.0  0.89536  0.15365  0.19096  1.0000
  S   S158      1.0  0.78162  0.26698  0.21521  1.0000
  C   C1128     1.0  0.82619  0.02467  0.20840  1.0000
  C   C1129     1.0  0.79220  0.04513  0.03298  1.0000
  H   H898      1.0  0.82517  0.24502  0.07149  1.0000
  H   H899      1.0  0.75123  0.22213  0.08462  1.0000
  H   H900      1.0  0.70563  0.23432  0.09964  1.0000
  H   H901      1.0  0.68420  0.20721  0.12826  1.0000
  H   H902      1.0  0.70896  0.16796  0.14185  1.0000
  H   H903      1.0  0.75460  0.15560  0.12707  1.0000
  C   C1130     1.0  0.88256  0.00456  0.11675  1.0000
  C   C1131     1.0  0.83585  0.09428  0.19499  1.0000
  H   H904      1.0  0.83283  0.32823  0.12116  1.0000
  H   H905      1.0  0.88437  0.10130  0.18068  1.0000
  Fe  Fe79      1.0  0.97214  0.19210  0.08978  1.0000
  C   C1132     1.0  0.53994  0.02367  0.97576  1.0000
  H   H906      1.0  0.90314  0.40359  0.97233  1.0000
  H   H907      1.0  0.90064  0.31491  0.16037  1.0000
  H   H908      1.0  0.75326  0.30008  0.02699  1.0000
  H   H909      1.0  0.53231  0.23907  0.18246  1.0000
  C   C1133     1.0  0.56716  0.16958  0.99144  1.0000
  C   C1134     1.0  0.79009  0.30914  0.20443  1.0000
  C   C1135     1.0  0.67730  0.27882  0.20266  1.0000
  H   H910      1.0  0.70585  0.32613  0.18525  1.0000
  C   C1136     1.0  0.87091  0.00642  0.10037  1.0000
  C   C1137     1.0  0.70053  0.31709  0.19828  1.0000
  H   H911      1.0  0.83884  0.09913  0.04021  1.0000
  H   H912      1.0  0.84444  0.25531  0.16966  1.0000
  C   C1138     1.0  0.55800  0.13260  0.98800  1.0000
  H   H913      1.0  0.66789  0.43213  0.13078  1.0000
  H   H914      1.0  0.75395  0.02487  0.10746  1.0000
  H   H915      1.0  0.88154  0.31338  0.10644  1.0000
  C   C1139     1.0  0.68772  0.46001  0.13526  1.0000
  H   H916      1.0  0.51506  0.16275  0.14516  1.0000
  C   C1140     1.0  0.80418  0.27821  0.13695  1.0000
  C   C1141     1.0  0.80740  0.25750  0.15054  1.0000
  C   C1142     1.0  0.84220  0.27116  0.15896  1.0000
  C   C1143     1.0  0.87402  0.30519  0.15366  1.0000
  C   C1144     1.0  0.87110  0.32617  0.13996  1.0000
  C   C1145     1.0  0.83586  0.31243  0.13167  1.0000
  P   P37       1.0  0.91221  0.37000  0.13283  1.0000
  C   C1146     1.0  0.89720  0.40438  0.12773  1.0000
  C   C1147     1.0  0.94669  0.38740  0.14962  1.0000
  C   C1148     1.0  0.50199  0.18047  0.14461  1.0000
  H   H917      1.0  0.85571  0.38589  0.14782  1.0000
  C   C1149     1.0  0.59540  0.41896  0.99143  1.0000
  C   C1150     1.0  0.81831  0.05873  0.06085  1.0000
  H   H918      1.0  0.95226  0.42451  0.02206  1.0000
  C   C1151     1.0  0.50061  0.15243  0.98777  1.0000
  C   C1152     1.0  0.85697  0.43182  0.13335  1.0000
  C   C1153     1.0  0.86864  0.40528  0.13723  1.0000
  C   C1154     1.0  0.93340  0.36284  0.11452  1.0000
  C   C1155     1.0  0.91125  0.33327  0.10374  1.0000
  C   C1156     1.0  0.92749  0.32896  0.08926  1.0000
  H   H919      1.0  0.50412  0.14394  0.17593  1.0000
  C   C1157     1.0  0.91406  0.43070  0.11437  1.0000
  H   H920      1.0  0.70244  0.04168  0.10850  1.0000
  H   H921      1.0  0.97494  0.35624  0.14267  1.0000
  C   C1158     1.0  0.80657  0.22092  0.06409  1.0000
  C   C1159     1.0  0.56796  0.42603  0.98383  1.0000
  H   H922      1.0  0.58743  0.39063  0.99603  1.0000
  C   C1160     1.0  0.81194  0.37693  0.20506  1.0000
  C   C1161     1.0  0.60141  0.40902  0.20353  1.0000
  P   P38       1.0  0.88578  0.36336  0.00499  1.0000
  C   C1162     1.0  0.73141  0.06319  0.10525  1.0000
  H   H923      1.0  0.54546  0.20803  0.99420  1.0000
  H   H924      1.0  0.51759  0.04584  0.18007  1.0000
  H   H925      1.0  0.64279  0.33982  0.20978  1.0000
  H   H926      1.0  0.51385  0.07723  0.98136  1.0000
  H   H927      1.0  0.96504  0.40093  0.99346  1.0000
  H   H928      1.0  0.55404  0.22974  0.13621  1.0000
  H   H929      1.0  0.89672  0.45177  0.20246  1.0000
  C   C1163     1.0  0.84471  0.15149  0.20768  1.0000
  H   H930      1.0  0.79409  0.09739  0.21069  1.0000
  S   S159      1.0  0.98312  0.23488  0.06814  1.0000
  C   C1164     1.0  0.54872  0.18900  0.21313  1.0000
  H   H931      1.0  0.52276  0.44671  0.16596  1.0000
  C   C1165     1.0  0.75764  0.02694  0.19483  1.0000
  H   H932      1.0  0.77719  0.19997  0.02386  1.0000
  H   H933      1.0  0.54051  0.11303  0.18597  1.0000
  C   C1166     1.0  0.88136  0.17190  0.20073  1.0000
  C   C1167     1.0  0.51470  0.09729  0.17870  1.0000
  H   H934      1.0  0.79261  0.05408  0.02006  1.0000
  C   C1168     1.0  0.80373  0.22634  0.04691  1.0000
  C   C1169     1.0  0.50175  0.05937  0.17538  1.0000
  C   C1170     1.0  0.86093  0.34257  0.03781  1.0000
  C   C1171     1.0  0.97199  0.38805  0.11049  1.0000
  H   H935      1.0  0.74432  0.12581  0.06723  1.0000
  H   H936      1.0  0.73929  0.13590  0.03703  1.0000
  H   H937      1.0  0.84240  0.32900  0.06342  1.0000
  H   H938      1.0  0.58019  0.12482  0.98808  1.0000
  C   C1172     1.0  0.75819  0.15961  0.04459  1.0000
  H   H939      1.0  0.52508  0.27136  0.13434  1.0000
  C   C1173     1.0  0.84025  0.31050  0.98147  1.0000
  C   C1174     1.0  0.63643  0.42998  0.21194  1.0000
  H   H940      1.0  0.71704  0.10731  0.10230  1.0000
  C   C1175     1.0  0.53291  0.20948  0.20517  1.0000
  C   C1176     1.0  0.83347  0.32772  0.05053  1.0000
  H   H941      1.0  0.88200  0.38437  0.21216  1.0000
  C   C1177     1.0  0.81820  0.07052  0.04430  1.0000
  H   H942      1.0  0.64319  0.47170  0.14137  1.0000
  C   C1178     1.0  0.96595  0.35383  0.08548  1.0000
  H   H943      1.0  0.80143  0.32739  0.00459  1.0000
  H   H944      1.0  0.55641  0.46733  0.97194  1.0000
  H   H945      1.0  0.97012  0.44182  0.18388  1.0000
  C   C1179     1.0  0.98819  0.38337  0.09608  1.0000
  C   C1180     1.0  0.94705  0.47414  0.01845  1.0000
  C   C1181     1.0  0.57551  0.18254  0.20487  1.0000
  C   C1182     1.0  0.84970  0.34144  0.02106  1.0000
  C   C1183     1.0  0.96155  0.48475  0.96695  1.0000
  C   C1184     1.0  0.90204  0.34629  0.20623  1.0000
  H   H946      1.0  0.83368  0.16571  0.21511  1.0000
  H   H947      1.0  0.53858  0.40336  0.98268  1.0000
  Fe  Fe80      1.0  0.77395  0.49437  0.20333  1.0000
  H   H948      1.0  0.75947  0.07471  0.18112  1.0000
  C   C1185     1.0  0.94743  0.31165  0.01963  1.0000
  H   H949      1.0  0.58705  0.16630  0.21106  1.0000
  C   C1186     1.0  0.55269  0.46760  0.16414  1.0000
  C   C1187     1.0  0.90569  0.37895  0.21316  1.0000
  C   C1188     1.0  0.52414  0.21842  0.13932  1.0000
  C   C1189     1.0  0.92625  0.47301  0.19994  1.0000
  C   C1190     1.0  0.57868  0.47466  0.17713  1.0000
  H   H950      1.0  0.91044  0.30604  0.08101  1.0000
  C   C1191     1.0  0.81072  0.32658  0.01728  1.0000
  Fe  Fe81      1.0  0.73656  0.20993  0.20564  1.0000
  H   H951      1.0  0.88963  0.30010  0.02237  1.0000
  H   H952      1.0  0.83133  0.06590  0.13169  1.0000
  C   C1192     1.0  0.90252  0.41321  0.00700  1.0000
  C   C1193     1.0  0.56559  0.48624  0.14864  1.0000
  C   C1194     1.0  0.94526  0.41114  0.16155  1.0000
  H   H953      1.0  0.97318  0.49191  0.02519  1.0000
  C   C1195     1.0  0.82179  0.05629  0.15819  1.0000
  H   H954      1.0  0.54761  0.01586  0.00199  1.0000
  H   H955      1.0  0.97865  0.35029  0.07434  1.0000
  H   H956      1.0  0.83506  0.43246  0.14082  1.0000
  H   H957      1.0  0.82711  0.08465  0.16012  1.0000
  Fe  Fe82      1.0  0.50400  0.33237  0.18748  1.0000
  H   H958      1.0  0.86607  0.01981  0.19219  1.0000
  H   H959      1.0  0.54551  0.48004  0.13846  1.0000
  H   H960      1.0  0.56882  0.45896  0.18891  1.0000
  H   H961      1.0  0.93633  0.43103  0.10688  1.0000
  C   C1196     1.0  0.81293  0.03050  0.17172  1.0000
  C   C1197     1.0  0.82213  0.11274  0.20496  1.0000
  C   C1198     1.0  0.98524  0.47011  0.97252  1.0000
  C   C1199     1.0  0.90236  0.45727  0.11056  1.0000
  C   C1200     1.0  0.97144  0.42362  0.17472  1.0000
  C   C1201     1.0  0.67379  0.48270  0.14133  1.0000
  H   H962      1.0  0.73785  0.45551  0.13045  1.0000
  C   C1202     1.0  0.64326  0.48507  0.98724  1.0000
  C   C1203     1.0  0.98962  0.36805  0.00331  1.0000
  C   C1204     1.0  0.97403  0.37555  0.15138  1.0000
  C   C1205     1.0  0.87382  0.45783  0.12005  1.0000
  C   C1206     1.0  0.89301  0.46729  0.00207  1.0000
  C   C1207     1.0  0.52034  0.10568  0.98415  1.0000
  H   H963      1.0  0.73578  0.37329  0.20725  1.0000
  H   H964      1.0  0.60937  0.27247  0.96603  1.0000
  C   C1208     1.0  0.49431  0.11489  0.17277  1.0000
  S   S160      1.0  0.81470  0.47622  0.21397  1.0000
  C   C1209     1.0  0.85524  0.01637  0.20479  1.0000
  S   S161      1.0  0.74147  0.15702  0.20799  1.0000
  C   C1210     1.0  0.52819  0.00540  0.99152  1.0000
  C   C1211     1.0  0.81583  0.00880  0.13922  1.0000
  H   H965      1.0  0.91554  0.47757  0.10027  1.0000
  H   H966      1.0  0.98956  0.41159  0.11836  1.0000
  H   H967      1.0  0.89870  0.20199  0.20267  1.0000
  H   H968      1.0  0.57459  0.39762  0.21015  1.0000
  H   H969      1.0  0.79396  0.01291  0.07895  1.0000
  H   H970      1.0  0.62962  0.02777  0.21431  1.0000
  S   S162      1.0  0.98072  0.14143  0.08769  1.0000
  H   H971      1.0  0.81715  0.00065  0.12665  1.0000
  C   C1212     1.0  0.98351  0.33599  0.01274  1.0000
  C   C1213     1.0  0.93271  0.33927  0.20691  1.0000
  C   C1214     1.0  0.71740  0.34364  0.21071  1.0000
  C   C1215     1.0  0.93512  0.49404  0.18489  1.0000
  S   S163      1.0  0.71465  0.46943  0.21493  1.0000
  C   C1216     1.0  0.95534  0.47874  0.21137  1.0000
  H   H972      1.0  0.57583  0.28804  0.21288  1.0000
  S   S164      1.0  0.50080  0.31498  0.21442  1.0000
  H   H973      1.0  0.99111  0.35997  0.21468  1.0000
  H   H974      1.0  0.87738  0.47984  0.99609  1.0000
  C   C1217     1.0  0.82598  0.29910  0.96541  1.0000
  Fe  Fe83      1.0  0.59755  0.43222  0.41264  1.0000
  S   S165      1.0  0.60919  0.43367  0.44009  1.0000
  S   S166      1.0  0.56481  0.37710  0.39929  1.0000
  H   H975      1.0  0.65299  0.23720  0.22259  1.0000
  Fe  Fe84      1.0  0.67021  0.47362  0.43269  1.0000
  S   S167      1.0  0.71795  0.46698  0.44503  1.0000
  C   C1218     1.0  0.98982  0.41033  0.40973  1.0000
  S   S168      1.0  0.65898  0.46987  0.40523  1.0000
  Fe  Fe85      1.0  0.83237  0.36724  0.41810  1.0000
  S   S169      1.0  0.81823  0.34476  0.44448  1.0000
  S   S170      1.0  0.80665  0.40041  0.40556  1.0000
  Fe  Fe86      1.0  0.88039  0.32788  0.41257  1.0000
  S   S171      1.0  0.86863  0.30282  0.43856  1.0000
  S   S172      1.0  0.91645  0.31755  0.39396  1.0000
  Fe  Fe87      1.0  0.80789  0.28997  0.43392  1.0000
  S   S173      1.0  0.75672  0.23267  0.44102  1.0000
  Fe  Fe88      1.0  0.88050  0.36055  0.44611  1.0000
  H   H976      1.0  0.98312  0.25121  0.37604  1.0000
  S   S174      1.0  0.81891  0.31156  0.40741  1.0000
  S   S175      1.0  0.89532  0.38645  0.42024  1.0000
  H   H977      1.0  0.53987  0.17760  0.22567  1.0000
  C   C1219     1.0  0.95391  0.25112  0.33855  1.0000
  S   S176      1.0  0.94404  0.07918  0.34863  1.0000
  H   H978      1.0  0.97954  0.24981  0.33575  1.0000
  H   H979      1.0  0.87023  0.02720  0.42132  1.0000
  Fe  Fe89      1.0  0.54097  0.14528  0.41437  1.0000
  S   S177      1.0  0.59875  0.16987  0.40159  1.0000
  S   S178      1.0  0.53787  0.15494  0.44145  1.0000
  C   C1220     1.0  0.93653  0.28760  0.39760  1.0000
  C   C1221     1.0  0.95429  0.28064  0.38431  1.0000
  C   C1222     1.0  0.96968  0.25629  0.38645  1.0000
  C   C1223     1.0  0.96875  0.23963  0.40212  1.0000
  C   C1224     1.0  0.95095  0.24652  0.41544  1.0000
  C   C1225     1.0  0.93463  0.27013  0.41317  1.0000
  H   H980      1.0  0.95612  0.29416  0.37226  1.0000
  H   H981      1.0  0.51755  0.03695  0.43694  1.0000
  H   H982      1.0  0.94999  0.23372  0.42760  1.0000
  H   H983      1.0  0.92092  0.27507  0.42350  1.0000
  C   C1226     1.0  0.71237  0.21733  0.43056  1.0000
  C   C1227     1.0  0.71038  0.23357  0.41516  1.0000
  C   C1228     1.0  0.67543  0.21886  0.40647  1.0000
  C   C1229     1.0  0.64173  0.18874  0.41334  1.0000
  C   C1230     1.0  0.64338  0.17325  0.42901  1.0000
  C   C1231     1.0  0.67864  0.18714  0.43747  1.0000
  H   H984      1.0  0.73589  0.25698  0.40972  1.0000
  H   H985      1.0  0.67446  0.23107  0.39439  1.0000
  H   H986      1.0  0.61772  0.14975  0.43432  1.0000
  H   H987      1.0  0.67974  0.17421  0.44932  1.0000
  S   S179      1.0  0.58434  0.48001  0.41251  1.0000
  S   S180      1.0  0.57233  0.49799  0.46040  1.0000
  H   H988      1.0  0.93479  0.44930  0.44426  1.0000
  C   C1232     1.0  0.74123  0.44708  0.43399  1.0000
  C   C1233     1.0  0.73532  0.44041  0.41693  1.0000
  C   C1234     1.0  0.75547  0.42600  0.40843  1.0000
  C   C1235     1.0  0.78113  0.41736  0.41694  1.0000
  C   C1236     1.0  0.78669  0.42353  0.43407  1.0000
  C   C1237     1.0  0.76705  0.43867  0.44249  1.0000
  H   H989      1.0  0.71568  0.44679  0.41018  1.0000
  H   H990      1.0  0.75105  0.42142  0.39518  1.0000
  H   H991      1.0  0.80673  0.41742  0.44071  1.0000
  H   H992      1.0  0.72813  0.00210  0.23869  1.0000
  C   C1238     1.0  0.54839  0.33552  0.41195  1.0000
  H   H993      1.0  0.81882  0.21793  0.43067  1.0000
  H   H994      1.0  0.53723  0.35916  0.43307  1.0000
  H   H995      1.0  0.73736  0.06899  0.32948  1.0000
  C   C1239     1.0  0.50191  0.47419  0.44530  1.0000
  C   C1240     1.0  0.97956  0.46787  0.24568  1.0000
  C   C1241     1.0  0.71142  0.33192  0.22754  1.0000
  C   C1242     1.0  0.92493  0.03426  0.37770  1.0000
  C   C1243     1.0  0.91904  0.03623  0.36053  1.0000
  C   C1244     1.0  0.98833  0.26847  0.46183  1.0000
  H   H996      1.0  0.94654  0.05887  0.38386  1.0000
  C   C1245     1.0  0.87317  0.40386  0.24525  1.0000
  C   C1246     1.0  0.56386  0.22954  0.25469  1.0000
  C   C1247     1.0  0.55562  0.22075  0.27163  1.0000
  C   C1248     1.0  0.58535  0.23115  0.28313  1.0000
  C   C1249     1.0  0.62333  0.24960  0.27760  1.0000
  C   C1250     1.0  0.63183  0.25783  0.26052  1.0000
  C   C1251     1.0  0.60178  0.24778  0.24908  1.0000
  P   P39       1.0  0.68075  0.27711  0.25372  1.0000
  C   C1252     1.0  0.70921  0.31606  0.26718  1.0000
  C   C1253     1.0  0.69327  0.24009  0.25538  1.0000
  C   C1254     1.0  0.73031  0.24821  0.25112  1.0000
  C   C1255     1.0  0.74010  0.21962  0.25182  1.0000
  C   C1256     1.0  0.71274  0.18254  0.25643  1.0000
  C   C1257     1.0  0.67562  0.17405  0.26045  1.0000
  C   C1258     1.0  0.66581  0.20261  0.25993  1.0000
  C   C1259     1.0  0.73896  0.31710  0.27699  1.0000
  C   C1260     1.0  0.76013  0.34743  0.28744  1.0000
  C   C1261     1.0  0.75156  0.37671  0.28828  1.0000
  C   C1262     1.0  0.72164  0.37558  0.27874  1.0000
  C   C1263     1.0  0.70037  0.34525  0.26834  1.0000
  C   C1264     1.0  0.68769  0.29346  0.23208  1.0000
  H   H997      1.0  0.64022  0.34850  0.44595  1.0000
  C   C1265     1.0  0.90015  0.43964  0.23864  1.0000
  C   C1266     1.0  0.89364  0.47027  0.24009  1.0000
  C   C1267     1.0  0.89110  0.00370  0.35268  1.0000
  C   C1268     1.0  0.88429  0.05467  0.42700  1.0000
  H   H998      1.0  0.54069  0.22167  0.24583  1.0000
  H   H999      1.0  0.52610  0.20545  0.27574  1.0000
  H   H1000     1.0  0.57893  0.22417  0.29628  1.0000
  H   H1001     1.0  0.64606  0.25647  0.28661  1.0000
  H   H1002     1.0  0.60715  0.25339  0.23584  1.0000
  H   H1003     1.0  0.75141  0.27647  0.24683  1.0000
  H   H1004     1.0  0.76849  0.22597  0.24808  1.0000
  H   H1005     1.0  0.71979  0.16004  0.25628  1.0000
  H   H1006     1.0  0.65410  0.14493  0.26337  1.0000
  H   H1007     1.0  0.63651  0.19484  0.26258  1.0000
  H   H1008     1.0  0.74576  0.29453  0.27678  1.0000
  H   H1009     1.0  0.78310  0.34815  0.29498  1.0000
  H   H1010     1.0  0.76803  0.40019  0.29638  1.0000
  H   H1011     1.0  0.71491  0.39824  0.27939  1.0000
  H   H1012     1.0  0.67720  0.34462  0.26103  1.0000
  H   H1013     1.0  0.72596  0.35305  0.23679  1.0000
  S   S181      1.0  0.49735  0.22493  0.44374  1.0000
  C   C1269     1.0  0.64950  0.02346  0.45180  1.0000
  H   H1014     1.0  0.87800  0.38000  0.24474  1.0000
  H   H1015     1.0  0.65352  0.28185  0.41484  1.0000
  C   C1270     1.0  0.75999  0.09815  0.32784  1.0000
  C   C1271     1.0  0.76413  0.11744  0.31256  1.0000
  C   C1272     1.0  0.79318  0.15508  0.31045  1.0000
  C   C1273     1.0  0.81817  0.17349  0.32360  1.0000
  C   C1274     1.0  0.81443  0.15422  0.33897  1.0000
  C   C1275     1.0  0.78492  0.11646  0.34101  1.0000
  P   P40       1.0  0.84580  0.17822  0.35622  1.0000
  C   C1276     1.0  0.82103  0.19084  0.37115  1.0000
  C   C1277     1.0  0.86224  0.14883  0.36672  1.0000
  C   C1278     1.0  0.86010  0.11753  0.35885  1.0000
  C   C1279     1.0  0.87463  0.09612  0.36671  1.0000
  C   C1280     1.0  0.89269  0.10651  0.38216  1.0000
  C   C1281     1.0  0.89580  0.13809  0.38992  1.0000
  C   C1282     1.0  0.88062  0.15919  0.38226  1.0000
  C   C1283     1.0  0.84212  0.22054  0.38194  1.0000
  C   C1284     1.0  0.82362  0.23014  0.39380  1.0000
  C   C1285     1.0  0.78377  0.21017  0.39504  1.0000
  C   C1286     1.0  0.76236  0.18067  0.38429  1.0000
  C   C1287     1.0  0.78084  0.17096  0.37238  1.0000
  C   C1288     1.0  0.88809  0.22019  0.34848  1.0000
  C   C1289     1.0  0.88805  0.25457  0.34613  1.0000
  C   C1290     1.0  0.92082  0.28698  0.34016  1.0000
  C   C1291     1.0  0.50479  0.36352  0.26861  1.0000
  C   C1292     1.0  0.81212  0.18158  0.45198  1.0000
  C   C1293     1.0  0.92120  0.21865  0.34451  1.0000
  C   C1294     1.0  0.66026  0.26331  0.45610  1.0000
  H   H1016     1.0  0.74474  0.10326  0.30236  1.0000
  H   H1017     1.0  0.79629  0.17006  0.29862  1.0000
  H   H1018     1.0  0.84032  0.20268  0.32168  1.0000
  H   H1019     1.0  0.78116  0.10121  0.35282  1.0000
  H   H1020     1.0  0.84842  0.11012  0.34644  1.0000
  H   H1021     1.0  0.87313  0.07219  0.36050  1.0000
  H   H1022     1.0  0.90524  0.09067  0.38783  1.0000
  H   H1023     1.0  0.91107  0.14696  0.40163  1.0000
  H   H1024     1.0  0.88459  0.18429  0.38823  1.0000
  H   H1025     1.0  0.87297  0.23648  0.38117  1.0000
  H   H1026     1.0  0.84036  0.25320  0.40202  1.0000
  H   H1027     1.0  0.76950  0.21770  0.40427  1.0000
  H   H1028     1.0  0.73137  0.16549  0.38519  1.0000
  H   H1029     1.0  0.76353  0.14809  0.36424  1.0000
  H   H1030     1.0  0.86289  0.25650  0.34907  1.0000
  H   H1031     1.0  0.97930  0.31048  0.33198  1.0000
  C   C1295     1.0  0.66433  0.28634  0.42752  1.0000
  H   H1032     1.0  0.97366  0.41461  0.25510  1.0000
  H   H1033     1.0  0.92209  0.19253  0.34606  1.0000
  H   H1034     1.0  0.62316  0.03571  0.26721  1.0000
  C   C1296     1.0  0.81462  0.02238  0.22502  1.0000
  C   C1297     1.0  0.82216  0.15604  0.45937  1.0000
  H   H1035     1.0  0.55428  0.30333  0.39264  1.0000
  C   C1298     1.0  0.98517  0.49865  0.45322  1.0000
  H   H1036     1.0  0.66602  0.03991  0.44101  1.0000
  H   H1037     1.0  0.79256  0.18825  0.45821  1.0000
  H   H1038     1.0  0.60167  0.40144  0.31869  1.0000
  C   C1299     1.0  0.51738  0.26732  0.43132  1.0000
  Fe  Fe90      1.0  0.60098  0.48453  0.43956  1.0000
  H   H1039     1.0  0.65967  0.07246  0.46507  1.0000
  C   C1300     1.0  0.62944  0.03674  0.24052  1.0000
  C   C1301     1.0  0.92178  0.08125  0.42241  1.0000
  C   C1302     1.0  0.85959  0.00216  0.23410  1.0000
  C   C1303     1.0  0.86027  0.46503  0.24770  1.0000
  H   H1040     1.0  0.71196  0.34177  0.42183  1.0000
  C   C1304     1.0  0.92081  0.12566  0.44145  1.0000
  H   H1041     1.0  0.72260  0.01916  0.44954  1.0000
  H   H1042     1.0  0.53790  0.28384  0.23740  1.0000
  H   H1043     1.0  0.78644  0.07265  0.44213  1.0000
  H   H1044     1.0  0.80203  0.34051  0.22688  1.0000
  S   S182      1.0  0.49923  0.21704  0.21600  1.0000
  C   C1305     1.0  0.63161  0.34501  0.30177  1.0000
  C   C1306     1.0  0.62892  0.36900  0.31305  1.0000
  C   C1307     1.0  0.60390  0.38305  0.30986  1.0000
  C   C1308     1.0  0.58154  0.37318  0.29538  1.0000
  C   C1309     1.0  0.58426  0.34928  0.28396  1.0000
  C   C1310     1.0  0.60926  0.33505  0.28731  1.0000
  P   P41       1.0  0.55434  0.33451  0.26562  1.0000
  C   C1311     1.0  0.53674  0.36676  0.26022  1.0000
  C   C1312     1.0  0.53004  0.26877  0.41502  1.0000
  C   C1313     1.0  0.53651  0.41544  0.24177  1.0000
  C   C1314     1.0  0.55275  0.39327  0.24690  1.0000
  C   C1315     1.0  0.58310  0.33425  0.24856  1.0000
  C   C1316     1.0  0.62139  0.36329  0.24683  1.0000
  C   C1317     1.0  0.64311  0.36478  0.23307  1.0000
  H   H1045     1.0  0.91435  0.49831  0.23538  1.0000
  H   H1046     1.0  0.65081  0.33390  0.30431  1.0000
  H   H1047     1.0  0.64602  0.37653  0.32434  1.0000
  H   H1048     1.0  0.54829  0.43492  0.23112  1.0000
  H   H1049     1.0  0.56219  0.38418  0.29321  1.0000
  H   H1050     1.0  0.61118  0.31600  0.27878  1.0000
  H   H1051     1.0  0.73737  0.35167  0.45021  1.0000
  C   C1318     1.0  0.64595  0.25796  0.43981  1.0000
  H   H1052     1.0  0.57702  0.39619  0.24010  1.0000
  H   H1053     1.0  0.52821  0.24390  0.40980  1.0000
  H   H1054     1.0  0.63414  0.38553  0.25578  1.0000
  H   H1055     1.0  0.85554  0.48893  0.24872  1.0000
  C   C1319     1.0  0.83292  0.42911  0.25373  1.0000
  C   C1320     1.0  0.50097  0.38328  0.46309  1.0000
  H   H1056     1.0  0.82222  0.00948  0.25063  1.0000
  C   C1321     1.0  0.71151  0.32559  0.44776  1.0000
  C   C1322     1.0  0.69306  0.29737  0.46031  1.0000
  C   C1323     1.0  0.97941  0.00103  0.42672  1.0000
  C   C1324     1.0  0.54503  0.30261  0.40530  1.0000
  C   C1325     1.0  0.58874  0.30869  0.22252  1.0000
  C   C1326     1.0  0.86219  0.16445  0.43551  1.0000
  H   H1057     1.0  0.93527  0.15351  0.44675  1.0000
  H   H1058     1.0  0.88122  0.15815  0.42870  1.0000
  C   C1327     1.0  0.62052  0.33985  0.45640  1.0000
  C   C1328     1.0  0.50813  0.01480  0.44653  1.0000
  C   C1329     1.0  0.53598  0.33420  0.42824  1.0000
  C   C1330     1.0  0.51267  0.28855  0.26956  1.0000
  H   H1059     1.0  0.54643  0.37071  0.46054  1.0000
  C   C1331     1.0  0.87171  0.00495  0.21761  1.0000
  C   C1332     1.0  0.83944  0.39857  0.25257  1.0000
  H   H1060     1.0  0.62090  0.23154  0.43656  1.0000
  C   C1333     1.0  0.62023  0.01430  0.22651  1.0000
  C   C1334     1.0  0.56719  0.30661  0.23643  1.0000
  H   H1061     1.0  0.83585  0.04251  0.44206  1.0000
  C   C1335     1.0  0.52036  0.30024  0.43787  1.0000
  S   S183      1.0  0.99064  0.21129  0.40576  1.0000
  C   C1336     1.0  0.95375  0.28527  0.33640  1.0000
  C   C1337     1.0  0.85188  0.18979  0.42815  1.0000
  H   H1062     1.0  0.81831  0.37075  0.25730  1.0000
  C   C1338     1.0  0.61643  0.01870  0.25629  1.0000
  C   C1339     1.0  0.86485  0.06359  0.43874  1.0000
  S   S184      1.0  0.65835  0.08709  0.23910  1.0000
  H   H1063     1.0  0.51358  0.46759  0.43473  1.0000
  H   H1064     1.0  0.79377  0.03067  0.22813  1.0000
  H   H1065     1.0  0.59323  0.28056  0.45110  1.0000
  S   S185      1.0  0.50080  0.16624  0.40609  1.0000
  C   C1340     1.0  0.97299  0.29036  0.45524  1.0000
  H   H1066     1.0  0.67223  0.38791  0.23147  1.0000
  C   C1341     1.0  0.90233  0.00044  0.38699  1.0000
  C   C1342     1.0  0.84744  0.14739  0.45123  1.0000
  C   C1343     1.0  0.95624  0.46033  0.45395  1.0000
  H   H1067     1.0  0.63646  0.43455  0.22513  1.0000
  C   C1344     1.0  0.59426  0.30159  0.45934  1.0000
  H   H1068     1.0  0.92088  0.31361  0.33874  1.0000
  C   C1345     1.0  0.94003  0.11672  0.42963  1.0000
  C   C1346     1.0  0.52438  0.48846  0.45955  1.0000
  H   H1069     1.0  0.77208  0.44432  0.45560  1.0000
  H   H1070     1.0  0.98292  0.45412  0.42070  1.0000
  H   H1071     1.0  0.51077  0.29960  0.45043  1.0000
  H   H1072     1.0  0.53401  0.27549  0.29241  1.0000
  H   H1073     1.0  0.97471  0.04385  0.43989  1.0000
  H   H1074     1.0  0.93650  0.07449  0.41310  1.0000
  H   H1075     1.0  0.80673  0.42506  0.25930  1.0000
  H   H1076     1.0  0.96785  0.40400  0.40036  1.0000
  C   C1347     1.0  0.69719  0.32004  0.43147  1.0000
  P   P42       1.0  0.94412  0.44727  0.22941  1.0000
  H   H1077     1.0  0.86314  0.20269  0.41600  1.0000
  C   C1348     1.0  0.82694  0.19839  0.43638  1.0000
  C   C1349     1.0  0.88290  0.09931  0.44598  1.0000
  C   C1350     1.0  0.78178  0.05925  0.45445  1.0000
  C   C1351     1.0  0.97084  0.39796  0.22127  1.0000
  H   H1078     1.0  0.88636  0.00494  0.33941  1.0000
  C   C1352     1.0  0.98832  0.44501  0.25632  1.0000
  H   H1079     1.0  0.51267  0.09321  0.37457  1.0000
  P   P43       1.0  0.85789  0.11237  0.46057  1.0000
  C   C1353     1.0  0.62659  0.33777  0.22081  1.0000
  C   C1354     1.0  0.98486  0.03738  0.42872  1.0000
  C   C1355     1.0  0.93964  0.40446  0.22119  1.0000
  H   H1080     1.0  0.64617  0.24037  0.46520  1.0000
  H   H1081     1.0  0.98126  0.33633  0.43878  1.0000
  H   H1082     1.0  0.94433  0.28384  0.45866  1.0000
  C   C1356     1.0  0.67092  0.26704  0.21946  1.0000
  H   H1083     1.0  0.50106  0.39880  0.39810  1.0000
  Fe  Fe91      1.0  0.49528  0.17277  0.43331  1.0000
  H   H1084     1.0  0.63962  0.39662  0.46312  1.0000
  H   H1085     1.0  0.71829  0.24546  0.46528  1.0000
  H   H1086     1.0  0.96890  0.13763  0.42582  1.0000
  C   C1357     1.0  0.83098  0.01078  0.23780  1.0000
  C   C1358     1.0  0.74554  0.02902  0.45861  1.0000
  C   C1359     1.0  0.51040  0.26623  0.28375  1.0000
  C   C1360     1.0  0.50432  0.41153  0.25000  1.0000
  H   H1087     1.0  0.56556  0.10061  0.45534  1.0000
  S   S186      1.0  0.49373  0.08424  0.41528  1.0000
  Fe  Fe92      1.0  0.67923  0.12654  0.21576  1.0000
  S   S187      1.0  0.67662  0.18082  0.21586  1.0000
  S   S188      1.0  0.55508  0.15332  0.64404  1.0000
  H   H1088     1.0  0.63749  0.40396  0.54973  1.0000
  C   C1361     1.0  0.97715  0.11335  0.58010  1.0000
  S   S189      1.0  0.59013  0.42490  0.64673  1.0000
  C   C1362     1.0  0.95268  0.27892  0.65002  1.0000
  Fe  Fe93      1.0  0.82230  0.26687  0.64537  1.0000
  S   S190      1.0  0.81579  0.23918  0.67077  1.0000
  S   S191      1.0  0.83283  0.24563  0.62116  1.0000
  Fe  Fe94      1.0  0.80706  0.32856  0.65883  1.0000
  S   S192      1.0  0.79930  0.30469  0.68495  1.0000
  S   S193      1.0  0.79997  0.37905  0.65059  1.0000
  Fe  Fe95      1.0  0.85112  0.29869  0.67999  1.0000
  S   S194      1.0  0.89347  0.31180  0.70152  1.0000
  Fe  Fe96      1.0  0.76514  0.24799  0.67324  1.0000
  S   S195      1.0  0.70902  0.20315  0.68462  1.0000
  S   S196      1.0  0.86116  0.32606  0.65433  1.0000
  S   S197      1.0  0.76946  0.27216  0.64736  1.0000
  Fe  Fe97      1.0  0.82044  0.05635  0.58926  1.0000
  S   S198      1.0  0.83022  0.08233  0.56340  1.0000
  S   S199      1.0  0.80875  0.07984  0.61254  1.0000
  Fe  Fe98      1.0  0.87955  0.07085  0.56236  1.0000
  S   S200      1.0  0.93778  0.11427  0.55158  1.0000
  S   S201      1.0  0.87186  0.04848  0.58875  1.0000
  C   C1363     1.0  0.90252  0.48843  0.69728  1.0000
  C   C1364     1.0  0.58337  0.10585  0.46633  1.0000
  Fe  Fe99      1.0  0.50413  0.15325  0.65572  1.0000
  H   H1089     1.0  0.65475  0.26825  0.63341  1.0000
  H   H1090     1.0  0.95004  0.10061  0.58650  1.0000
  P   P44       1.0  0.96609  0.21694  0.60579  1.0000
  C   C1365     1.0  0.82495  0.19905  0.61892  1.0000
  C   C1366     1.0  0.82763  0.18718  0.60299  1.0000
  C   C1367     1.0  0.82372  0.15117  0.60081  1.0000
  C   C1368     1.0  0.81657  0.12646  0.61459  1.0000
  C   C1369     1.0  0.81384  0.13835  0.63049  1.0000
  C   C1370     1.0  0.81780  0.17433  0.63267  1.0000
  H   H1091     1.0  0.83275  0.20597  0.59229  1.0000
  H   H1092     1.0  0.82579  0.14241  0.58848  1.0000
  H   H1093     1.0  0.80885  0.11965  0.64122  1.0000
  H   H1094     1.0  0.81576  0.18303  0.64502  1.0000
  C   C1371     1.0  0.96642  0.36282  0.68929  1.0000
  C   C1372     1.0  0.94212  0.34809  0.70315  1.0000
  S   S202      1.0  0.75070  0.01278  0.53381  1.0000
  H   H1095     1.0  0.95508  0.35365  0.67695  1.0000
  C   C1373     1.0  0.78362  0.40465  0.66232  1.0000
  C   C1374     1.0  0.77326  0.39634  0.67918  1.0000
  P   P45       1.0  0.71386  0.46451  0.59929  1.0000
  C   C1375     1.0  0.75747  0.44746  0.67950  1.0000
  C   C1376     1.0  0.76750  0.45538  0.66265  1.0000
  C   C1377     1.0  0.78103  0.43450  0.65423  1.0000
  H   H1096     1.0  0.77538  0.37366  0.68565  1.0000
  Fe  Fe100     1.0  0.63719  0.47691  0.65930  1.0000
  H   H1097     1.0  0.78958  0.44146  0.64130  1.0000
  C   C1378     1.0  0.52931  0.30668  0.67274  1.0000
  C   C1379     1.0  0.52807  0.31062  0.65537  1.0000
  C   C1380     1.0  0.54716  0.34693  0.64754  1.0000
  C   C1381     1.0  0.56805  0.37952  0.65695  1.0000
  C   C1382     1.0  0.56986  0.37543  0.67426  1.0000
  C   C1383     1.0  0.55038  0.33924  0.68212  1.0000
  H   H1098     1.0  0.89669  0.15872  0.55428  1.0000
  H   H1099     1.0  0.54550  0.34981  0.63414  1.0000
  H   H1100     1.0  0.58555  0.40022  0.68167  1.0000
  C   C1384     1.0  0.59779  0.16927  0.65564  1.0000
  C   C1385     1.0  0.59751  0.16650  0.67308  1.0000
  C   C1386     1.0  0.63178  0.17701  0.68185  1.0000
  C   C1387     1.0  0.66668  0.19147  0.67330  1.0000
  C   C1388     1.0  0.66700  0.19491  0.65588  1.0000
  C   C1389     1.0  0.63264  0.18344  0.64710  1.0000
  H   H1101     1.0  0.57086  0.15551  0.67982  1.0000
  H   H1102     1.0  0.63122  0.17392  0.69530  1.0000
  H   H1103     1.0  0.69354  0.20550  0.64911  1.0000
  H   H1104     1.0  0.63309  0.18572  0.63362  1.0000
  Fe  Fe101     1.0  0.79335  0.02243  0.55492  1.0000
  C   C1390     1.0  0.98912  0.28603  0.64544  1.0000
  H   H1105     1.0  0.59151  0.24495  0.64685  1.0000
  C   C1391     1.0  0.74248  0.10153  0.66631  1.0000
  C   C1392     1.0  0.79000  0.33597  0.48641  1.0000
  C   C1393     1.0  0.65116  0.05051  0.59134  1.0000
  C   C1394     1.0  0.90343  0.43491  0.66965  1.0000
  C   C1395     1.0  0.66115  0.39227  0.63935  1.0000
  C   C1396     1.0  0.68154  0.37288  0.64111  1.0000
  C   C1397     1.0  0.71100  0.38047  0.62997  1.0000
  C   C1398     1.0  0.72055  0.40804  0.61722  1.0000
  C   C1399     1.0  0.70025  0.42784  0.61539  1.0000
  C   C1400     1.0  0.67027  0.41953  0.62650  1.0000
  H   H1106     1.0  0.54663  0.26090  0.47413  1.0000
  C   C1401     1.0  0.63136  0.43835  0.48811  1.0000
  H   H1107     1.0  0.93532  0.16298  0.57905  1.0000
  C   C1402     1.0  0.64885  0.28277  0.68071  1.0000
  C   C1403     1.0  0.80470  0.05454  0.48209  1.0000
  H   H1108     1.0  0.52301  0.42720  0.66025  1.0000
  H   H1109     1.0  0.63861  0.38663  0.64813  1.0000
  H   H1110     1.0  0.67481  0.35243  0.65129  1.0000
  H   H1111     1.0  0.72741  0.36599  0.63164  1.0000
  H   H1112     1.0  0.74432  0.41449  0.60903  1.0000
  H   H1113     1.0  0.65418  0.43436  0.62554  1.0000
  S   S203      1.0  0.50274  0.16758  0.68220  1.0000
  H   H1114     1.0  0.89741  0.08188  0.48122  1.0000
  H   H1115     1.0  0.64446  0.43302  0.57833  1.0000
  H   H1116     1.0  0.50939  0.40054  0.63214  1.0000
  H   H1117     1.0  0.94072  0.41105  0.63756  1.0000
  C   C1404     1.0  0.61718  0.39818  0.52440  1.0000
  C   C1405     1.0  0.57849  0.36015  0.54791  1.0000
  C   C1406     1.0  0.68915  0.08588  0.53669  1.0000
  C   C1407     1.0  0.72218  0.08602  0.53144  1.0000
  C   C1408     1.0  0.72417  0.07514  0.51533  1.0000
  C   C1409     1.0  0.69298  0.06352  0.50452  1.0000
  C   C1410     1.0  0.65936  0.06257  0.50980  1.0000
  C   C1411     1.0  0.65781  0.07414  0.52593  1.0000
  P   P46       1.0  0.61767  0.04501  0.49648  1.0000
  C   C1412     1.0  0.61111  0.08298  0.48774  1.0000
  C   C1413     1.0  0.90267  0.10818  0.48652  1.0000
  H   H1118     1.0  0.72856  0.48299  0.48402  1.0000
  C   C1414     1.0  0.89489  0.16361  0.48611  1.0000
  C   C1415     1.0  0.65647  0.36097  0.69241  1.0000
  H   H1119     1.0  0.73299  0.14690  0.67346  1.0000
  C   C1416     1.0  0.75021  0.46996  0.56895  1.0000
  C   C1417     1.0  0.70011  0.47948  0.48493  1.0000
  C   C1418     1.0  0.56645  0.06403  0.64013  1.0000
  H   H1120     1.0  0.74693  0.05569  0.65592  1.0000
  C   C1419     1.0  0.62243  0.14748  0.48802  1.0000
  C   C1420     1.0  0.62784  0.11849  0.49509  1.0000
  H   H1121     1.0  0.52619  0.33590  0.51220  1.0000
  H   H1122     1.0  0.88239  0.41307  0.64534  1.0000
  H   H1123     1.0  0.61804  0.11582  0.63461  1.0000
  H   H1124     1.0  0.76588  0.47839  0.65625  1.0000
  H   H1125     1.0  0.62905  0.25777  0.48875  1.0000
  H   H1126     1.0  0.94573  0.16166  0.52025  1.0000
  H   H1127     1.0  0.68755  0.09399  0.54924  1.0000
  H   H1128     1.0  0.74595  0.09362  0.53996  1.0000
  H   H1129     1.0  0.74943  0.07424  0.51149  1.0000
  H   H1130     1.0  0.68507  0.24610  0.70185  1.0000
  H   H1131     1.0  0.63199  0.07318  0.53031  1.0000
  H   H1132     1.0  0.58743  0.25453  0.67667  1.0000
  S   S204      1.0  0.65080  0.48197  0.68659  1.0000
  H   H1133     1.0  0.70274  0.02896  0.56490  1.0000
  C   C1421     1.0  0.52753  0.00702  0.69610  1.0000
  C   C1422     1.0  0.71380  0.07254  0.64013  1.0000
  H   H1134     1.0  0.75526  0.07256  0.58334  1.0000
  C   C1423     1.0  0.71586  0.23896  0.47853  1.0000
  H   H1135     1.0  0.77159  0.48094  0.62572  1.0000
  H   H1136     1.0  0.63524  0.17482  0.49371  1.0000
  H   H1137     1.0  0.64492  0.12390  0.50626  1.0000
  C   C1424     1.0  0.58867  0.07687  0.47335  1.0000
  H   H1138     1.0  0.70862  0.05148  0.63104  1.0000
  C   C1425     1.0  0.83604  0.40280  0.48312  1.0000
  H   H1139     1.0  0.69443  0.14289  0.64871  1.0000
  C   C1426     1.0  0.69963  0.09771  0.63772  1.0000
  C   C1427     1.0  0.96130  0.24205  0.62285  1.0000
  H   H1140     1.0  0.54606  0.30856  0.49203  1.0000
  H   H1141     1.0  0.53709  0.02794  0.49673  1.0000
  C   C1428     1.0  0.70377  0.39323  0.56227  1.0000
  H   H1142     1.0  0.55150  0.33653  0.69555  1.0000
  H   H1143     1.0  0.75960  0.10349  0.67719  1.0000
  C   C1429     1.0  0.76841  0.38060  0.47900  1.0000
  C   C1430     1.0  0.72616  0.06650  0.58548  1.0000
  C   C1431     1.0  0.70604  0.12394  0.65003  1.0000
  C   C1432     1.0  0.76846  0.02424  0.48616  1.0000
  C   C1433     1.0  0.65520  0.39420  0.69466  1.0000
  C   C1434     1.0  0.92353  0.11978  0.50136  1.0000
  H   H1144     1.0  0.67325  0.41958  0.48995  1.0000
  C   C1435     1.0  0.54295  0.04030  0.68612  1.0000
  C   C1436     1.0  0.68460  0.29674  0.67290  1.0000
  H   H1145     1.0  0.99109  0.45497  0.68483  1.0000
  C   C1437     1.0  0.62325  0.02071  0.47925  1.0000
  H   H1146     1.0  0.55225  0.07835  0.64508  1.0000
  P   P47       1.0  0.59031  0.39168  0.49152  1.0000
  H   H1147     1.0  0.88413  0.18104  0.48048  1.0000
  C   C1438     1.0  0.59403  0.35643  0.47967  1.0000
  S   S205      1.0  0.74424  0.47608  0.69082  1.0000
  H   H1148     1.0  0.82671  0.06396  0.49155  1.0000
  H   H1149     1.0  0.93406  0.10252  0.50753  1.0000
  C   C1439     1.0  0.93902  0.42133  0.64961  1.0000
  C   C1440     1.0  0.65317  0.27284  0.64651  1.0000
  C   C1441     1.0  0.62644  0.46999  0.48568  1.0000
  H   H1150     1.0  0.54075  0.41583  0.50749  1.0000
  H   H1151     1.0  0.87728  0.43484  0.67283  1.0000
  C   C1442     1.0  0.60318  0.25007  0.71119  1.0000
  C   C1443     1.0  0.56843  0.25043  0.71063  1.0000
  H   H1152     1.0  0.85103  0.35995  0.48931  1.0000
  C   C1444     1.0  0.72089  0.44639  0.58018  1.0000
  H   H1153     1.0  0.77936  0.47355  0.54609  1.0000
  S   S206      1.0  0.50323  0.26216  0.68341  1.0000
  C   C1445     1.0  0.96940  0.43301  0.66086  1.0000
  C   C1446     1.0  0.64527  0.45518  0.58562  1.0000
  H   H1154     1.0  0.86558  0.42556  0.48290  1.0000
  H   H1155     1.0  0.71098  0.31178  0.67984  1.0000
  C   C1447     1.0  0.86925  0.47741  0.70671  1.0000
  H   H1156     1.0  0.66817  0.35788  0.68093  1.0000
  C   C1448     1.0  0.52933  0.40574  0.49524  1.0000
  C   C1449     1.0  0.98278  0.45150  0.47985  1.0000
  C   C1450     1.0  0.75626  0.45522  0.55455  1.0000
  C   C1451     1.0  0.61339  0.38876  0.54148  1.0000
  H   H1157     1.0  0.68615  0.36338  0.55982  1.0000
  C   C1452     1.0  0.89874  0.23453  0.57195  1.0000
  C   C1453     1.0  0.88969  0.20606  0.56058  1.0000
  C   C1454     1.0  0.90307  0.18049  0.56320  1.0000
  C   C1455     1.0  0.92483  0.18284  0.57735  1.0000
  C   C1456     1.0  0.93333  0.21084  0.58902  1.0000
  C   C1457     1.0  0.92079  0.23719  0.58605  1.0000
  C   C1458     1.0  0.64139  0.39959  0.70960  1.0000
  H   H1158     1.0  0.70670  0.24402  0.59852  1.0000
  H   H1159     1.0  0.94920  0.29326  0.66044  1.0000
  H   H1160     1.0  0.93370  0.07446  0.63493  1.0000
  C   C1459     1.0  0.97856  0.49771  0.70863  1.0000
  H   H1161     1.0  0.67496  0.38910  0.58522  1.0000
  C   C1460     1.0  0.91031  0.10675  0.62299  1.0000
  C   C1461     1.0  0.91829  0.14155  0.61560  1.0000
  C   C1462     1.0  0.93993  0.10179  0.62961  1.0000
  C   C1463     1.0  0.92479  0.23421  0.62787  1.0000
  C   C1464     1.0  0.92054  0.25287  0.64128  1.0000
  P   P48       1.0  0.93120  0.46580  0.70075  1.0000
  C   C1465     1.0  0.61756  0.25978  0.65408  1.0000
  C   C1466     1.0  0.70084  0.26905  0.71022  1.0000
  H   H1162     1.0  0.88832  0.25436  0.56997  1.0000
  H   H1163     1.0  0.87232  0.20376  0.54974  1.0000
  C   C1467     1.0  0.52079  0.05720  0.68199  1.0000
  H   H1164     1.0  0.63628  0.01531  0.56983  1.0000
  H   H1165     1.0  0.92788  0.25975  0.59459  1.0000
  H   H1166     1.0  0.81299  0.43906  0.47633  1.0000
  H   H1167     1.0  0.69496  0.05416  0.49232  1.0000
  C   C1468     1.0  0.96707  0.44607  0.67645  1.0000
  H   H1168     1.0  0.88107  0.08345  0.62340  1.0000
  H   H1169     1.0  0.89490  0.14474  0.61051  1.0000
  H   H1170     1.0  0.89957  0.21352  0.62144  1.0000
  H   H1171     1.0  0.89219  0.24702  0.64489  1.0000
  P   P49       1.0  0.64609  0.29016  0.70259  1.0000
  H   H1172     1.0  0.87676  0.38399  0.69807  1.0000
  H   H1173     1.0  0.53282  0.08323  0.67443  1.0000
  H   H1174     1.0  0.71437  0.30202  0.65005  1.0000
  H   H1175     1.0  0.59148  0.44704  0.57585  1.0000
  H   H1176     1.0  0.74189  0.16838  0.62023  1.0000
  H   H1177     1.0  0.62207  0.04454  0.59321  1.0000
  H   H1178     1.0  0.52005  0.31916  0.54227  1.0000
  C   C1469     1.0  0.69657  0.04192  0.57514  1.0000
  H   H1179     1.0  0.74584  0.38681  0.47563  1.0000
  C   C1470     1.0  0.73321  0.41687  0.55124  1.0000
  C   C1471     1.0  0.58605  0.37891  0.51356  1.0000
  C   C1472     1.0  0.97752  0.13198  0.62922  1.0000
  C   C1473     1.0  0.93411  0.44732  0.68097  1.0000
  H   H1180     1.0  0.64139  0.18983  0.59391  1.0000
  H   H1181     1.0  0.98194  0.43337  0.49024  1.0000
  C   C1474     1.0  0.57639  0.01253  0.50881  1.0000
  C   C1475     1.0  0.54077  0.01045  0.50623  1.0000
  C   C1476     1.0  0.66860  0.44349  0.48806  1.0000
  C   C1477     1.0  0.61535  0.26486  0.67109  1.0000
  H   H1182     1.0  0.75316  0.41172  0.70083  1.0000
  C   C1478     1.0  0.72769  0.12608  0.66417  1.0000
  C   C1479     1.0  0.54707  0.39177  0.48490  1.0000
  C   C1480     1.0  0.56766  0.31779  0.48246  1.0000
  H   H1183     1.0  0.73862  0.40546  0.54026  1.0000
  C   C1481     1.0  0.91611  0.17531  0.50088  1.0000
  C   C1482     1.0  0.97920  0.12245  0.56303  1.0000
  H   H1184     1.0  0.97159  0.24485  0.47038  1.0000
  C   C1483     1.0  0.55096  0.35043  0.52017  1.0000
  C   C1484     1.0  0.98559  0.16694  0.62194  1.0000
  H   H1185     1.0  0.75679  0.23276  0.61142  1.0000
  H   H1186     1.0  0.98939  0.27944  0.55413  1.0000
  H   H1187     1.0  0.81917  0.48331  0.70975  1.0000
  H   H1188     1.0  0.64438  0.42074  0.51982  1.0000
  C   C1485     1.0  0.82781  0.36572  0.48675  1.0000
  C   C1486     1.0  0.93010  0.15322  0.50858  1.0000
  H   H1189     1.0  0.62605  0.12495  0.60244  1.0000
  C   C1487     1.0  0.73525  0.07456  0.65436  1.0000
  C   C1488     1.0  0.76059  0.41791  0.68776  1.0000
  C   C1489     1.0  0.68061  0.07413  0.60216  1.0000
  C   C1490     1.0  0.69758  0.40790  0.57667  1.0000
  C   C1491     1.0  0.88751  0.12960  0.47896  1.0000
  C   C1492     1.0  0.65912  0.03419  0.57797  1.0000
  C   C1493     1.0  0.67870  0.31138  0.49468  1.0000
  C   C1494     1.0  0.71043  0.26193  0.48947  1.0000
  C   C1495     1.0  0.70836  0.25364  0.50671  1.0000
  C   C1496     1.0  0.71165  0.22268  0.51282  1.0000
  C   C1497     1.0  0.71742  0.20010  0.50178  1.0000
  H   H1190     1.0  0.57546  0.35302  0.56117  1.0000
  H   H1191     1.0  0.57214  0.05317  0.68157  1.0000
  C   C1498     1.0  0.69204  0.34329  0.50463  1.0000
  C   C1499     1.0  0.66691  0.34708  0.51522  1.0000
  C   C1500     1.0  0.62859  0.31865  0.51633  1.0000
  C   C1501     1.0  0.61526  0.28658  0.50675  1.0000
  C   C1502     1.0  0.64008  0.28302  0.49592  1.0000
  C   C1503     1.0  0.75982  0.34308  0.48252  1.0000
  C   C1504     1.0  0.60040  0.14122  0.47360  1.0000
  H   H1192     1.0  0.70509  0.27155  0.51543  1.0000
  H   H1193     1.0  0.71040  0.21658  0.52613  1.0000
  H   H1194     1.0  0.72050  0.17643  0.50649  1.0000
  C   C1505     1.0  0.56643  0.00633  0.63376  1.0000
  H   H1195     1.0  0.72179  0.36504  0.50450  1.0000
  H   H1196     1.0  0.67721  0.37194  0.52266  1.0000
  H   H1197     1.0  0.60920  0.32127  0.52467  1.0000
  H   H1198     1.0  0.58554  0.26445  0.50760  1.0000
  C   C1506     1.0  0.80635  0.41028  0.47935  1.0000
  H   H1199     1.0  0.78490  0.30751  0.48876  1.0000
  C   C1507     1.0  0.67574  0.47555  0.59659  1.0000
  H   H1200     1.0  0.66548  0.41603  0.68486  1.0000
  C   C1508     1.0  0.62209  0.06741  0.62690  1.0000
  C   C1509     1.0  0.60364  0.02767  0.62738  1.0000
  P   P50       1.0  0.67098  0.09492  0.61970  1.0000
  C   C1510     1.0  0.68668  0.29142  0.65591  1.0000
  C   C1511     1.0  0.54773  0.02452  0.64003  1.0000
  H   H1201     1.0  0.51890  0.00809  0.64495  1.0000
  C   C1512     1.0  0.71827  0.08282  0.59881  1.0000
  C   C1513     1.0  0.60369  0.08535  0.63388  1.0000
  H   H1202     1.0  0.59829  0.46714  0.48588  1.0000
  H   H1203     1.0  0.64107  0.42565  0.71145  1.0000
  C   C1514     1.0  0.68239  0.14196  0.61255  1.0000
  C   C1515     1.0  0.65459  0.14827  0.60458  1.0000
  C   C1516     1.0  0.66328  0.18500  0.59960  1.0000
  C   C1517     1.0  0.69999  0.21550  0.60220  1.0000
  C   C1518     1.0  0.72817  0.20921  0.60954  1.0000
  C   C1519     1.0  0.71953  0.17259  0.61461  1.0000
  H   H1204     1.0  0.51177  0.28582  0.64802  1.0000
  C   C1520     1.0  0.90614  0.42242  0.65400  1.0000
  H   H1205     1.0  0.92126  0.20122  0.50652  1.0000
  P   P51       1.0  0.71081  0.30431  0.48162  1.0000
  H   H1206     1.0  0.74153  0.10190  0.60667  1.0000
  S   S207      1.0  0.69725  0.49560  0.65113  1.0000
  C   C1521     1.0  0.95609  0.17171  0.61479  1.0000
  H   H1207     1.0  0.56698  0.27433  0.70503  1.0000
  C   C1522     1.0  0.71938  0.20821  0.48462  1.0000
  C   C1523     1.0  0.64337  0.33262  0.70505  1.0000
  C   C1524     1.0  0.53261  0.38061  0.46881  1.0000
  C   C1525     1.0  0.88230  0.39061  0.71114  1.0000
  S   S208      1.0  0.84391  0.01336  0.55142  1.0000
  H   H1208     1.0  0.72413  0.19108  0.47595  1.0000
  C   C1526     1.0  0.54729  0.34103  0.53726  1.0000
  C   C1527     1.0  0.84540  0.49254  0.70279  1.0000
  C   C1528     1.0  0.68849  0.29510  0.71304  1.0000
  C   C1529     1.0  0.81176  0.07218  0.46613  1.0000
  H   H1209     1.0  0.61808  0.01318  0.62293  1.0000
  C   C1530     1.0  0.61506  0.46294  0.58424  1.0000
  C   C1531     1.0  0.50891  0.49665  0.47331  1.0000
  C   C1532     1.0  0.61496  0.49085  0.59389  1.0000
  H   H1210     1.0  0.98882  0.12178  0.70887  1.0000
  H   H1211     1.0  0.59621  0.16361  0.46809  1.0000
  H   H1212     1.0  0.76333  0.01062  0.49847  1.0000
  C   C1533     1.0  0.49686  0.40082  0.65806  1.0000
  C   C1534     1.0  0.73887  0.01151  0.47446  1.0000
  S   S209      1.0  0.91992  0.38776  0.46823  1.0000
  C   C1535     1.0  0.56787  0.29056  0.47235  1.0000
  H   H1213     1.0  0.80997  0.14281  0.47137  1.0000
  H   H1214     1.0  0.57482  0.04948  0.46763  1.0000
  C   C1536     1.0  0.49746  0.40815  0.48955  1.0000
  C   C1537     1.0  0.95514  0.43644  0.46718  1.0000
  H   H1215     1.0  0.59140  0.49659  0.59299  1.0000
  C   C1538     1.0  0.62022  0.36718  0.46638  1.0000
  C   C1539     1.0  0.64564  0.04181  0.46542  1.0000
  Fe  Fe102     1.0  0.60760  0.10160  0.95016  1.0000
  S   S210      1.0  0.58383  0.08672  0.92424  1.0000
  C   C1540     1.0  0.52010  0.21462  0.94727  1.0000
  Fe  Fe103     1.0  0.66761  0.18292  0.93931  1.0000
  S   S211      1.0  0.64801  0.17326  0.91276  1.0000
  S   S212      1.0  0.71208  0.23889  0.95015  1.0000
  Fe  Fe104     1.0  0.58829  0.14440  0.92348  1.0000
  S   S213      1.0  0.54117  0.15518  0.91304  1.0000
  Fe  Fe105     1.0  0.64582  0.11656  0.91598  1.0000
  S   S214      1.0  0.67092  0.09874  0.89469  1.0000
  S   S215      1.0  0.60808  0.15707  0.94985  1.0000
  S   S216      1.0  0.66947  0.12846  0.94208  1.0000
  H   H1216     1.0  0.76010  0.17733  0.91885  1.0000
  C   C1541     1.0  0.78814  0.09038  0.83331  1.0000
  H   H1217     1.0  0.92829  0.27797  0.73873  1.0000
  S   S217      1.0  0.88030  0.04108  0.83235  1.0000
  Fe  Fe106     1.0  0.53584  0.38783  0.92035  1.0000
  S   S218      1.0  0.59446  0.42532  0.90864  1.0000
  S   S219      1.0  0.52728  0.36770  0.94708  1.0000
  C   C1542     1.0  0.62840  0.37153  0.72226  1.0000
  H   H1218     1.0  0.67342  0.45780  0.89886  1.0000
  C   C1543     1.0  0.67795  0.25006  0.87062  1.0000
  Fe  Fe107     1.0  0.83854  0.45369  0.92332  1.0000
  S   S220      1.0  0.81984  0.39619  0.91214  1.0000
  S   S221      1.0  0.83111  0.46056  0.95039  1.0000
  H   H1219     1.0  0.49662  0.07328  0.92419  1.0000
  C   C1544     1.0  0.53316  0.28286  0.87072  1.0000
  C   C1545     1.0  0.63679  0.43916  0.92053  1.0000
  C   C1546     1.0  0.63589  0.43587  0.93797  1.0000
  C   C1547     1.0  0.67017  0.44917  0.94709  1.0000
  C   C1548     1.0  0.70576  0.46556  0.93893  1.0000
  C   C1549     1.0  0.69303  0.01081  0.90260  1.0000
  C   C1550     1.0  0.67234  0.45514  0.91234  1.0000
  H   H1220     1.0  0.60891  0.42387  0.94451  1.0000
  C   C1551     1.0  0.87978  0.05722  0.91075  1.0000
  S   S222      1.0  0.49625  0.33026  0.91023  1.0000
  C   C1552     1.0  0.67381  0.34862  0.89337  1.0000
  C   C1553     1.0  0.92418  0.06687  0.84323  1.0000
  C   C1554     1.0  0.95862  0.08217  0.83424  1.0000
  C   C1555     1.0  0.71052  0.32580  0.72332  1.0000
  C   C1556     1.0  0.87091  0.36891  0.74011  1.0000
  C   C1557     1.0  0.92541  0.07635  0.85994  1.0000
  H   H1221     1.0  0.95807  0.07495  0.82136  1.0000
  H   H1222     1.0  0.88769  0.42654  0.88832  1.0000
  H   H1223     1.0  0.89926  0.06454  0.86713  1.0000
  C   C1558     1.0  0.73715  0.28254  0.93868  1.0000
  C   C1559     1.0  0.75250  0.31652  0.94727  1.0000
  C   C1560     1.0  0.77628  0.35164  0.93909  1.0000
  C   C1561     1.0  0.78572  0.35314  0.92227  1.0000
  C   C1562     1.0  0.76937  0.31925  0.91351  1.0000
  C   C1563     1.0  0.74488  0.28413  0.92162  1.0000
  H   H1224     1.0  0.49424  0.47417  0.89125  1.0000
  H   H1225     1.0  0.78859  0.37734  0.94602  1.0000
  H   H1226     1.0  0.77631  0.32009  0.90048  1.0000
  H   H1227     1.0  0.73330  0.25820  0.91485  1.0000
  C   C1564     1.0  0.52970  0.18714  0.92260  1.0000
  H   H1228     1.0  0.59330  0.17255  0.88170  1.0000
  P   P52       1.0  0.84787  0.12575  0.88447  1.0000
  C   C1565     1.0  0.70079  0.36347  0.90623  1.0000
  S   S223      1.0  0.74832  0.48509  0.95105  1.0000
  C   C1566     1.0  0.68571  0.06419  0.89244  1.0000
  C   C1567     1.0  0.70169  0.06276  0.87714  1.0000
  C   C1568     1.0  0.97290  0.23808  0.81564  1.0000
  H   H1229     1.0  0.98267  0.16368  0.82613  1.0000
  H   H1230     1.0  0.95678  0.01490  0.78406  1.0000
  C   C1569     1.0  0.68184  0.03818  0.90525  1.0000
  H   H1231     1.0  0.70511  0.08280  0.86717  1.0000
  C   C1570     1.0  0.82219  0.14267  0.89669  1.0000
  H   H1232     1.0  0.54417  0.45653  0.88723  1.0000
  H   H1233     1.0  0.67002  0.03899  0.91714  1.0000
  C   C1571     1.0  0.60351  0.21783  0.71789  1.0000
  C   C1572     1.0  0.61525  0.20206  0.88028  1.0000
  H   H1234     1.0  0.69652  0.34841  0.91812  1.0000
  C   C1573     1.0  0.84756  0.08525  0.89475  1.0000
  C   C1574     1.0  0.81405  0.04985  0.89496  1.0000
  H   H1235     1.0  0.86250  0.25557  0.72934  1.0000
  C   C1575     1.0  0.53535  0.18743  0.72339  1.0000
  H   H1236     1.0  0.96749  0.24617  0.75510  1.0000
  H   H1237     1.0  0.97412  0.18394  0.85639  1.0000
  C   C1576     1.0  0.91949  0.29307  0.76336  1.0000
  H   H1238     1.0  0.90152  0.41148  0.75824  1.0000
  H   H1239     1.0  0.76726  0.44475  0.88656  1.0000
  C   C1577     1.0  0.62254  0.29200  0.91809  1.0000
  H   H1240     1.0  0.65398  0.26133  0.91975  1.0000
  H   H1241     1.0  0.59077  0.32167  0.92129  1.0000
  C   C1578     1.0  0.60266  0.30557  0.92728  1.0000
  P   P53       1.0  0.96792  0.30996  0.77076  1.0000
  C   C1579     1.0  0.79789  0.12313  0.85912  1.0000
  C   C1580     1.0  0.51442  0.20599  0.91286  1.0000
  C   C1581     1.0  0.95791  0.18582  0.86662  1.0000
  H   H1242     1.0  0.50896  0.16293  0.72766  1.0000
  H   H1243     1.0  0.49707  0.10452  0.94986  1.0000
  H   H1244     1.0  0.51140  0.20212  0.89955  1.0000
  H   H1245     1.0  0.72449  0.03438  0.86259  1.0000
  C   C1582     1.0  0.96927  0.28106  0.78816  1.0000
  C   C1583     1.0  0.86608  0.46266  0.87913  1.0000
  H   H1246     1.0  0.75909  0.12066  0.83972  1.0000
  C   C1584     1.0  0.81419  0.07891  0.83857  1.0000
  H   H1247     1.0  0.85504  0.20076  0.88735  1.0000
  C   C1585     1.0  0.56260  0.27833  0.87796  1.0000
  C   C1586     1.0  0.59807  0.29863  0.94452  1.0000
  C   C1587     1.0  0.83149  0.18085  0.89520  1.0000
  H   H1248     1.0  0.85692  0.34618  0.74934  1.0000
  C   C1588     1.0  0.99066  0.41986  0.77171  1.0000
  C   C1589     1.0  0.71280  0.03532  0.87451  1.0000
  H   H1249     1.0  0.82796  0.31657  0.93958  1.0000
  C   C1590     1.0  0.63303  0.26450  0.94367  1.0000
  C   C1591     1.0  0.56970  0.18663  0.72390  1.0000
  C   C1592     1.0  0.61023  0.22987  0.88769  1.0000
  C   C1593     1.0  0.77776  0.16787  0.91287  1.0000
  C   C1594     1.0  0.79007  0.11721  0.90624  1.0000
  C   C1595     1.0  0.89615  0.40565  0.74510  1.0000
  H   H1250     1.0  0.82077  0.06197  0.83057  1.0000
  H   H1251     1.0  0.90802  0.25057  0.79294  1.0000
  C   C1596     1.0  0.89514  0.45475  0.88369  1.0000
  C   C1597     1.0  0.63840  0.26807  0.88624  1.0000
  C   C1598     1.0  0.81311  0.01872  0.90341  1.0000
  H   H1252     1.0  0.93944  0.46996  0.95781  1.0000
  H   H1253     1.0  0.64494  0.24872  0.95002  1.0000
  C   C1599     1.0  0.82410  0.11160  0.86452  1.0000
  H   H1254     1.0  0.74265  0.10987  0.92121  1.0000
  C   C1600     1.0  0.67263  0.27800  0.87778  1.0000
  C   C1601     1.0  0.53296  0.19205  0.93984  1.0000
  C   C1602     1.0  0.61321  0.27809  0.95271  1.0000
  C   C1603     1.0  0.98669  0.35859  0.77658  1.0000
  C   C1604     1.0  0.88051  0.08871  0.90276  1.0000
  H   H1255     1.0  0.90131  0.30775  0.78581  1.0000
  H   H1256     1.0  0.62947  0.21621  0.71829  1.0000
  C   C1605     1.0  0.97867  0.02947  0.79334  1.0000
  C   C1606     1.0  0.77982  0.11231  0.84363  1.0000
  H   H1257     1.0  0.90226  0.18735  0.90531  1.0000
  C   C1607     1.0  0.68085  0.36875  0.87803  1.0000
  H   H1258     1.0  0.54439  0.17763  0.94755  1.0000
  H   H1259     1.0  0.56183  0.25169  0.87665  1.0000
  C   C1608     1.0  0.62945  0.33816  0.72002  1.0000
  P   P54       1.0  0.63107  0.30334  0.89605  1.0000
  H   H1260     1.0  0.61972  0.31681  0.73001  1.0000
  C   C1609     1.0  0.91714  0.18747  0.89416  1.0000
  H   H1261     1.0  0.58456  0.22163  0.89478  1.0000
  C   C1610     1.0  0.86385  0.36149  0.72317  1.0000
  H   H1262     1.0  0.77411  0.08185  0.82133  1.0000
  C   C1611     1.0  0.84424  0.26786  0.75226  1.0000
  H   H1263     1.0  0.90550  0.05987  0.91655  1.0000
  H   H1264     1.0  0.66050  0.35749  0.86790  1.0000
  H   H1265     1.0  0.84478  0.33292  0.71923  1.0000
  C   C1612     1.0  0.96050  0.10274  0.86716  1.0000
  C   C1613     1.0  0.59220  0.30793  0.88673  1.0000
  C   C1614     1.0  0.64919  0.21210  0.87181  1.0000
  H   H1266     1.0  0.91177  0.21377  0.81711  1.0000
  H   H1267     1.0  0.56265  0.37303  0.88193  1.0000
  C   C1615     1.0  0.71439  0.40345  0.87564  1.0000
  C   C1616     1.0  0.63782  0.27149  0.92643  1.0000
  H   H1268     1.0  0.71974  0.41899  0.86382  1.0000
  H   H1269     1.0  0.75476  0.40919  0.91385  1.0000
  C   C1617     1.0  0.56268  0.34666  0.88063  1.0000
  C   C1618     1.0  0.97545  0.38189  0.76769  1.0000
  H   H1270     1.0  0.69565  0.30704  0.87695  1.0000
  C   C1619     1.0  0.59176  0.34205  0.88810  1.0000
  H   H1271     1.0  0.85053  0.07836  0.85826  1.0000
  H   H1272     1.0  0.93868  0.34980  0.72978  1.0000
  C   C1620     1.0  0.98219  0.14954  0.80049  1.0000
  C   C1621     1.0  0.74112  0.41808  0.88850  1.0000
  H   H1273     1.0  0.83637  0.44055  0.88013  1.0000
  H   H1274     1.0  0.61379  0.36521  0.89506  1.0000
  C   C1622     1.0  0.73418  0.39816  0.90380  1.0000
  H   H1275     1.0  0.57175  0.48313  0.91731  1.0000
  H   H1276     1.0  0.90956  0.00673  0.80908  1.0000
  H   H1277     1.0  0.58221  0.30876  0.95147  1.0000
  H   H1278     1.0  0.81662  0.22278  0.90209  1.0000
  C   C1623     1.0  0.53330  0.31709  0.87200  1.0000
  H   H1279     1.0  0.87712  0.38326  0.94416  1.0000
  H   H1280     1.0  0.70464  0.25778  0.86440  1.0000
  H   H1281     1.0  0.65355  0.19032  0.86657  1.0000
  C   C1624     1.0  0.70663  0.46805  0.92147  1.0000
  C   C1625     1.0  0.93764  0.23364  0.81044  1.0000
  C   C1626     1.0  0.85534  0.28277  0.76812  1.0000
  C   C1627     1.0  0.90823  0.27868  0.74732  1.0000
  C   C1628     1.0  0.75547  0.30313  0.72823  1.0000
  H   H1282     1.0  0.95272  0.12669  0.80103  1.0000
  H   H1283     1.0  0.78099  0.08738  0.90713  1.0000
  C   C1629     1.0  0.50498  0.23357  0.93756  1.0000
  C   C1630     1.0  0.84604  0.02226  0.91113  1.0000
  C   C1631     1.0  0.98143  0.00968  0.80753  1.0000
  C   C1632     1.0  0.89757  0.16178  0.88150  1.0000
  H   H1284     1.0  0.78862  0.04623  0.88854  1.0000
  C   C1633     1.0  0.86708  0.36292  0.95459  1.0000
  H   H1285     1.0  0.52318  0.02372  0.95014  1.0000
  C   C1634     1.0  0.91441  0.43494  0.73312  1.0000
  H   H1286     1.0  0.61775  0.37583  0.73381  1.0000
  H   H1287     1.0  0.79071  0.13995  0.86686  1.0000
  H   H1288     1.0  0.95545  0.47735  0.88747  1.0000
  H   H1289     1.0  0.90481  0.14088  0.85805  1.0000
  H   H1290     1.0  0.90707  0.11535  0.90270  1.0000
  H   H1291     1.0  0.96098  0.11117  0.87984  1.0000
  C   C1635     1.0  0.95661  0.21232  0.89294  1.0000
  C   C1636     1.0  0.90790  0.42754  0.71604  1.0000
  C   C1637     1.0  0.87076  0.26612  0.74184  1.0000
  H   H1292     1.0  0.51022  0.25969  0.86419  1.0000
  C   C1638     1.0  0.76806  0.12984  0.91429  1.0000
  H   H1293     1.0  0.83487  0.28447  0.77615  1.0000
  H   H1294     1.0  0.97443  0.22211  0.82644  1.0000
  H   H1295     1.0  0.86091  0.45644  0.71678  1.0000
  H   H1296     1.0  0.99059  0.45263  0.71547  1.0000
  C   C1639     1.0  0.51131  0.41409  0.86940  1.0000
  C   C1640     1.0  0.93573  0.25488  0.79672  1.0000
  C   C1641     1.0  0.83140  0.08865  0.85425  1.0000
  H   H1297     1.0  0.76095  0.35370  0.73861  1.0000
  S   S224      1.0  0.81101  0.48714  0.91386  1.0000
  H   H1298     1.0  0.98268  0.43791  0.76449  1.0000
  C   C1642     1.0  0.70792  0.00867  0.88716  1.0000
  H   H1299     1.0  0.81526  0.25807  0.74790  1.0000
  C   C1643     1.0  0.91839  0.16125  0.86769  1.0000
  H   H1300     1.0  0.54987  0.01449  0.90471  1.0000
  C   C1644     1.0  0.89292  0.29575  0.77357  1.0000
  C   C1645     1.0  0.80955  0.19341  0.90338  1.0000
  C   C1646     1.0  0.95742  0.36052  0.71907  1.0000
  C   C1647     1.0  0.74389  0.32974  0.73087  1.0000
  H   H1301     1.0  0.78134  0.30623  0.73399  1.0000
  H   H1302     1.0  0.50805  0.21979  0.71594  1.0000
  C   C1648     1.0  0.87529  0.49942  0.87408  1.0000
  H   H1303     1.0  0.51049  0.32068  0.86651  1.0000
  C   C1649     1.0  0.93342  0.48357  0.88317  1.0000
  H   H1304     1.0  0.95550  0.37101  0.75742  1.0000
  C   C1650     1.0  0.98986  0.27192  0.74922  1.0000
  C   C1651     1.0  0.51760  0.44269  0.88025  1.0000
  C   C1652     1.0  0.50268  0.22958  0.92025  1.0000
  H   H1305     1.0  0.70253  0.34711  0.72536  1.0000
  H   H1306     1.0  0.53310  0.40615  0.86793  1.0000
  H   H1307     1.0  0.59594  0.00624  0.95679  1.0000
  H   H1308     1.0  0.57000  0.16156  0.72872  1.0000
  H   H1309     1.0  0.97165  0.23157  0.90288  1.0000
  H   H1310     1.0  0.93355  0.46338  0.73718  1.0000
  H   H1311     1.0  0.49397  0.47272  0.94615  1.0000
  H   H1312     1.0  0.60619  0.48751  0.94343  1.0000
  C   C1653     1.0  0.53481  0.21943  0.71683  1.0000
  H   H1313     1.0  0.74679  0.31564  0.96046  1.0000
  H   H1314     1.0  0.73375  0.48077  0.91500  1.0000
  C   C1654     1.0  0.97703  0.21129  0.87923  1.0000
  C   C1655     1.0  0.62221  0.00566  0.95475  1.0000
  H   H1315     1.0  0.66915  0.44705  0.96057  1.0000
  H   H1316     1.0  0.52188  0.21743  0.96065  1.0000
  C   C1656     1.0  0.73395  0.27281  0.71789  1.0000
  H   H1317     1.0  0.71852  0.06208  0.95882  1.0000
  H   H1318     1.0  0.96532  0.15463  0.72667  1.0000
  Fe  Fe108     1.0  0.80536  0.49573  0.94071  1.0000
  C   C1657     1.0  0.51453  0.00999  0.96234  1.0000
  C   C1658     1.0  0.69143  0.03725  0.95605  1.0000
  C   C1659     1.0  0.65720  0.03731  0.95863  1.0000
  C   C1660     1.0  0.69062  0.00507  0.94998  1.0000
  H   H1319     1.0  0.71715  0.00493  0.94802  1.0000
  C   C1661     1.0  0.83943  0.32530  0.95199  1.0000
  H   H1320     1.0  0.99030  0.13974  0.77528  1.0000
  H   H1321     1.0  0.98033  0.49748  0.85604  1.0000
  H   H1322     1.0  0.65758  0.06188  0.96366  1.0000
  C   C1662     1.0  0.99114  0.15389  0.73009  1.0000
  H   H1323     1.0  0.80404  0.27008  0.96331  1.0000
  H   H1324     1.0  0.74319  0.25251  0.71544  1.0000
  Fe  Fe109     1.0  0.52817  0.63490  0.03473  1.0000
  S   S225      1.0  0.54052  0.65753  0.00820  1.0000
  S   S226      1.0  0.57152  0.63841  0.05460  1.0000
  H   H1325     1.0  0.60492  0.89541  0.01751  1.0000
  Fe  Fe110     1.0  0.82626  0.83972  0.11553  1.0000
  S   S227      1.0  0.83844  0.83740  0.08863  1.0000
  S   S228      1.0  0.82995  0.89131  0.12761  1.0000
  Fe  Fe111     1.0  0.81276  0.75916  0.12310  1.0000
  S   S229      1.0  0.82396  0.75149  0.09649  1.0000
  S   S230      1.0  0.79740  0.71659  0.14498  1.0000
  Fe  Fe112     1.0  0.87346  0.81135  0.09808  1.0000
  S   S231      1.0  0.93246  0.83090  0.08715  1.0000
  Fe  Fe113     1.0  0.78753  0.77807  0.08954  1.0000
  S   S232      1.0  0.74635  0.76425  0.06731  1.0000
  S   S233      1.0  0.86435  0.81718  0.12500  1.0000
  S   S234      1.0  0.77319  0.78214  0.11612  1.0000
  Fe  Fe114     1.0  0.83137  0.54824  0.17723  1.0000
  C   C1663     1.0  0.70531  0.56903  0.17460  1.0000
  S   S235      1.0  0.84460  0.58844  0.15451  1.0000
  H   H1326     1.0  0.91369  0.77204  0.13226  1.0000
  H   H1327     1.0  0.70420  0.62151  0.17044  1.0000
  C   C1664     1.0  0.49302  0.65946  0.08349  1.0000
  S   S236      1.0  0.87637  0.53331  0.18540  1.0000
  H   H1328     1.0  0.66948  0.81658  0.05491  1.0000
  H   H1329     1.0  0.69255  0.81506  0.02696  1.0000
  C   C1665     1.0  0.63632  0.77762  0.01736  1.0000
  C   C1666     1.0  0.92429  0.71285  0.10703  1.0000
  H   H1330     1.0  0.68150  0.62077  0.96892  1.0000
  H   H1331     1.0  0.67232  0.50773  0.98902  1.0000
  C   C1667     1.0  0.56098  0.70366  0.08074  1.0000
  C   C1668     1.0  0.53594  0.83621  0.08226  1.0000
  H   H1332     1.0  0.96541  0.64315  0.19631  1.0000
  C   C1669     1.0  0.64153  0.82533  0.09509  1.0000
  C   C1670     1.0  0.61712  0.56041  0.98782  1.0000
  C   C1671     1.0  0.81139  0.68155  0.14735  1.0000
  C   C1672     1.0  0.80374  0.66072  0.16253  1.0000
  C   C1673     1.0  0.81343  0.63199  0.16491  1.0000
  C   C1674     1.0  0.83134  0.62405  0.15211  1.0000
  C   C1675     1.0  0.83948  0.64523  0.13698  1.0000
  C   C1676     1.0  0.82950  0.67378  0.13459  1.0000
  H   H1333     1.0  0.79037  0.66704  0.17253  1.0000
  H   H1334     1.0  0.80716  0.61614  0.17665  1.0000
  H   H1335     1.0  0.85345  0.63943  0.12701  1.0000
  H   H1336     1.0  0.83550  0.68955  0.12283  1.0000
  C   C1677     1.0  0.61991  0.67416  0.05800  1.0000
  C   C1678     1.0  0.64072  0.70317  0.04619  1.0000
  C   C1679     1.0  0.67939  0.73011  0.04923  1.0000
  C   C1680     1.0  0.69766  0.72891  0.06419  1.0000
  C   C1681     1.0  0.67669  0.70023  0.07611  1.0000
  C   C1682     1.0  0.63819  0.67291  0.07297  1.0000
  H   H1337     1.0  0.62721  0.70444  0.03460  1.0000
  H   H1338     1.0  0.69536  0.75198  0.03987  1.0000
  H   H1339     1.0  0.69022  0.69887  0.08767  1.0000
  H   H1340     1.0  0.62245  0.65056  0.08218  1.0000
  C   C1683     1.0  0.71612  0.54873  0.18583  1.0000
  C   C1684     1.0  0.97644  0.85664  0.11592  1.0000
  C   C1685     1.0  0.93028  0.71837  0.17744  1.0000
  C   C1686     1.0  0.66216  0.79910  0.02969  1.0000
  H   H1341     1.0  0.95035  0.83948  0.12289  1.0000
  H   H1342     1.0  0.65273  0.94318  0.10884  1.0000
  H   H1343     1.0  0.68044  0.86077  0.11394  1.0000
  C   C1687     1.0  0.84966  0.97265  0.09180  1.0000
  C   C1688     1.0  0.83900  0.93724  0.09968  1.0000
  C   C1689     1.0  0.84885  0.93528  0.11637  1.0000
  C   C1690     1.0  0.87085  0.96911  0.12481  1.0000
  C   C1691     1.0  0.69482  0.81932  0.10620  1.0000
  H   H1344     1.0  0.82195  0.91143  0.09305  1.0000
  H   H1345     1.0  0.87859  0.96793  0.13771  1.0000
  P   P55       1.0  0.59219  0.77975  0.06986  1.0000
  C   C1692     1.0  0.59727  0.75662  0.02100  1.0000
  C   C1693     1.0  0.90021  0.66347  0.20355  1.0000
  C   C1694     1.0  0.93315  0.79254  0.02837  1.0000
  C   C1695     1.0  0.55268  0.86548  0.98586  1.0000
  C   C1696     1.0  0.63144  0.79471  0.08465  1.0000
  H   H1346     1.0  0.57721  0.74031  0.01139  1.0000
  C   C1697     1.0  0.96228  0.79805  0.01742  1.0000
  H   H1347     1.0  0.62594  0.84059  0.09481  1.0000
  C   C1698     1.0  0.91484  0.73961  0.11220  1.0000
  H   H1348     1.0  0.71947  0.82889  0.11439  1.0000
  H   H1349     1.0  0.55358  0.74004  0.03956  1.0000
  H   H1350     1.0  0.69669  0.94107  0.13041  1.0000
  C   C1699     1.0  0.63550  0.59837  0.01261  1.0000
  C   C1700     1.0  0.67288  0.83730  0.10589  1.0000
  C   C1701     1.0  0.57952  0.55344  0.98968  1.0000
  C   C1702     1.0  0.54945  0.84767  0.05270  1.0000
  H   H1351     1.0  0.84663  0.78437  0.16686  1.0000
  H   H1352     1.0  0.90220  0.75128  0.10347  1.0000
  P   P56       1.0  0.68161  0.54837  0.15528  1.0000
  C   C1703     1.0  0.93837  0.73694  0.14009  1.0000
  C   C1704     1.0  0.52185  0.90308  0.98898  1.0000
  C   C1705     1.0  0.64487  0.58222  0.99965  1.0000
  C   C1706     1.0  0.97292  0.52149  0.18127  1.0000
  C   C1707     1.0  0.91315  0.67972  0.17409  1.0000
  C   C1708     1.0  0.94143  0.69860  0.11822  1.0000
  H   H1353     1.0  0.51624  0.86648  0.06605  1.0000
  C   C1709     1.0  0.93224  0.78655  0.16428  1.0000
  C   C1710     1.0  0.69133  0.58688  0.14050  1.0000
  C   C1711     1.0  0.72447  0.60310  0.13054  1.0000
  C   C1712     1.0  0.73302  0.63427  0.11988  1.0000
  C   C1713     1.0  0.70879  0.64970  0.11912  1.0000
  C   C1714     1.0  0.67583  0.63389  0.12900  1.0000
  C   C1715     1.0  0.66722  0.60277  0.13973  1.0000
  H   H1354     1.0  0.91025  0.67014  0.16150  1.0000
  C   C1716     1.0  0.73877  0.86130  0.21184  1.0000
  C   C1717     1.0  0.57027  0.56969  0.00262  1.0000
  H   H1355     1.0  0.54537  0.85849  0.04076  1.0000
  C   C1718     1.0  0.68541  0.78932  0.09571  1.0000
  H   H1356     1.0  0.75857  0.55826  0.15263  1.0000
  H   H1357     1.0  0.52914  0.94213  0.96883  1.0000
  H   H1358     1.0  0.74442  0.59260  0.13120  1.0000
  H   H1359     1.0  0.75909  0.64720  0.11254  1.0000
  H   H1360     1.0  0.71606  0.67437  0.11111  1.0000
  H   H1361     1.0  0.65736  0.64624  0.12853  1.0000
  C   C1719     1.0  0.53059  0.87581  0.99529  1.0000
  C   C1720     1.0  0.95668  0.82592  0.16459  1.0000
  H   H1362     1.0  0.90415  0.78192  0.02386  1.0000
  C   C1721     1.0  0.72913  0.62037  0.19407  1.0000
  H   H1363     1.0  0.88996  0.85402  0.16671  1.0000
  C   C1722     1.0  0.73306  0.56411  0.20107  1.0000
  Fe  Fe115     1.0  0.86047  0.53776  0.21157  1.0000
  C   C1723     1.0  0.55539  0.81567  0.08323  1.0000
  C   C1724     1.0  0.53285  0.85208  0.06698  1.0000
  H   H1364     1.0  0.96332  0.70060  0.14298  1.0000
  C   C1725     1.0  0.63085  0.51930  0.15918  1.0000
  C   C1726     1.0  0.90182  0.83523  0.16649  1.0000
  C   C1727     1.0  0.59827  0.59232  0.01403  1.0000
  H   H1365     1.0  0.62611  0.95409  0.03307  1.0000
  Fe  Fe116     1.0  0.49772  0.67708  0.01260  1.0000
  P   P57       1.0  0.62881  0.53896  0.97122  1.0000
  C   C1728     1.0  0.97527  0.85863  0.09847  1.0000
  H   H1366     1.0  0.84087  0.97384  0.07909  1.0000
  H   H1367     1.0  0.91835  0.70332  0.09432  1.0000
  H   H1368     1.0  0.95582  0.79166  0.00436  1.0000
  H   H1369     1.0  0.64649  0.77698  0.00502  1.0000
  C   C1729     1.0  0.64893  0.79950  0.04565  1.0000
  H   H1370     1.0  0.70283  0.77576  0.09565  1.0000
  C   C1730     1.0  0.98990  0.66470  0.20287  1.0000
  H   H1371     1.0  0.54130  0.56466  0.00384  1.0000
  C   C1731     1.0  0.94144  0.85014  0.16558  1.0000
  S   S237      1.0  0.81826  0.55657  0.20336  1.0000
  H   H1372     1.0  0.59100  0.60482  0.02409  1.0000
  C   C1732     1.0  0.58398  0.75646  0.03702  1.0000
  H   H1373     1.0  0.98737  0.83823  0.16379  1.0000
  C   C1733     1.0  0.89255  0.77180  0.16548  1.0000
  H   H1374     1.0  0.64223  0.59174  0.14768  1.0000
  H   H1375     1.0  0.55914  0.84407  0.99077  1.0000
  C   C1734     1.0  0.93169  0.72920  0.19400  1.0000
  H   H1376     1.0  0.91909  0.79747  0.05366  1.0000
  H   H1377     1.0  0.80517  0.96189  0.04529  1.0000
  C   C1735     1.0  0.80487  0.99341  0.16880  1.0000
  H   H1378     1.0  0.50464  0.91099  0.99630  1.0000
  C   C1736     1.0  0.73979  0.59996  0.20515  1.0000
  C   C1737     1.0  0.94149  0.80113  0.04516  1.0000
  C   C1738     1.0  0.53090  0.66728  0.08465  1.0000
  H   H1379     1.0  0.57986  0.82269  0.04222  1.0000
  C   C1739     1.0  0.76584  0.99598  0.05493  1.0000
  H   H1380     1.0  0.74087  0.54809  0.20976  1.0000
  C   C1740     1.0  0.73348  0.99127  0.20237  1.0000
  H   H1381     1.0  0.88533  0.62275  0.18444  1.0000
  C   C1741     1.0  0.56903  0.82727  0.05362  1.0000
  H   H1382     1.0  0.58971  0.70821  0.08127  1.0000
  H   H1383     1.0  0.94869  0.67779  0.11422  1.0000
  C   C1742     1.0  0.55350  0.73277  0.07564  1.0000
  C   C1743     1.0  0.60976  0.77772  0.04953  1.0000
  H   H1384     1.0  0.69442  0.88105  0.04002  1.0000
  P   P58       1.0  0.95034  0.75456  0.16099  1.0000
  H   H1385     1.0  0.50791  0.74541  0.06985  1.0000
  H   H1386     1.0  0.63926  0.85909  0.02109  1.0000
  C   C1744     1.0  0.65415  0.77728  0.08493  1.0000
  C   C1745     1.0  0.75705  0.86093  0.06577  1.0000
  C   C1746     1.0  0.79167  0.87516  0.05722  1.0000
  C   C1747     1.0  0.80879  0.91156  0.04987  1.0000
  C   C1748     1.0  0.79116  0.93367  0.05096  1.0000
  C   C1749     1.0  0.75639  0.91954  0.05962  1.0000
  C   C1750     1.0  0.73948  0.88299  0.06701  1.0000
  P   P59       1.0  0.73308  0.94749  0.06143  1.0000
  C   C1751     1.0  0.69139  0.92985  0.04804  1.0000
  C   C1752     1.0  0.72100  0.94559  0.08325  1.0000
  C   C1753     1.0  0.68731  0.94499  0.08817  1.0000
  C   C1754     1.0  0.67870  0.94352  0.10512  1.0000
  C   C1755     1.0  0.70339  0.94227  0.11728  1.0000
  C   C1756     1.0  0.73662  0.94228  0.11250  1.0000
  C   C1757     1.0  0.74547  0.94412  0.09560  1.0000
  C   C1758     1.0  0.67944  0.89691  0.03897  1.0000
  C   C1759     1.0  0.64835  0.88456  0.02803  1.0000
  C   C1760     1.0  0.62902  0.90503  0.02599  1.0000
  C   C1761     1.0  0.64093  0.93805  0.03480  1.0000
  C   C1762     1.0  0.67219  0.95062  0.04566  1.0000
  C   C1763     1.0  0.89848  0.65251  0.18713  1.0000
  H   H1387     1.0  0.61426  0.52474  0.13382  1.0000
  H   H1388     1.0  0.75556  0.94057  0.12185  1.0000
  C   C1764     1.0  0.71189  0.60499  0.17886  1.0000
  H   H1389     1.0  0.52037  0.86287  0.00753  1.0000
  C   C1765     1.0  0.94914  0.71115  0.13459  1.0000
  H   H1390     1.0  0.74411  0.83282  0.07154  1.0000
  H   H1391     1.0  0.80532  0.85797  0.05644  1.0000
  H   H1392     1.0  0.83600  0.92275  0.04348  1.0000
  C   C1766     1.0  0.75243  0.50878  0.14114  1.0000
  H   H1393     1.0  0.71280  0.87160  0.07379  1.0000
  H   H1394     1.0  0.66746  0.94544  0.07907  1.0000
  C   C1767     1.0  0.60455  0.51178  0.14611  1.0000
  H   H1395     1.0  0.52194  0.83864  0.09320  1.0000
  H   H1396     1.0  0.93571  0.51972  0.01234  1.0000
  H   H1397     1.0  0.77145  0.94421  0.09220  1.0000
  C   C1768     1.0  0.73855  0.53114  0.14760  1.0000
  H   H1398     1.0  0.65697  0.61541  0.02167  1.0000
  H   H1399     1.0  0.87315  0.74156  0.16500  1.0000
  C   C1769     1.0  0.87743  0.79604  0.16659  1.0000
  H   H1400     1.0  0.80143  0.95439  0.15034  1.0000
  H   H1401     1.0  0.96119  0.57096  0.21088  1.0000
  H   H1402     1.0  0.96031  0.88056  0.16522  1.0000
  H   H1403     1.0  0.94437  0.75886  0.19685  1.0000
  S   S238      1.0  0.93598  0.53704  0.96746  1.0000
  H   H1404     1.0  0.78296  0.51898  0.14109  1.0000
  H   H1405     1.0  0.67542  0.95062  0.20961  1.0000
  H   H1406     1.0  0.55730  0.53532  0.98118  1.0000
  H   H1407     1.0  0.64860  0.75515  0.07640  1.0000
  C   C1770     1.0  0.57236  0.81122  0.06893  1.0000
  H   H1408     1.0  0.55582  0.80188  0.09498  1.0000
  H   H1409     1.0  0.53706  0.64477  0.08797  1.0000
  H   H1410     1.0  0.72464  0.84556  0.20083  1.0000
  C   C1771     1.0  0.92152  0.75140  0.12867  1.0000
  H   H1411     1.0  0.88860  0.64213  0.21358  1.0000
  H   H1412     1.0  0.74707  0.98848  0.02913  1.0000
  H   H1413     1.0  0.79525  0.88627  0.20112  1.0000
  H   H1414     1.0  0.73464  0.64834  0.19712  1.0000
  C   C1772     1.0  0.91680  0.70186  0.20700  1.0000
  C   C1773     1.0  0.69918  0.51860  0.14751  1.0000
  C   C1774     1.0  0.80672  0.98274  0.15259  1.0000
  H   H1415     1.0  0.63732  0.50360  0.18470  1.0000
  H   H1416     1.0  0.71107  0.52081  0.18294  1.0000
  C   C1775     1.0  0.51512  0.72438  0.07435  1.0000
  H   H1417     1.0  0.64801  0.98888  0.19754  1.0000
  C   C1776     1.0  0.69407  0.97781  0.20351  1.0000
  H   H1418     1.0  0.67364  0.58655  0.99896  1.0000
  C   C1777     1.0  0.96629  0.51833  0.97336  1.0000
  H   H1419     1.0  0.74492  0.97380  0.20730  1.0000
  C   C1778     1.0  0.53535  0.92025  0.97326  1.0000
  H   H1420     1.0  0.79708  0.97277  0.17901  1.0000
  H   H1421     1.0  0.68171  0.97684  0.05204  1.0000
  S   S239      1.0  0.50412  0.73393  0.00401  1.0000
  H   H1422     1.0  0.98469  0.82200  0.06406  1.0000
  C   C1779     1.0  0.61764  0.50011  0.17466  1.0000
  C   C1780     1.0  0.56632  0.88269  0.97014  1.0000
  C   C1781     1.0  0.97886  0.81507  0.05103  1.0000
  C   C1782     1.0  0.77855  0.88428  0.21199  1.0000
  H   H1423     1.0  0.97956  0.53815  0.16971  1.0000
  H   H1424     1.0  0.89451  0.99912  0.21478  1.0000
  C   C1783     1.0  0.67853  0.99939  0.19675  1.0000
  Fe  Fe117     1.0  0.76438  0.81720  0.35265  1.0000
  S   S240      1.0  0.75391  0.82827  0.37871  1.0000
  S   S241      1.0  0.72187  0.80229  0.33124  1.0000
  Fe  Fe118     1.0  0.83848  0.81657  0.36294  1.0000
  S   S242      1.0  0.83241  0.82684  0.38966  1.0000
  S   S243      1.0  0.88660  0.80921  0.35270  1.0000
  Fe  Fe119     1.0  0.76985  0.78426  0.38665  1.0000
  S   S244      1.0  0.73551  0.73863  0.40644  1.0000
  Fe  Fe120     1.0  0.81738  0.86978  0.37900  1.0000
  S   S245      1.0  0.84459  0.92671  0.39128  1.0000
  S   S246      1.0  0.77703  0.77096  0.36059  1.0000
  S   S247      1.0  0.82685  0.86187  0.35226  1.0000
  C   C1784     1.0  0.63928  0.63531  0.32689  1.0000
  S   S248      1.0  0.66365  0.52517  0.43496  1.0000
  S   S249      1.0  0.66977  0.56631  0.38847  1.0000
  H   H1425     1.0  0.55053  0.88679  0.38155  1.0000
  Fe  Fe121     1.0  0.55479  0.84053  0.30241  1.0000
  S   S250      1.0  0.56423  0.82960  0.27625  1.0000
  S   S251      1.0  0.60034  0.85891  0.32268  1.0000
  H   H1426     1.0  0.70969  0.85637  0.34961  1.0000
  Fe  Fe122     1.0  0.53746  0.86508  0.26841  1.0000
  S   S252      1.0  0.53108  0.87882  0.29468  1.0000
  C   C1785     1.0  0.60603  0.61119  0.40138  1.0000
  H   H1427     1.0  0.95169  0.59840  0.26112  1.0000
  H   H1428     1.0  0.84047  0.56257  0.41350  1.0000
  H   H1429     1.0  0.51618  0.85175  0.44553  1.0000
  C   C1786     1.0  0.92932  0.82162  0.36396  1.0000
  C   C1787     1.0  0.93097  0.82334  0.38138  1.0000
  C   C1788     1.0  0.96524  0.83190  0.38985  1.0000
  H   H1430     1.0  0.77095  0.53069  0.41961  1.0000
  C   C1789     1.0  0.50631  0.68814  0.42973  1.0000
  C   C1790     1.0  0.96224  0.82887  0.35513  1.0000
  H   H1431     1.0  0.90576  0.81765  0.38832  1.0000
  H   H1432     1.0  0.96617  0.83278  0.40331  1.0000
  H   H1433     1.0  0.58529  0.96544  0.27029  1.0000
  H   H1434     1.0  0.96121  0.82751  0.34167  1.0000
  C   C1791     1.0  0.87427  0.96801  0.37912  1.0000
  C   C1792     1.0  0.86903  0.96964  0.36189  1.0000
  C   C1793     1.0  0.52155  0.60816  0.29806  1.0000
  H   H1435     1.0  0.84733  0.94498  0.35570  1.0000
  C   C1794     1.0  0.71938  0.69095  0.40158  1.0000
  C   C1795     1.0  0.70837  0.66307  0.41442  1.0000
  C   C1796     1.0  0.69365  0.62470  0.41068  1.0000
  C   C1797     1.0  0.69008  0.61409  0.39405  1.0000
  C   C1798     1.0  0.70218  0.64212  0.38131  1.0000
  C   C1799     1.0  0.71633  0.68023  0.38502  1.0000
  H   H1436     1.0  0.71094  0.67102  0.42730  1.0000
  H   H1437     1.0  0.68459  0.60337  0.42062  1.0000
  H   H1438     1.0  0.70025  0.63431  0.36846  1.0000
  H   H1439     1.0  0.72429  0.70112  0.37500  1.0000
  C   C1800     1.0  0.68960  0.81987  0.32865  1.0000
  C   C1801     1.0  0.66354  0.80727  0.31532  1.0000
  C   C1802     1.0  0.63705  0.82013  0.31291  1.0000
  C   C1803     1.0  0.63552  0.84477  0.32419  1.0000
  C   C1804     1.0  0.66194  0.85779  0.33740  1.0000
  C   C1805     1.0  0.68920  0.84580  0.33951  1.0000
  H   H1440     1.0  0.66355  0.78710  0.30694  1.0000
  H   H1441     1.0  0.61717  0.81020  0.30259  1.0000
  H   H1442     1.0  0.66128  0.87725  0.34604  1.0000
  C   C1806     1.0  0.59911  0.97439  0.22833  1.0000
  H   H1443     1.0  0.55298  0.55723  0.44189  1.0000
  C   C1807     1.0  0.67973  0.97342  0.25503  1.0000
  H   H1444     1.0  0.78984  0.91854  0.25095  1.0000
  H   H1445     1.0  0.72849  0.76044  0.27060  1.0000
  H   H1446     1.0  0.78066  0.94719  0.38564  1.0000
  C   C1808     1.0  0.54535  0.84638  0.36361  1.0000
  C   C1809     1.0  0.50683  0.55535  0.28050  1.0000
  H   H1447     1.0  0.58930  0.75123  0.34541  1.0000
  H   H1448     1.0  0.74384  0.95044  0.24017  1.0000
  C   C1810     1.0  0.55843  0.86587  0.37843  1.0000
  C   C1811     1.0  0.59494  0.97879  0.25808  1.0000
  C   C1812     1.0  0.67068  0.71365  0.26965  1.0000
  H   H1449     1.0  0.53317  0.73696  0.29810  1.0000
  H   H1450     1.0  0.65413  0.79337  0.44385  1.0000
  H   H1451     1.0  0.51400  0.70194  0.38757  1.0000
  C   C1813     1.0  0.57864  0.69139  0.31450  1.0000
  C   C1814     1.0  0.77527  0.90209  0.24017  1.0000
  C   C1815     1.0  0.79677  0.90462  0.22615  1.0000
  C   C1816     1.0  0.71098  0.97673  0.24625  1.0000
  C   C1817     1.0  0.58659  0.95630  0.24411  1.0000
  S   S253      1.0  0.90179  0.56767  0.23306  1.0000
  H   H1452     1.0  0.64264  0.86767  0.45655  1.0000
  C   C1818     1.0  0.73530  0.87846  0.24025  1.0000
  S   S254      1.0  0.56208  0.90576  0.24564  1.0000
  P   P60       1.0  0.70757  0.87618  0.25824  1.0000
  C   C1819     1.0  0.66301  0.83166  0.25896  1.0000
  C   C1820     1.0  0.73411  0.87964  0.27716  1.0000
  C   C1821     1.0  0.75708  0.86253  0.27837  1.0000
  C   C1822     1.0  0.77684  0.86427  0.29314  1.0000
  C   C1823     1.0  0.77376  0.88298  0.30678  1.0000
  C   C1824     1.0  0.97407  0.58206  0.22281  1.0000
  C   C1825     1.0  0.73078  0.89794  0.29104  1.0000
  C   C1826     1.0  0.65822  0.80217  0.27009  1.0000
  C   C1827     1.0  0.62323  0.76841  0.27102  1.0000
  C   C1828     1.0  0.59302  0.76335  0.26058  1.0000
  C   C1829     1.0  0.59766  0.79231  0.24930  1.0000
  C   C1830     1.0  0.63233  0.82654  0.24862  1.0000
  C   C1831     1.0  0.69688  0.91439  0.25685  1.0000
  H   H1453     1.0  0.96544  0.75320  0.35341  1.0000
  C   C1832     1.0  0.96887  0.59759  0.25108  1.0000
  C   C1833     1.0  0.66569  0.91146  0.26574  1.0000
  H   H1454     1.0  0.54699  0.80585  0.34768  1.0000
  C   C1834     1.0  0.57258  0.59858  0.28806  1.0000
  C   C1835     1.0  0.56725  0.57291  0.43059  1.0000
  C   C1836     1.0  0.64508  0.63380  0.46001  1.0000
  H   H1455     1.0  0.92561  0.63407  0.35025  1.0000
  H   H1456     1.0  0.75923  0.84729  0.26803  1.0000
  H   H1457     1.0  0.79407  0.85057  0.29419  1.0000
  H   H1458     1.0  0.78835  0.88352  0.31836  1.0000
  C   C1837     1.0  0.55790  0.70130  0.30312  1.0000
  H   H1459     1.0  0.52274  0.60402  0.44438  1.0000
  H   H1460     1.0  0.68107  0.80526  0.27832  1.0000
  H   H1461     1.0  0.61936  0.74647  0.28006  1.0000
  H   H1462     1.0  0.56574  0.73731  0.26143  1.0000
  H   H1463     1.0  0.55382  0.62501  0.33929  1.0000
  H   H1464     1.0  0.63492  0.84915  0.24021  1.0000
  C   C1838     1.0  0.67106  0.71779  0.30437  1.0000
  H   H1465     1.0  0.64798  0.88655  0.27349  1.0000
  C   C1839     1.0  0.65508  0.75629  0.37421  1.0000
  C   C1840     1.0  0.64009  0.72421  0.38483  1.0000
  C   C1841     1.0  0.61990  0.72271  0.39913  1.0000
  C   C1842     1.0  0.61531  0.75350  0.40301  1.0000
  C   C1843     1.0  0.63093  0.78614  0.39257  1.0000
  C   C1844     1.0  0.65054  0.78708  0.37807  1.0000
  P   P61       1.0  0.62827  0.82771  0.39777  1.0000
  C   C1845     1.0  0.61274  0.82504  0.41906  1.0000
  C   C1846     1.0  0.67607  0.86710  0.39455  1.0000
  C   C1847     1.0  0.70699  0.86666  0.40274  1.0000
  C   C1848     1.0  0.74442  0.89586  0.39975  1.0000
  C   C1849     1.0  0.75141  0.92523  0.38827  1.0000
  C   C1850     1.0  0.72084  0.92572  0.37994  1.0000
  C   C1851     1.0  0.68325  0.89683  0.38307  1.0000
  C   C1852     1.0  0.63688  0.85065  0.43097  1.0000
  H   H1466     1.0  0.56904  0.68124  0.45938  1.0000
  H   H1467     1.0  0.52759  0.85235  0.35512  1.0000
  C   C1853     1.0  0.56262  0.79524  0.44002  1.0000
  C   C1854     1.0  0.57517  0.79794  0.42363  1.0000
  C   C1855     1.0  0.59449  0.83345  0.38464  1.0000
  C   C1856     1.0  0.58098  0.81376  0.36980  1.0000
  H   H1468     1.0  0.53162  0.98436  0.43431  1.0000
  H   H1469     1.0  0.67129  0.75789  0.36321  1.0000
  H   H1470     1.0  0.64488  0.70093  0.38216  1.0000
  H   H1471     1.0  0.60863  0.69810  0.40746  1.0000
  H   H1472     1.0  0.60057  0.75189  0.41438  1.0000
  H   H1473     1.0  0.66322  0.81209  0.36997  1.0000
  H   H1474     1.0  0.70227  0.84338  0.41122  1.0000
  H   H1475     1.0  0.75331  0.61187  0.21690  1.0000
  C   C1857     1.0  0.59356  0.61187  0.43091  1.0000
  H   H1476     1.0  0.66018  0.89748  0.37621  1.0000
  H   H1477     1.0  0.66553  0.87274  0.42777  1.0000
  Fe  Fe123     1.0  0.50425  0.77994  0.27802  1.0000
  Fe  Fe124     1.0  0.64748  0.51819  0.40794  1.0000
  H   H1478     1.0  0.55563  0.77869  0.41456  1.0000
  H   H1479     1.0  0.59017  0.79437  0.36593  1.0000
  C   C1858     1.0  0.95143  0.58294  0.23567  1.0000
  H   H1480     1.0  0.92139  0.76475  0.42060  1.0000
  C   C1859     1.0  0.95501  0.91208  0.36260  1.0000
  C   C1860     1.0  0.63811  0.68854  0.27888  1.0000
  H   H1481     1.0  0.71241  0.91034  0.29075  1.0000
  H   H1482     1.0  0.60251  0.60636  0.28766  1.0000
  C   C1861     1.0  0.58269  0.85925  0.38898  1.0000
  C   C1862     1.0  0.87716  0.88662  0.42548  1.0000
  C   C1863     1.0  0.87655  0.85821  0.43601  1.0000
  C   C1864     1.0  0.91007  0.85641  0.43869  1.0000
  C   C1865     1.0  0.94409  0.88271  0.43068  1.0000
  C   C1866     1.0  0.94501  0.91170  0.42030  1.0000
  C   C1867     1.0  0.91127  0.91337  0.41772  1.0000
  H   H1483     1.0  0.53398  0.77374  0.44363  1.0000
  C   C1868     1.0  0.64419  0.76329  0.44468  1.0000
  H   H1484     1.0  0.62493  0.58715  0.36411  1.0000
  H   H1485     1.0  0.63559  0.58356  0.44737  1.0000
  C   C1869     1.0  0.64593  0.61684  0.34049  1.0000
  H   H1486     1.0  0.76827  0.89519  0.40595  1.0000
  H   H1487     1.0  0.85117  0.88790  0.42317  1.0000
  H   H1488     1.0  0.51749  0.67879  0.44011  1.0000
  H   H1489     1.0  0.55009  0.68877  0.29097  1.0000
  H   H1490     1.0  0.59114  0.74921  0.45686  1.0000
  H   H1491     1.0  0.91129  0.93529  0.40961  1.0000
  C   C1870     1.0  0.51618  0.98502  0.44508  1.0000
  C   C1871     1.0  0.63135  0.98395  0.45195  1.0000
  H   H1492     1.0  0.92827  0.89662  0.35589  1.0000
  C   C1872     1.0  0.65498  0.71074  0.44033  1.0000
  C   C1873     1.0  0.58695  0.82019  0.45188  1.0000
  C   C1874     1.0  0.50127  0.85631  0.41997  1.0000
  H   H1493     1.0  0.53817  0.67839  0.41115  1.0000
  H   H1494     1.0  0.91799  0.71036  0.21973  1.0000
  H   H1495     1.0  0.72844  0.76456  0.30142  1.0000
  C   C1875     1.0  0.55834  0.74569  0.32257  1.0000
  H   H1496     1.0  0.63260  0.93803  0.27146  1.0000
  C   C1876     1.0  0.62398  0.84808  0.44733  1.0000
  C   C1877     1.0  0.70346  0.74295  0.29510  1.0000
  H   H1497     1.0  0.59303  0.87501  0.40032  1.0000
  C   C1878     1.0  0.54571  0.56656  0.27970  1.0000
  H   H1498     1.0  0.67139  0.72063  0.31778  1.0000
  C   C1879     1.0  0.66719  0.74940  0.43877  1.0000
  C   C1880     1.0  0.70338  0.74078  0.27776  1.0000
  H   H1499     1.0  0.62233  0.62571  0.39025  1.0000
  C   C1881     1.0  0.54803  0.72850  0.30714  1.0000
  H   H1500     1.0  0.65950  0.64601  0.31665  1.0000
  H   H1501     1.0  0.87289  0.99399  0.24406  1.0000
  C   C1882     1.0  0.57963  0.57251  0.40118  1.0000
  H   H1502     1.0  0.90737  0.73913  0.36885  1.0000
  C   C1883     1.0  0.65715  0.94082  0.26479  1.0000
  H   H1503     1.0  0.72638  0.94821  0.37084  1.0000
  H   H1504     1.0  0.74745  0.91320  0.31653  1.0000
  P   P62       1.0  0.59575  0.66012  0.30847  1.0000
  H   H1505     1.0  0.98999  0.92018  0.34112  1.0000
  C   C1884     1.0  0.65357  0.60550  0.45589  1.0000
  H   H1506     1.0  0.55153  0.76753  0.32539  1.0000
  H   H1507     1.0  0.60795  0.70426  0.33834  1.0000
  C   C1885     1.0  0.82365  0.57496  0.40870  1.0000
  C   C1886     1.0  0.78446  0.55699  0.41222  1.0000
  C   C1887     1.0  0.76273  0.57315  0.40634  1.0000
  C   C1888     1.0  0.77996  0.60685  0.39672  1.0000
  C   C1889     1.0  0.81890  0.62415  0.39245  1.0000
  C   C1890     1.0  0.84098  0.60873  0.39905  1.0000
  P   P63       1.0  0.84063  0.66806  0.38021  1.0000
  C   C1891     1.0  0.80914  0.66768  0.36383  1.0000
  C   C1892     1.0  0.85085  0.70480  0.39466  1.0000
  C   C1893     1.0  0.82330  0.71530  0.39796  1.0000
  C   C1894     1.0  0.83126  0.74362  0.40927  1.0000
  C   C1895     1.0  0.86657  0.76148  0.41737  1.0000
  C   C1896     1.0  0.89391  0.75074  0.41438  1.0000
  C   C1897     1.0  0.88595  0.72218  0.40319  1.0000
  C   C1898     1.0  0.81544  0.70204  0.35637  1.0000
  C   C1899     1.0  0.79276  0.70219  0.34300  1.0000
  C   C1900     1.0  0.76339  0.66807  0.33706  1.0000
  C   C1901     1.0  0.75721  0.63370  0.34429  1.0000
  C   C1902     1.0  0.78029  0.63344  0.35748  1.0000
  C   C1903     1.0  0.88382  0.67812  0.36934  1.0000
  C   C1904     1.0  0.88879  0.64866  0.36355  1.0000
  C   C1905     1.0  0.92189  0.65690  0.35469  1.0000
  C   C1906     1.0  0.94977  0.69453  0.35122  1.0000
  C   C1907     1.0  0.94438  0.72397  0.35644  1.0000
  C   C1908     1.0  0.91145  0.71584  0.36534  1.0000
  C   C1909     1.0  0.55629  0.82007  0.35942  1.0000
  H   H1508     1.0  0.73242  0.55950  0.40918  1.0000
  C   C1910     1.0  0.56000  0.55349  0.41575  1.0000
  H   H1509     1.0  0.76271  0.61919  0.39252  1.0000
  H   H1510     1.0  0.87148  0.62267  0.39680  1.0000
  H   H1511     1.0  0.79571  0.70172  0.39182  1.0000
  H   H1512     1.0  0.81008  0.75188  0.41170  1.0000
  C   C1911     1.0  0.63836  0.68991  0.29637  1.0000
  C   C1912     1.0  0.58997  0.70966  0.32978  1.0000
  H   H1513     1.0  0.90731  0.71396  0.40109  1.0000
  H   H1514     1.0  0.83821  0.72878  0.36074  1.0000
  H   H1515     1.0  0.79831  0.72893  0.33720  1.0000
  H   H1516     1.0  0.74578  0.66834  0.32676  1.0000
  H   H1517     1.0  0.73476  0.60714  0.33962  1.0000
  H   H1518     1.0  0.77564  0.60648  0.36257  1.0000
  H   H1519     1.0  0.86688  0.61938  0.36562  1.0000
  H   H1520     1.0  0.63528  0.66005  0.41613  1.0000
  H   H1521     1.0  0.87262  0.78366  0.42593  1.0000
  H   H1522     1.0  0.51121  0.62302  0.30545  1.0000
  C   C1913     1.0  0.56081  0.62015  0.29700  1.0000
  C   C1914     1.0  0.75070  0.89972  0.30574  1.0000
  H   H1523     1.0  0.61264  0.66879  0.27229  1.0000
  C   C1915     1.0  0.57998  0.62349  0.33966  1.0000
  C   C1916     1.0  0.57950  0.73643  0.33385  1.0000
  H   H1524     1.0  0.67035  0.71246  0.25616  1.0000
  H   H1525     1.0  0.57378  0.78869  0.24155  1.0000
  C   C1917     1.0  0.51809  0.68818  0.41344  1.0000
  C   C1918     1.0  0.50420  0.70116  0.40017  1.0000
  C   C1919     1.0  0.71960  0.94734  0.24711  1.0000
  P   P64       1.0  0.60505  0.63584  0.45052  1.0000
  H   H1526     1.0  0.69487  0.76855  0.43318  1.0000
  C   C1920     1.0  0.50437  0.95620  0.45752  1.0000
  C   C1921     1.0  0.61324  0.63072  0.41619  1.0000
  C   C1922     1.0  0.61914  0.68538  0.44742  1.0000
  H   H1527     1.0  0.55493  0.55015  0.27274  1.0000
  C   C1923     1.0  0.58681  0.60516  0.35327  1.0000
  C   C1924     1.0  0.95458  0.91804  0.37963  1.0000
  C   C1925     1.0  0.60638  0.63906  0.32646  1.0000
  H   H1528     1.0  0.57528  0.55696  0.38991  1.0000
  H   H1529     1.0  0.90963  0.83449  0.44691  1.0000
  C   C1926     1.0  0.61978  0.60181  0.35368  1.0000
  H   H1530     1.0  0.92720  0.90733  0.38570  1.0000
  H   H1531     1.0  0.67114  0.61368  0.34077  1.0000
  H   H1532     1.0  0.51759  0.88703  0.41955  1.0000
  H   H1533     1.0  0.63357  0.96959  0.44127  1.0000
  H   H1534     1.0  0.67402  0.70090  0.43627  1.0000
  H   H1535     1.0  0.53996  0.52338  0.41569  1.0000
  H   H1536     1.0  0.98916  0.52476  0.24112  1.0000
  H   H1537     1.0  0.85003  0.83753  0.44201  1.0000
  H   H1538     1.0  0.56622  0.59296  0.36336  1.0000
  C   C1927     1.0  0.68574  0.60539  0.46275  1.0000
  C   C1928     1.0  0.71718  0.85843  0.22588  1.0000
  H   H1539     1.0  0.96519  0.97966  0.43651  1.0000
  C   C1929     1.0  0.98977  0.92531  0.35426  1.0000
  C   C1930     1.0  0.49480  0.57597  0.28976  1.0000
  H   H1540     1.0  0.57695  0.81781  0.46460  1.0000
  H   H1541     1.0  0.97520  0.70091  0.34420  1.0000
  C   C1931     1.0  0.50027  0.83648  0.43470  1.0000
  C   C1932     1.0  0.52686  0.60130  0.45762  1.0000
  H   H1542     1.0  0.96954  0.88044  0.43271  1.0000
  C   C1933     1.0  0.60867  0.73841  0.45191  1.0000
  C   C1934     1.0  0.59612  0.69962  0.45327  1.0000
  H   H1543     1.0  0.69255  0.58390  0.45935  1.0000
  H   H1544     1.0  0.98590  0.51676  0.44286  1.0000
  S   S255      1.0  0.49660  0.78848  0.30484  1.0000
  H   H1545     1.0  0.68645  0.84051  0.22540  1.0000
  H   H1546     1.0  0.82763  0.92229  0.22626  1.0000
  H   H1547     1.0  0.95837  0.65610  0.22555  1.0000
  C   C1935     1.0  0.98592  0.67201  0.21938  1.0000
  C   C1936     1.0  0.56369  0.61348  0.46415  1.0000
  S   S256      1.0  0.51427  0.91881  0.45522  1.0000
  C   C1937     1.0  0.98910  0.93758  0.38847  1.0000
  H   H1548     1.0  0.67289  0.99605  0.25418  1.0000
  P   P65       1.0  0.98894  0.94683  0.41037  1.0000
  H   H1549     1.0  0.59238  0.95732  0.21743  1.0000
  H   H1550     1.0  0.90675  0.99938  0.40030  1.0000
  Fe  Fe125     1.0  0.70660  0.55487  0.65091  1.0000
  S   S257      1.0  0.72564  0.56442  0.67771  1.0000
  S   S258      1.0  0.73189  0.59487  0.62819  1.0000
  C   C1938     1.0  0.76436  0.73410  0.67432  1.0000
  Fe  Fe126     1.0  0.66299  0.54246  0.68366  1.0000
  C   C1939     1.0  0.65397  0.61657  0.63189  1.0000
  H   H1551     1.0  0.75037  0.54291  0.58616  1.0000
  S   S259      1.0  0.64472  0.53569  0.65671  1.0000
  Fe  Fe127     1.0  0.93391  0.76103  0.59421  1.0000
  S   S260      1.0  0.91445  0.75262  0.56747  1.0000
  S   S261      1.0  0.90705  0.71983  0.61654  1.0000
  H   H1552     1.0  0.83523  0.52945  0.68625  1.0000
  C   C1940     1.0  0.66864  0.66129  0.47139  1.0000
  Fe  Fe128     1.0  0.92932  0.81408  0.56720  1.0000
  S   S262      1.0  0.89364  0.83759  0.55470  1.0000
  H   H1553     1.0  0.53944  0.59111  0.50524  1.0000
  H   H1554     1.0  0.97615  0.54930  0.70382  1.0000
  S   S263      1.0  0.94424  0.82067  0.59429  1.0000
  H   H1555     1.0  0.66244  0.68317  0.47490  1.0000
  Fe  Fe129     1.0  0.53025  0.86489  0.51065  1.0000
  S   S264      1.0  0.54486  0.85943  0.48434  1.0000
  S   S265      1.0  0.57258  0.88886  0.53232  1.0000
  H   H1556     1.0  0.55046  0.94473  0.53989  1.0000
  C   C1941     1.0  0.68101  0.75726  0.68141  1.0000
  H   H1557     1.0  0.74439  0.67692  0.68369  1.0000
  C   C1942     1.0  0.60515  0.98104  0.47932  1.0000
  S   S266      1.0  0.84012  0.94289  0.58959  1.0000
  S   S267      1.0  0.98975  0.83519  0.55849  1.0000
  C   C1943     1.0  0.85444  0.51864  0.68947  1.0000
  H   H1558     1.0  0.70453  0.84401  0.61056  1.0000
  C   C1944     1.0  0.62233  0.92269  0.53221  1.0000
  C   C1945     1.0  0.64126  0.94423  0.51790  1.0000
  C   C1946     1.0  0.68041  0.97182  0.51865  1.0000
  C   C1947     1.0  0.70139  0.97756  0.53355  1.0000
  C   C1948     1.0  0.68252  0.95582  0.54780  1.0000
  C   C1949     1.0  0.64317  0.92884  0.54715  1.0000
  H   H1559     1.0  0.62561  0.93988  0.50635  1.0000
  H   H1560     1.0  0.96606  0.76428  0.50605  1.0000
  H   H1561     1.0  0.62883  0.91235  0.55828  1.0000
  C   C1950     1.0  0.88129  0.86880  0.56447  1.0000
  C   C1951     1.0  0.86539  0.88716  0.55480  1.0000
  C   C1952     1.0  0.85404  0.91109  0.56217  1.0000
  C   C1953     1.0  0.85768  0.91631  0.57940  1.0000
  C   C1954     1.0  0.87356  0.89795  0.58907  1.0000
  C   C1955     1.0  0.88577  0.87478  0.58165  1.0000
  H   H1562     1.0  0.86176  0.88279  0.54153  1.0000
  H   H1563     1.0  0.84162  0.92476  0.55458  1.0000
  H   H1564     1.0  0.87658  0.90185  0.60238  1.0000
  H   H1565     1.0  0.89834  0.86134  0.58924  1.0000
  H   H1566     1.0  0.88966  0.86058  0.62312  1.0000
  C   C1956     1.0  0.69912  0.78918  0.61560  1.0000
  C   C1957     1.0  0.78073  0.62942  0.62523  1.0000
  C   C1958     1.0  0.79164  0.65221  0.61053  1.0000
  C   C1959     1.0  0.83017  0.67996  0.60762  1.0000
  C   C1960     1.0  0.85816  0.68535  0.61948  1.0000
  C   C1961     1.0  0.84718  0.66271  0.63424  1.0000
  C   C1962     1.0  0.80871  0.63477  0.63710  1.0000
  H   H1567     1.0  0.77025  0.64815  0.60124  1.0000
  H   H1568     1.0  0.83829  0.69708  0.59620  1.0000
  H   H1569     1.0  0.86865  0.66666  0.64349  1.0000
  H   H1570     1.0  0.80076  0.61734  0.64843  1.0000
  C   C1963     1.0  0.69476  0.51062  0.48204  1.0000
  C   C1964     1.0  0.57171  0.61022  0.69681  1.0000
  C   C1965     1.0  0.59424  0.59298  0.69415  1.0000
  C   C1966     1.0  0.67627  0.69586  0.70026  1.0000
  C   C1967     1.0  0.70057  0.66086  0.47831  1.0000
  H   H1571     1.0  0.55495  0.61253  0.68663  1.0000
  H   H1572     1.0  0.59485  0.58252  0.68202  1.0000
  H   H1573     1.0  0.94207  0.71646  0.48407  1.0000
  C   C1968     1.0  0.75911  0.71433  0.59404  1.0000
  C   C1969     1.0  0.78465  0.72647  0.58062  1.0000
  C   C1970     1.0  0.82217  0.75593  0.58257  1.0000
  C   C1971     1.0  0.83436  0.77300  0.59797  1.0000
  C   C1972     1.0  0.80911  0.76068  0.61157  1.0000
  C   C1973     1.0  0.77115  0.73163  0.60942  1.0000
  P   P66       1.0  0.82367  0.78521  0.63097  1.0000
  C   C1974     1.0  0.79881  0.75140  0.64792  1.0000
  C   C1975     1.0  0.87482  0.80488  0.63351  1.0000
  C   C1976     1.0  0.90015  0.84281  0.62867  1.0000
  C   C1977     1.0  0.95441  0.83525  0.63658  1.0000
  C   C1978     1.0  0.92953  0.79741  0.64116  1.0000
  C   C1979     1.0  0.88992  0.78224  0.63965  1.0000
  C   C1980     1.0  0.79396  0.71476  0.64752  1.0000
  C   C1981     1.0  0.81381  0.82405  0.63012  1.0000
  C   C1982     1.0  0.82698  0.85037  0.64290  1.0000
  C   C1983     1.0  0.82250  0.88235  0.64163  1.0000
  C   C1984     1.0  0.80536  0.88857  0.62749  1.0000
  C   C1985     1.0  0.79248  0.86273  0.61469  1.0000
  C   C1986     1.0  0.79678  0.83069  0.61593  1.0000
  H   H1574     1.0  0.73003  0.69145  0.59254  1.0000
  H   H1575     1.0  0.77547  0.71321  0.56867  1.0000
  H   H1576     1.0  0.84191  0.76576  0.57211  1.0000
  H   H1577     1.0  0.86335  0.79603  0.59915  1.0000
  H   H1578     1.0  0.75087  0.72234  0.61960  1.0000
  C   C1987     1.0  0.49956  0.58191  0.48534  1.0000
  H   H1579     1.0  0.94089  0.77923  0.64525  1.0000
  H   H1580     1.0  0.87153  0.75255  0.64276  1.0000
  H   H1581     1.0  0.58837  0.68878  0.68286  1.0000
  H   H1582     1.0  0.80515  0.70671  0.63721  1.0000
  H   H1583     1.0  0.84193  0.84682  0.65357  1.0000
  C   C1988     1.0  0.59178  0.69961  0.65602  1.0000
  H   H1584     1.0  0.80336  0.91416  0.62607  1.0000
  H   H1585     1.0  0.78088  0.86860  0.60340  1.0000
  H   H1586     1.0  0.78814  0.81221  0.60545  1.0000
  C   C1989     1.0  0.76786  0.54149  0.59626  1.0000
  H   H1587     1.0  0.63925  0.78359  0.65409  1.0000
  H   H1588     1.0  0.58494  0.63757  0.64162  1.0000
  C   C1990     1.0  0.70923  0.63302  0.47392  1.0000
  H   H1589     1.0  0.83346  0.90301  0.65132  1.0000
  H   H1590     1.0  0.66663  0.84038  0.63532  1.0000
  H   H1591     1.0  0.65728  0.59400  0.62683  1.0000
  P   P67       1.0  0.64162  0.71302  0.65409  1.0000
  H   H1592     1.0  0.82987  0.53922  0.63337  1.0000
  S   S268      1.0  0.54206  0.64652  0.71491  1.0000
  C   C1991     1.0  0.75700  0.50713  0.60506  1.0000
  C   C1992     1.0  0.57335  0.68935  0.67160  1.0000
  C   C1993     1.0  0.51447  0.67979  0.65862  1.0000
  H   H1593     1.0  0.69817  0.95986  0.55935  1.0000
  C   C1994     1.0  0.68448  0.75726  0.62637  1.0000
  H   H1594     1.0  0.98511  0.84655  0.63716  1.0000
  C   C1995     1.0  0.61628  0.58975  0.70714  1.0000
  Fe  Fe130     1.0  0.83340  0.99144  0.57805  1.0000
  H   H1595     1.0  0.59253  0.58652  0.62994  1.0000
  C   C1996     1.0  0.64509  0.51106  0.60489  1.0000
  C   C1997     1.0  0.53260  0.68991  0.64306  1.0000
  C   C1998     1.0  0.77964  0.50662  0.61847  1.0000
  C   C1999     1.0  0.93971  0.85798  0.63037  1.0000
  C   C2000     1.0  0.66179  0.69067  0.68402  1.0000
  H   H1596     1.0  0.98736  0.70735  0.46720  1.0000
  C   C2001     1.0  0.69272  0.73158  0.70717  1.0000
  C   C2002     1.0  0.91155  0.51495  0.68398  1.0000
  H   H1597     1.0  0.71080  0.98806  0.47770  1.0000
  H   H1598     1.0  0.65341  0.52978  0.48022  1.0000
  C   C2003     1.0  0.88761  0.53001  0.68013  1.0000
  C   C2004     1.0  0.78353  0.76075  0.66141  1.0000
  S   S269      1.0  0.64683  0.56988  0.70451  1.0000
  H   H1599     1.0  0.73414  0.63283  0.47918  1.0000
  C   C2005     1.0  0.65662  0.78514  0.64358  1.0000
  H   H1600     1.0  0.52089  0.67165  0.68493  1.0000
  H   H1601     1.0  0.71434  0.65241  0.63582  1.0000
  C   C2006     1.0  0.61345  0.64163  0.64022  1.0000
  H   H1602     1.0  0.75302  0.74159  0.68476  1.0000
  C   C2007     1.0  0.53485  0.67953  0.67285  1.0000
  C   C2008     1.0  0.54791  0.96356  0.53068  1.0000
  C   C2009     1.0  0.98604  0.76095  0.49833  1.0000
  Fe  Fe131     1.0  0.97679  0.77438  0.56127  1.0000
  S   S270      1.0  0.78042  0.99686  0.58100  1.0000
  H   H1603     1.0  0.59593  0.61869  0.48680  1.0000
  C   C2010     1.0  0.69533  0.76232  0.69771  1.0000
  H   H1604     1.0  0.64504  0.53242  0.61257  1.0000
  C   C2011     1.0  0.66323  0.75503  0.64054  1.0000
  H   H1605     1.0  0.89429  0.54991  0.66966  1.0000
  C   C2012     1.0  0.56801  0.60959  0.48140  1.0000
  C   C2013     1.0  0.61757  0.61248  0.63360  1.0000
  H   H1606     1.0  0.70796  0.78997  0.70313  1.0000
  C   C2014     1.0  0.81283  0.53974  0.62286  1.0000
  C   C2015     1.0  0.66378  0.72126  0.67447  1.0000
  H   H1607     1.0  0.68297  0.78137  0.67446  1.0000
  H   H1608     1.0  0.68919  0.73430  0.62325  1.0000
  H   H1609     1.0  0.64838  0.66251  0.67909  1.0000
  C   C2016     1.0  0.64588  0.67511  0.64517  1.0000
  H   H1610     1.0  0.70746  0.70374  0.64785  1.0000
  C   C2017     1.0  0.77444  0.68809  0.66036  1.0000
  H   H1611     1.0  0.71503  0.79053  0.60457  1.0000
  H   H1612     1.0  0.58479  0.70758  0.62961  1.0000
  C   C2018     1.0  0.51258  0.96162  0.52804  1.0000
  C   C2019     1.0  0.53603  0.59396  0.49193  1.0000
  H   H1613     1.0  0.78606  0.78833  0.66207  1.0000
  H   H1614     1.0  0.54496  0.99411  0.69893  1.0000
  H   H1615     1.0  0.80957  0.60094  0.59378  1.0000
  C   C2020     1.0  0.68221  0.67853  0.64377  1.0000
  C   C2021     1.0  0.67177  0.81723  0.63290  1.0000
  C   C2022     1.0  0.57112  0.69981  0.64175  1.0000
  C   C2023     1.0  0.69304  0.81926  0.61892  1.0000
  C   C2024     1.0  0.80133  0.57444  0.60054  1.0000
  H   H1616     1.0  0.84935  0.59940  0.61729  1.0000
  C   C2025     1.0  0.75964  0.69773  0.67377  1.0000
  H   H1617     1.0  0.77060  0.65978  0.65985  1.0000
  H   H1618     1.0  0.71874  0.68226  0.48701  1.0000
  Fe  Fe132     1.0  0.50123  0.87680  0.47697  1.0000
  C   C2026     1.0  0.50902  0.98505  0.51582  1.0000
  H   H1619     1.0  0.95907  0.88689  0.62616  1.0000
  C   C2027     1.0  0.68623  0.64956  0.63699  1.0000
  C   C2028     1.0  0.82379  0.57360  0.61383  1.0000
  C   C2029     1.0  0.57073  0.62451  0.71246  1.0000
  C   C2030     1.0  0.97260  0.73382  0.48606  1.0000
  C   C2031     1.0  0.67529  0.50343  0.60625  1.0000
  S   S271      1.0  0.99210  0.74709  0.54030  1.0000
  Fe  Fe133     1.0  0.71157  0.50309  0.67829  1.0000
  H   H1620     1.0  0.60663  0.98933  0.52316  1.0000
  H   H1621     1.0  0.51681  0.69013  0.63201  1.0000
  H   H1622     1.0  0.69801  0.51900  0.61506  1.0000
  H   H1623     1.0  0.69452  0.98871  0.50762  1.0000
  C   C2032     1.0  0.57969  0.98881  0.52110  1.0000
  H   H1624     1.0  0.58707  0.96391  0.48961  1.0000
  H   H1625     1.0  0.93653  0.52316  0.67629  1.0000
  H   H1626     1.0  0.55216  0.97568  0.63391  1.0000
  H   H1627     1.0  0.71907  0.53822  0.47909  1.0000
  C   C2033     1.0  0.49493  0.58529  0.46818  1.0000
  H   H1628     1.0  0.52613  0.50781  0.48438  1.0000
  H   H1629     1.0  0.67411  0.67194  0.70758  1.0000
  H   H1630     1.0  0.96991  0.86279  0.50293  1.0000
  C   C2034     1.0  0.65794  0.50590  0.48258  1.0000
  S   S272      1.0  0.49615  0.74920  0.47542  1.0000
  Fe  Fe134     1.0  0.49480  0.79986  0.48599  1.0000
  C   C2035     1.0  0.60945  0.96284  0.46574  1.0000
  H   H1631     1.0  0.59456  0.93221  0.46567  1.0000
  H   H1632     1.0  0.76895  0.49958  0.57133  1.0000
  C   C2036     1.0  0.54525  0.94847  0.93345  1.0000
  Fe  Fe135     1.0  0.79583  0.91453  0.86111  1.0000
  S   S273      1.0  0.81093  0.93388  0.83460  1.0000
  S   S274      1.0  0.81978  0.87971  0.87379  1.0000
  Fe  Fe136     1.0  0.75045  0.92243  0.83181  1.0000
  S   S275      1.0  0.71939  0.89930  0.80713  1.0000
  H   H1633     1.0  0.50845  0.57175  0.85015  1.0000
  S   S276      1.0  0.73382  0.89926  0.85814  1.0000
  C   C2037     1.0  0.82691  0.93558  0.79374  1.0000
  H   H1634     1.0  0.59603  0.58418  0.95665  1.0000
  P   P68       1.0  0.57571  0.93293  0.94352  1.0000
  Fe  Fe137     1.0  0.86913  0.53934  0.91460  1.0000
  S   S277      1.0  0.88105  0.58129  0.89255  1.0000
  S   S278      1.0  0.86166  0.55042  0.94111  1.0000
  Fe  Fe138     1.0  0.96603  0.82338  0.83944  1.0000
  H   H1635     1.0  0.97408  0.59435  0.93451  1.0000
  S   S279      1.0  0.90652  0.81296  0.83281  1.0000
  C   C2038     1.0  0.50529  0.92695  0.93518  1.0000
  C   C2039     1.0  0.56262  0.95312  0.73879  1.0000
  Fe  Fe139     1.0  0.52619  0.67192  0.73669  1.0000
  Fe  Fe140     1.0  0.54242  0.71357  0.76962  1.0000
  C   C2040     1.0  0.55371  0.91524  0.73970  1.0000
  S   S280      1.0  0.57873  0.73454  0.79323  1.0000
  C   C2041     1.0  0.51669  0.81741  0.80200  1.0000
  C   C2042     1.0  0.61443  0.88021  0.81607  1.0000
  H   H1636     1.0  0.54900  0.52889  0.91062  1.0000
  S   S281      1.0  0.51603  0.65164  0.76365  1.0000
  C   C2043     1.0  0.51941  0.88731  0.73297  1.0000
  C   C2044     1.0  0.49589  0.52143  0.74952  1.0000
  H   H1637     1.0  0.73771  0.55207  0.91741  1.0000
  C   C2045     1.0  0.91695  0.62967  0.88967  1.0000
  C   C2046     1.0  0.94646  0.64830  0.90118  1.0000
  H   H1638     1.0  0.96411  0.58777  0.90400  1.0000
  S   S282      1.0  0.71856  0.97137  0.88433  1.0000
  C   C2047     1.0  0.94396  0.68807  0.87224  1.0000
  C   C2048     1.0  0.91588  0.64984  0.87522  1.0000
  H   H1639     1.0  0.94733  0.63353  0.91251  1.0000
  S   S283      1.0  0.76615  0.98197  0.83835  1.0000
  H   H1640     1.0  0.94273  0.70311  0.86107  1.0000
  H   H1641     1.0  0.89317  0.63583  0.86623  1.0000
  C   C2049     1.0  0.84531  0.86322  0.86199  1.0000
  C   C2050     1.0  0.83895  0.85709  0.84488  1.0000
  C   C2051     1.0  0.85803  0.84190  0.83609  1.0000
  C   C2052     1.0  0.88461  0.83386  0.84416  1.0000
  C   C2053     1.0  0.89160  0.84073  0.86118  1.0000
  C   C2054     1.0  0.87147  0.85461  0.87010  1.0000
  H   H1642     1.0  0.81853  0.86305  0.83851  1.0000
  H   H1643     1.0  0.85208  0.83626  0.82299  1.0000
  H   H1644     1.0  0.91188  0.83461  0.86755  1.0000
  H   H1645     1.0  0.87645  0.85905  0.88333  1.0000
  C   C2055     1.0  0.61851  0.78023  0.79671  1.0000
  C   C2056     1.0  0.63382  0.78909  0.81290  1.0000
  C   C2057     1.0  0.66518  0.82505  0.81629  1.0000
  C   C2058     1.0  0.68177  0.85256  0.80345  1.0000
  C   C2059     1.0  0.66678  0.84351  0.78723  1.0000
  C   C2060     1.0  0.63512  0.80772  0.78388  1.0000
  H   H1646     1.0  0.62125  0.76804  0.82293  1.0000
  H   H1647     1.0  0.67633  0.83154  0.82883  1.0000
  H   H1648     1.0  0.67969  0.86443  0.77721  1.0000
  H   H1649     1.0  0.62378  0.80131  0.77136  1.0000
  C   C2061     1.0  0.49411  0.89726  0.72520  1.0000
  H   H1650     1.0  0.79841  0.92958  0.79004  1.0000
  H   H1651     1.0  0.78442  0.62756  0.95042  1.0000
  H   H1652     1.0  0.87839  0.89079  0.80050  1.0000
  H   H1653     1.0  0.62145  0.95154  0.91328  1.0000
  H   H1654     1.0  0.98097  0.97067  0.77767  1.0000
  C   C2062     1.0  0.49771  0.96934  0.91549  1.0000
  C   C2063     1.0  0.61483  0.60355  0.72285  1.0000
  H   H1655     1.0  0.50843  0.55384  0.72630  1.0000
  H   H1656     1.0  0.97006  0.57206  0.84558  1.0000
  H   H1657     1.0  0.49230  0.90188  0.94330  1.0000
  H   H1658     1.0  0.94840  0.84245  0.79942  1.0000
  C   C2064     1.0  0.52634  0.78864  0.80282  1.0000
  C   C2065     1.0  0.56110  0.97988  0.92225  1.0000
  C   C2066     1.0  0.91355  0.52824  0.87345  1.0000
  H   H1659     1.0  0.91972  0.55680  0.87029  1.0000
  H   H1660     1.0  0.95292  0.93489  0.88101  1.0000
  S   S284      1.0  0.55544  0.73421  0.74271  1.0000
  H   H1661     1.0  0.59186  0.63138  0.73763  1.0000
  S   S285      1.0  0.98365  0.77967  0.83496  1.0000
  H   H1662     1.0  0.63127  0.91255  0.78323  1.0000
  C   C2067     1.0  0.49341  0.54696  0.73813  1.0000
  H   H1663     1.0  0.55490  0.79462  0.79956  1.0000
  C   C2068     1.0  0.49981  0.58753  0.79935  1.0000
  C   C2069     1.0  0.57136  0.55943  0.93324  1.0000
  H   H1664     1.0  0.51210  0.85777  0.73400  1.0000
  Fe  Fe141     1.0  0.82574  0.99135  0.84330  1.0000
  H   H1665     1.0  0.84552  0.99774  0.91718  1.0000
  C   C2070     1.0  0.61577  0.89033  0.77446  1.0000
  C   C2071     1.0  0.60591  0.92103  0.91492  1.0000
  H   H1666     1.0  0.50666  0.72958  0.80789  1.0000
  H   H1667     1.0  0.50062  0.53620  0.94973  1.0000
  H   H1668     1.0  0.51529  0.57446  0.79448  1.0000
  P   P69       1.0  0.55225  0.86468  0.79537  1.0000
  C   C2072     1.0  0.57335  0.90393  0.82509  1.0000
  H   H1669     1.0  0.59177  0.99624  0.92024  1.0000
  H   H1670     1.0  0.54745  0.81149  0.91901  1.0000
  C   C2073     1.0  0.63770  0.89547  0.83005  1.0000
  H   H1671     1.0  0.63160  0.60121  0.73303  1.0000
  P   P70       1.0  0.94700  0.96010  0.81105  1.0000
  Fe  Fe142     1.0  0.88831  0.51401  0.94794  1.0000
  H   H1672     1.0  0.74899  0.65907  0.96000  1.0000
  C   C2074     1.0  0.58106  0.90376  0.92855  1.0000
  C   C2075     1.0  0.93719  0.78026  0.90114  1.0000
  H   H1673     1.0  0.57305  0.90739  0.74586  1.0000
  C   C2076     1.0  0.92800  0.72282  0.91522  1.0000
  C   C2077     1.0  0.89346  0.70194  0.90673  1.0000
  C   C2078     1.0  0.88034  0.72013  0.89539  1.0000
  C   C2079     1.0  0.90260  0.75955  0.89268  1.0000
  P   P71       1.0  0.83584  0.69387  0.88410  1.0000
  C   C2080     1.0  0.80459  0.64919  0.89494  1.0000
  C   C2081     1.0  0.81438  0.72386  0.88281  1.0000
  C   C2082     1.0  0.80248  0.73214  0.86741  1.0000
  C   C2083     1.0  0.78890  0.75784  0.86642  1.0000
  C   C2084     1.0  0.78674  0.77519  0.88076  1.0000
  C   C2085     1.0  0.79829  0.76698  0.89613  1.0000
  C   C2086     1.0  0.81211  0.74146  0.89717  1.0000
  C   C2087     1.0  0.81392  0.62013  0.89545  1.0000
  C   C2088     1.0  0.79005  0.58542  0.90361  1.0000
  C   C2089     1.0  0.75628  0.57913  0.91117  1.0000
  C   C2090     1.0  0.74652  0.60770  0.91066  1.0000
  C   C2091     1.0  0.77052  0.64261  0.90258  1.0000
  C   C2092     1.0  0.84626  0.68591  0.86324  1.0000
  C   C2093     1.0  0.87438  0.71615  0.85358  1.0000
  C   C2094     1.0  0.88056  0.71096  0.83702  1.0000
  C   C2095     1.0  0.85934  0.67548  0.83003  1.0000
  C   C2096     1.0  0.83125  0.64524  0.83950  1.0000
  C   C2097     1.0  0.82431  0.65051  0.85595  1.0000
  H   H1674     1.0  0.63127  0.91282  0.89314  1.0000
  H   H1675     1.0  0.93619  0.88404  0.81669  1.0000
  C   C2098     1.0  0.60256  0.53540  0.95227  1.0000
  H   H1676     1.0  0.87769  0.67172  0.90904  1.0000
  H   H1677     1.0  0.89337  0.77443  0.88399  1.0000
  H   H1678     1.0  0.80451  0.71968  0.85605  1.0000
  H   H1679     1.0  0.78108  0.76525  0.85444  1.0000
  H   H1680     1.0  0.77708  0.79582  0.87986  1.0000
  H   H1681     1.0  0.79740  0.78122  0.90713  1.0000
  H   H1682     1.0  0.82186  0.73609  0.90909  1.0000
  H   H1683     1.0  0.83973  0.62426  0.88948  1.0000
  H   H1684     1.0  0.79787  0.56340  0.90405  1.0000
  H   H1685     1.0  0.72028  0.60270  0.91655  1.0000
  H   H1686     1.0  0.76213  0.66410  0.90223  1.0000
  H   H1687     1.0  0.89085  0.74413  0.85856  1.0000
  H   H1688     1.0  0.90134  0.73481  0.82951  1.0000
  H   H1689     1.0  0.86428  0.67167  0.81718  1.0000
  H   H1690     1.0  0.81437  0.61784  0.83400  1.0000
  H   H1691     1.0  0.80139  0.62700  0.86275  1.0000
  C   C2099     1.0  0.97418  0.94300  0.78263  1.0000
  C   C2100     1.0  0.55804  0.83449  0.76569  1.0000
  C   C2101     1.0  0.59614  0.50746  0.94086  1.0000
  H   H1692     1.0  0.95436  0.81056  0.89885  1.0000
  H   H1693     1.0  0.90446  0.95019  0.86935  1.0000
  C   C2102     1.0  0.59670  0.91922  0.83908  1.0000
  C   C2103     1.0  0.53180  0.89280  0.78745  1.0000
  C   C2104     1.0  0.75481  0.61078  0.95438  1.0000
  C   C2105     1.0  0.56402  0.84212  0.91797  1.0000
  H   H1694     1.0  0.52824  0.81322  0.76749  1.0000
  H   H1695     1.0  0.62943  0.86062  0.73732  1.0000
  C   C2106     1.0  0.56416  0.53088  0.92216  1.0000
  C   C2107     1.0  0.49826  0.87592  0.77788  1.0000
  C   C2108     1.0  0.98905  0.58360  0.92731  1.0000
  C   C2109     1.0  0.97514  0.68621  0.89798  1.0000
  H   H1696     1.0  0.93826  0.70847  0.92369  1.0000
  H   H1697     1.0  0.66246  0.89184  0.83202  1.0000
  C   C2110     1.0  0.52045  0.62422  0.80534  1.0000
  C   C2111     1.0  0.97399  0.70641  0.88356  1.0000
  H   H1698     1.0  0.57808  0.94619  0.79590  1.0000
  H   H1699     1.0  0.66411  0.91079  0.75789  1.0000
  H   H1700     1.0  0.59434  0.84265  0.89591  1.0000
  C   C2112     1.0  0.95005  0.76188  0.91230  1.0000
  C   C2113     1.0  0.58289  0.88548  0.81316  1.0000
  H   H1701     1.0  0.56130  0.81238  0.74218  1.0000
  Fe  Fe143     1.0  0.75333  0.95987  0.86497  1.0000
  C   C2114     1.0  0.63436  0.88969  0.75998  1.0000
  C   C2115     1.0  0.85386  0.97180  0.79878  1.0000
  H   H1702     1.0  0.54790  0.90647  0.82361  1.0000
  C   C2116     1.0  0.92423  0.94783  0.86110  1.0000
  H   H1703     1.0  0.64739  0.92726  0.85226  1.0000
  H   H1704     1.0  0.55034  0.98422  0.78417  1.0000
  C   C2117     1.0  0.50323  0.93540  0.72388  1.0000
  C   C2118     1.0  0.94668  0.94887  0.83306  1.0000
  C   C2119     1.0  0.92190  0.95286  0.84388  1.0000
  C   C2120     1.0  0.53732  0.96316  0.73105  1.0000
  H   H1705     1.0  0.81456  0.87815  0.79113  1.0000
  C   C2121     1.0  0.73641  0.57134  0.95388  1.0000
  C   C2122     1.0  0.94929  0.89441  0.80457  1.0000
  C   C2123     1.0  0.95145  0.93910  0.86767  1.0000
  C   C2124     1.0  0.94298  0.52042  0.87772  1.0000
  C   C2125     1.0  0.55914  0.86409  0.92969  1.0000
  C   C2126     1.0  0.49901  0.75168  0.80763  1.0000
  C   C2127     1.0  0.61491  0.86142  0.74842  1.0000
  H   H1706     1.0  0.55151  0.63932  0.80506  1.0000
  H   H1707     1.0  0.56172  0.57957  0.93033  1.0000
  C   C2128     1.0  0.55102  0.93218  0.78936  1.0000
  C   C2129     1.0  0.89969  0.95033  0.80464  1.0000
  C   C2130     1.0  0.61103  0.89909  0.90332  1.0000
  Fe  Fe144     1.0  0.49618  0.72791  0.74254  1.0000
  H   H1708     1.0  0.58966  0.93398  0.84813  1.0000
  C   C2131     1.0  0.83598  0.90654  0.79443  1.0000
  C   C2132     1.0  0.87220  0.91384  0.79984  1.0000
  C   C2133     1.0  0.62910  0.91530  0.84147  1.0000
  C   C2134     1.0  0.53561  0.95390  0.78256  1.0000
  C   C2135     1.0  0.95871  0.93090  0.79872  1.0000
  C   C2136     1.0  0.57763  0.86235  0.77754  1.0000
  C   C2137     1.0  0.50132  0.93655  0.77361  1.0000
  C   C2138     1.0  0.59026  0.85961  0.90490  1.0000
  C   C2139     1.0  0.57675  0.50504  0.92593  1.0000
  C   C2140     1.0  0.59060  0.56180  0.94824  1.0000
  C   C2141     1.0  0.88985  0.97900  0.80447  1.0000
  S   S286      1.0  0.89782  0.50490  0.92128  1.0000
  C   C2142     1.0  0.57667  0.83404  0.75122  1.0000
  H   H1709     1.0  0.62101  0.86422  0.80755  1.0000
  C   C2143     1.0  0.95583  0.87060  0.79467  1.0000
  H   H1710     1.0  0.53815  0.85006  0.93952  1.0000
  S   S287      1.0  0.81412  0.97284  0.87021  1.0000
  H   H1711     1.0  0.90089  0.96006  0.83911  1.0000
  C   C2144     1.0  0.59232  0.62080  0.72550  1.0000
  H   H1712     1.0  0.75177  0.55759  0.94958  1.0000
  H   H1713     1.0  0.85276  0.50607  0.87132  1.0000
  H   H1714     1.0  0.97789  0.63000  0.83087  1.0000
  C   C2145     1.0  0.97435  0.94062  0.83978  1.0000
  S   S288      1.0  0.99131  0.83652  0.86506  1.0000
  C   C2146     1.0  0.98360  0.57999  0.91007  1.0000
  C   C2147     1.0  0.62119  0.97358  0.94832  1.0000
  H   H1715     1.0  0.84621  0.99384  0.79910  1.0000
  H   H1716     1.0  0.97632  0.86420  0.77109  1.0000
  C   C2148     1.0  0.73487  0.62845  0.95980  1.0000
  H   H1717     1.0  0.97743  0.77780  0.91845  1.0000
  C   C2149     1.0  0.97653  0.93553  0.85701  1.0000
  H   H1718     1.0  0.51736  0.67158  0.81463  1.0000
  H   H1719     1.0  0.68426  0.51906  0.95793  1.0000
  C   C2150     1.0  0.98027  0.91893  0.77264  1.0000
  C   C2151     1.0  0.50117  0.64253  0.81071  1.0000
  C   C2152     1.0  0.97142  0.88285  0.77872  1.0000
  H   H1720     1.0  0.58889  0.97461  0.74431  1.0000
  H   H1721     1.0  0.51294  0.50858  0.74645  1.0000
  C   C2153     1.0  0.53737  0.99025  0.91334  1.0000
  C   C2154     1.0  0.98489  0.59890  0.85171  1.0000
  H   H1722     1.0  0.78705  0.99147  0.90352  1.0000
  H   H1723     1.0  0.54405  0.99247  0.73088  1.0000
  H   H1724     1.0  0.65556  0.94827  0.94191  1.0000
  C   C2155     1.0  0.65559  0.97310  0.94635  1.0000
  C   C2156     1.0  0.69818  0.54949  0.95887  1.0000
  H   H1725     1.0  0.70321  0.73530  0.71990  1.0000
  H   H1726     1.0  0.68999  0.99094  0.91257  1.0000
  C   C2157     1.0  0.55694  0.90954  0.96353  1.0000
  H   H1727     1.0  0.58436  0.87518  0.96322  1.0000
  P   P72       1.0  0.99208  0.55807  0.87879  1.0000
  H   H1728     1.0  0.99188  0.92822  0.76018  1.0000
  C   C2158     1.0  0.98943  0.63163  0.84331  1.0000
  C   C2159     1.0  0.69671  0.60663  0.96497  1.0000
  C   C2160     1.0  0.67838  0.56690  0.96496  1.0000
