data_image0
_chemical_formula_structural       SCSHC2SHCFeC3H4C3H2C2H4FeCH3CHC4H4C2HC3HC4H2C8PC8HPHC7H9CH2CHCH4CHC7H2C2H2CHC2HCHC2HCHSCH2CHCFeH2C4PHC2HC3H2SC4HCH2CHPCH3CHCH2CH5C2H2CHCHSCHC6H2CHC3HCH5C2H2C3H3C3HC2HC2SH2FeSC2HFeCSC3S2HSH3CHC2HCSCH2SC4H2C4HCHCHC2SCH3C2H2CH2FeHC2HC2H3CSCHC4H3C2PC4SC2HCHCHCH2C6HC2H8C2H4CH2CHC4H2C3HCHC2H2C3H3C2PH2PC10PCHCFeH2C3HC6PC3HCHC5HC4H2FeCHCH3CHCH5C2H3FeHCSCSC3SH2C2FeHC4H3CSH2CHCHSHCHSH2CFeSH2FeSHC2H3C2PHFeC7H4CH2C2H2CHSC4H2CH3C2HC5HC2H2CH2CSCHCHC3HCHFeC3SC2HCFeCHC2H3C3H4C2FeC6PH3C2HCHC3H2CH2CH3SC2H2CSHCH3CH6CHCHC4SCH3CH2SCSC3H4CH3SC10SCH2C2H2PSCPHCHCSFeS2FeSFeS4HC2H2CH3FeHCH2PC2HCHC2HC2HC2H2C7PC2H2CHCHCSC9HC2HSHC3HC3H2C2H5CH2C3HCH2C2H3CPCH2CHC2SCHC2HCHFeH2CH2CHCHPC3H2CHCH3CHCH2C8HCH2CFeSFeS3FeS2FeS2FeSFeS3FeS2FeS2FeSFeS3FeSFeS3C3H5C2FeCHC7H4CH4CH3C2H2C5H2C2HCH3CHCHCHC6PC18HCH15CH3C2HC3FeH2C5HC3HC8H2CH4C6PCHCH4CHC2HC3H3CH4CHC2HC2PCH2SHCHCH2CHC2FeC3HC3H2CSHC3FeCHCH2CH4CH4CH2C3HCHC6HCH3C2H2C2PHC4PCHC2H2C2HCSH2CHC2H3CHCHCHCH3C2HC2SC2HCH3C4H2C3HC3H3CHC2HC5HCFeS2FeHSFeS2Fe2S3CSFeH3Fe2CS2C4HCH2C2H2C2HCH3C4HC4H2C2SCSHCHCH8C4H3CHCHC3HCH2CSC3H2CHCSC5H2C4HC2HC2HC6PC7H2C2PC7H10C2HCSHFeC2HCH2CHC4H2CH6C6H2C5HC2H3C2H3CH3CSH3CSC2HC2H3CSHFeHCSCHSHFeHFeS3HC2SCHCHCHC2HCSHCHC2HCH2CH2CHC2HPC2HC2HCH2FeC3HSC2SHC4H4C3HC2HC2H2C2H4SHC2H2CH2C2HSC3H2CH2C4H2CHC3HC2SC3H4CH2C4HCPCH3C3HFeH2CH3C3HFeH2SC2H2C2HC3HC2H2CHCHC2H3C2FeHC2HCHCPCHCHCHCH3FeC3HC4HC4H3CH2C2HSC4HC2H2SC4SFeHSH2SCHSCFeS2Fe2SCH3FeS2FeHSCHCHCH2CHC7H4PH5C2HCSC6H6C2H2FeH2SCSHCHFeCHC4HC3H3C4FeCHCHC2PC5H5C3H2CHC2HCH2C2H3C2H2FeHFe2H2SCHSCHCHC4HCH2CHSC2HSHS2HCH2C3FeSCSCH2CH2C2SC2SC2H3C2FeCHCH2FeS2C2SPCHFeSHS2Fe2SFeS2C2HC4HSH2C3SCHCHCHCH3CH2C3HCH2C2HC2HC2HC2HCHC2SCHC6H4CHCH2C2HC2HCHCSC2H3C4HCFeHCFeHCHC3H2CHCFeCH2CSHCHC6PH3PHC4HC5PC3H4SCH3CH2CH6C2H2CHCH2CHC3PC4HC7H2C2H3CH5C3H2CHC3SC4PCHC2H2C2H2C2H4C2FeCHC5HC3H4C3H4FeS2HSFeSFeSCFeCSHC3HCHC2H2CH2C5HC4HC7H2C2HCHCHCH2C2HCHC5HCHCHCHCH2CH2CH3CHCSH2CH2CHSC2HCPCHC2HSPH2C2HCHCHCHCHCHC3HCHCSH2C3HC2FeH2FeHCHC2HC2HCHCHC2S2C5HCSC7HCH6CHFeHSPH2CHC2H2C2H3CSH3C2H2FeS2FeS2FeSFeS5FeS2FeS2FeSFeS3HC5H4CHC2HC4H2C5HCHCH5C7H4C6H5C3H2CHC2H2C2PCPCH2C2HC4H3C3H2C2PC2H3CHC3PC4HC14H3C2H8CH3C5H7CHC2PC11H2C2H6C2PH3CHCHC2HC3HC6HCHC5HC3H3C2H3CFeH3CHCHC2SCHC3H3C2H2CHPHCHCHCH3C2HC4HCH4C2HCH3CH3C2H5CSC3H3CH2C3H2CHC2HCSHCSFeSC2SHC2HSHC4H2CHC2H2CH4C6H3CH2C3HC3H2SHC5H3C2PC3H2C2HCHCHCH2C2H2CH4C3HCHC2SC4HPC5FeC11HC2H2CSH8SCH3CHC2H2C2HCHCFeHCH2PCHC2H3C2H2C6H2CH2C3H2C3H2C4
_chemical_formula_sum              "S192 C1440 H1152 Fe96 P48"
_cell_length_a       42.3727
_cell_length_b       42.7225
_cell_length_c       42.5164
_cell_angle_alpha    90.1179
_cell_angle_beta     90.2664
_cell_angle_gamma    90.0921

_space_group_name_H-M_alt    "P 1"
_space_group_IT_number       1

loop_
  _space_group_symop_operation_xyz
  'x, y, z'

loop_
  _atom_site_type_symbol
  _atom_site_label
  _atom_site_symmetry_multiplicity
  _atom_site_fract_x
  _atom_site_fract_y
  _atom_site_fract_z
  _atom_site_occupancy
  S   S1        1.0  0.41950  0.02005  0.09239  1.0000
  C   C1        1.0  0.13996  0.37137  0.21692  1.0000
  S   S2        1.0  0.03915  0.38041  0.07809  1.0000
  H   H1        1.0  0.09588  0.49944  0.29970  1.0000
  C   C2        1.0  0.06760  0.42925  0.28287  1.0000
  C   C3        1.0  0.41413  0.10394  0.12066  1.0000
  S   S3        1.0  0.42168  0.36135  0.07009  1.0000
  H   H2        1.0  0.01947  0.07132  0.23348  1.0000
  C   C4        1.0  0.05518  0.38675  0.17861  1.0000
  Fe  Fe1       1.0  0.06426  0.36395  0.03417  1.0000
  C   C5        1.0  0.46990  0.20812  0.11908  1.0000
  C   C6        1.0  0.48381  0.34530  0.05984  1.0000
  C   C7        1.0  0.39622  0.42462  0.23596  1.0000
  H   H3        1.0  0.48325  0.25316  0.13805  1.0000
  H   H4        1.0  0.45909  0.40749  0.10297  1.0000
  H   H5        1.0  0.19368  0.09053  0.01236  1.0000
  H   H6        1.0  0.20453  0.25579  0.22185  1.0000
  C   C8        1.0  0.12281  0.41596  0.31630  1.0000
  C   C9        1.0  0.42540  0.13478  0.12352  1.0000
  C   C10       1.0  0.46292  0.36629  0.07397  1.0000
  H   H7        1.0  0.06801  0.40068  0.16161  1.0000
  H   H8        1.0  0.46959  0.45361  0.04739  1.0000
  C   C11       1.0  0.03166  0.36627  0.16796  1.0000
  C   C12       1.0  0.06161  0.08825  0.06451  1.0000
  H   H9        1.0  0.20979  0.24069  0.09551  1.0000
  H   H10       1.0  0.48007  0.25700  0.01829  1.0000
  H   H11       1.0  0.45652  0.28329  0.09568  1.0000
  H   H12       1.0  0.42406  0.17680  0.15214  1.0000
  Fe  Fe2       1.0  0.02728  0.04513  0.32984  1.0000
  C   C13       1.0  0.38388  0.10993  0.16840  1.0000
  H   H13       1.0  0.12831  0.35865  0.23561  1.0000
  H   H14       1.0  0.43680  0.47951  0.19488  1.0000
  H   H15       1.0  0.41193  0.03881  0.25061  1.0000
  C   C14       1.0  0.39349  0.09161  0.14295  1.0000
  H   H16       1.0  0.37228  0.41872  0.24262  1.0000
  C   C15       1.0  0.03685  0.42086  0.08612  1.0000
  C   C16       1.0  0.05606  0.44248  0.07060  1.0000
  C   C17       1.0  0.05496  0.47434  0.07886  1.0000
  C   C18       1.0  0.03435  0.48483  0.10236  1.0000
  H   H17       1.0  0.42841  0.25513  0.05300  1.0000
  H   H18       1.0  0.42623  0.19793  0.05214  1.0000
  H   H19       1.0  0.07222  0.43464  0.05268  1.0000
  H   H20       1.0  0.02733  0.50023  0.17865  1.0000
  C   C19       1.0  0.45814  0.43971  0.21832  1.0000
  C   C20       1.0  0.10794  0.47823  0.21582  1.0000
  H   H21       1.0  0.42146  0.08920  0.10126  1.0000
  C   C21       1.0  0.42138  0.40598  0.24603  1.0000
  C   C22       1.0  0.02430  0.03493  0.07270  1.0000
  C   C23       1.0  0.41578  0.15303  0.14924  1.0000
  H   H22       1.0  0.30623  0.30216  0.04720  1.0000
  C   C24       1.0  0.08259  0.07813  0.18508  1.0000
  C   C25       1.0  0.43947  0.24209  0.07184  1.0000
  C   C26       1.0  0.47269  0.04778  0.06936  1.0000
  C   C27       1.0  0.46019  0.02142  0.08432  1.0000
  H   H23       1.0  0.20136  0.36371  0.16614  1.0000
  H   H24       1.0  0.13043  0.47243  0.22652  1.0000
  C   C28       1.0  0.47075  0.24089  0.11949  1.0000
  C   C29       1.0  0.12219  0.41265  0.28350  1.0000
  C   C30       1.0  0.01609  0.43141  0.10945  1.0000
  C   C31       1.0  0.17991  0.25819  0.17747  1.0000
  C   C32       1.0  0.22813  0.28637  0.18921  1.0000
  C   C33       1.0  0.22777  0.29932  0.15901  1.0000
  C   C34       1.0  0.20347  0.29170  0.13772  1.0000
  C   C35       1.0  0.17953  0.27102  0.14724  1.0000
  P   P1        1.0  0.20198  0.30929  0.09905  1.0000
  C   C36       1.0  0.19004  0.28025  0.07039  1.0000
  C   C37       1.0  0.17312  0.34061  0.09908  1.0000
  C   C38       1.0  0.17775  0.36739  0.08058  1.0000
  C   C39       1.0  0.15482  0.39090  0.07943  1.0000
  C   C40       1.0  0.12689  0.38777  0.09645  1.0000
  C   C41       1.0  0.12188  0.36111  0.11469  1.0000
  C   C42       1.0  0.14482  0.33762  0.11601  1.0000
  C   C43       1.0  0.17448  0.28954  0.04282  1.0000
  H   H25       1.0  0.07749  0.02821  0.13286  1.0000
  P   P2        1.0  0.45283  0.14979  0.09475  1.0000
  H   H26       1.0  0.04378  0.50047  0.27261  1.0000
  C   C44       1.0  0.19671  0.24835  0.07501  1.0000
  C   C45       1.0  0.24080  0.32353  0.08852  1.0000
  C   C46       1.0  0.26080  0.30541  0.06952  1.0000
  C   C47       1.0  0.29115  0.31601  0.06234  1.0000
  C   C48       1.0  0.30172  0.34490  0.07365  1.0000
  C   C49       1.0  0.28199  0.36316  0.09245  1.0000
  C   C50       1.0  0.25173  0.35248  0.10005  1.0000
  H   H27       1.0  0.16133  0.24228  0.18462  1.0000
  H   H28       1.0  0.24659  0.31508  0.15243  1.0000
  H   H29       1.0  0.16049  0.26481  0.13126  1.0000
  H   H30       1.0  0.19846  0.36971  0.06593  1.0000
  H   H31       1.0  0.48203  0.19522  0.13739  1.0000
  H   H32       1.0  0.10868  0.40546  0.09469  1.0000
  H   H33       1.0  0.09967  0.35827  0.12693  1.0000
  H   H34       1.0  0.13983  0.31697  0.12964  1.0000
  H   H35       1.0  0.17041  0.31408  0.03807  1.0000
  C   C51       1.0  0.43837  0.20939  0.07144  1.0000
  H   H36       1.0  0.04609  0.43471  0.27024  1.0000
  H   H37       1.0  0.38248  0.46560  0.20981  1.0000
  C   C52       1.0  0.14721  0.11811  0.07096  1.0000
  H   H38       1.0  0.25308  0.28327  0.05978  1.0000
  C   C53       1.0  0.06828  0.43253  0.31557  1.0000
  H   H39       1.0  0.29015  0.38573  0.10086  1.0000
  H   H40       1.0  0.23680  0.36689  0.11470  1.0000
  H   H41       1.0  0.00868  0.03881  0.00934  1.0000
  H   H42       1.0  0.38758  0.15481  0.19129  1.0000
  C   C54       1.0  0.14992  0.01022  0.01459  1.0000
  H   H43       1.0  0.12746  0.16747  0.01167  1.0000
  C   C55       1.0  0.45226  0.41358  0.23739  1.0000
  C   C56       1.0  0.39502  0.14062  0.17154  1.0000
  C   C57       1.0  0.06171  0.38946  0.21094  1.0000
  C   C58       1.0  0.45353  0.19211  0.09512  1.0000
  C   C59       1.0  0.08479  0.45505  0.21140  1.0000
  C   C60       1.0  0.03249  0.07616  0.21212  1.0000
  C   C61       1.0  0.06515  0.07181  0.21215  1.0000
  H   H44       1.0  0.14351  0.40564  0.27158  1.0000
  H   H45       1.0  0.04732  0.44021  0.32785  1.0000
  C   C62       1.0  0.05539  0.46335  0.19859  1.0000
  C   C63       1.0  0.20421  0.26585  0.19846  1.0000
  H   H46       1.0  0.48653  0.12321  0.04013  1.0000
  H   H47       1.0  0.39471  0.03325  0.03248  1.0000
  C   C64       1.0  0.16890  0.09916  0.05524  1.0000
  H   H48       1.0  0.13276  0.43696  0.17181  1.0000
  C   C65       1.0  0.44678  0.00588  0.23457  1.0000
  C   C66       1.0  0.09428  0.41869  0.26661  1.0000
  H   H49       1.0  0.18039  0.08006  0.06753  1.0000
  C   C67       1.0  0.49651  0.10750  0.11985  1.0000
  H   H50       1.0  0.45907  0.00567  0.25696  1.0000
  C   C68       1.0  0.47508  0.39126  0.09181  1.0000
  C   C69       1.0  0.13256  0.14279  0.05509  1.0000
  H   H51       1.0  0.48925  0.44119  0.32735  1.0000
  C   C70       1.0  0.40390  0.02542  0.20235  1.0000
  H   H52       1.0  0.17530  0.33579  0.21012  1.0000
  S   S4        1.0  0.03579  0.02465  0.28130  1.0000
  C   C71       1.0  0.04982  0.49411  0.18909  1.0000
  H   H53       1.0  0.40145  0.00714  0.15519  1.0000
  H   H54       1.0  0.45700  0.06616  0.06190  1.0000
  C   C72       1.0  0.06725  0.08846  0.15783  1.0000
  H   H55       1.0  0.15815  0.41091  0.06414  1.0000
  C   C73       1.0  0.09581  0.42571  0.33235  1.0000
  Fe  Fe3       1.0  0.40610  0.33608  0.02575  1.0000
  H   H56       1.0  0.14186  0.11374  0.09546  1.0000
  H   H57       1.0  0.08068  0.09315  0.13676  1.0000
  C   C74       1.0  0.48462  0.44136  0.03097  1.0000
  C   C75       1.0  0.02881  0.09098  0.06544  1.0000
  C   C76       1.0  0.49203  0.13542  0.10304  1.0000
  C   C77       1.0  0.48777  0.23375  0.01180  1.0000
  P   P3        1.0  0.49820  0.44951  0.20818  1.0000
  H   H58       1.0  0.02282  0.27780  0.02461  1.0000
  C   C78       1.0  0.49970  0.47828  0.17715  1.0000
  C   C79       1.0  0.01688  0.08685  0.18498  1.0000
  H   H59       1.0  0.47539  0.39108  0.17855  1.0000
  C   C80       1.0  0.11974  0.00968  0.02766  1.0000
  C   C81       1.0  0.40750  0.13508  0.04954  1.0000
  C   C82       1.0  0.02118  0.35069  0.22158  1.0000
  H   H60       1.0  0.01768  0.11366  0.06253  1.0000
  H   H61       1.0  0.41697  0.38565  0.26057  1.0000
  S   S5        1.0  0.10505  0.33070  0.03758  1.0000
  C   C83       1.0  0.13922  0.14826  0.02339  1.0000
  C   C84       1.0  0.01463  0.46331  0.11737  1.0000
  C   C85       1.0  0.05719  0.03176  0.07057  1.0000
  C   C86       1.0  0.07585  0.05885  0.06750  1.0000
  H   H62       1.0  0.04986  0.37190  0.25727  1.0000
  C   C87       1.0  0.03451  0.09268  0.15770  1.0000
  H   H63       1.0  0.07589  0.10891  0.06092  1.0000
  H   H64       1.0  0.38290  0.03956  0.19974  1.0000
  C   C88       1.0  0.48339  0.47260  0.14884  1.0000
  H   H65       1.0  0.38512  0.06771  0.14035  1.0000
  P   P4        1.0  0.09249  0.41560  0.22423  1.0000
  C   C89       1.0  0.45562  0.25789  0.09577  1.0000
  H   H66       1.0  0.36783  0.10033  0.18565  1.0000
  H   H67       1.0  0.24707  0.29218  0.20544  1.0000
  H   H68       1.0  0.10793  0.07476  0.18524  1.0000
  C   C90       1.0  0.42027  0.02499  0.23096  1.0000
  H   H69       1.0  0.46944  0.45152  0.14586  1.0000
  C   C91       1.0  0.17609  0.10496  0.02371  1.0000
  H   H70       1.0  0.03662  0.44636  0.19584  1.0000
  H   H71       1.0  0.47673  0.09416  0.12861  1.0000
  C   C92       1.0  0.43985  0.13556  0.05684  1.0000
  H   H72       1.0  0.32508  0.35326  0.06741  1.0000
  H   H73       1.0  0.17969  0.41408  0.14703  1.0000
  H   H74       1.0  0.10132  0.05733  0.06690  1.0000
  H   H75       1.0  0.39049  0.14497  0.06568  1.0000
  H   H76       1.0  0.11586  0.15770  0.06722  1.0000
  C   C93       1.0  0.40196  0.45101  0.21743  1.0000
  C   C94       1.0  0.04496  0.37083  0.23229  1.0000
  H   H77       1.0  0.19149  0.20147  0.05667  1.0000
  H   H78       1.0  0.02323  0.10075  0.13638  1.0000
  C   C95       1.0  0.17008  0.23551  0.02610  1.0000
  H   H79       1.0  0.47489  0.32531  0.04713  1.0000
  C   C96       1.0  0.50092  0.39081  0.17905  1.0000
  H   H80       1.0  0.07676  0.06350  0.23336  1.0000
  S   S6        1.0  0.37821  0.29118  0.02511  1.0000
  C   C97       1.0  0.46143  0.12297  0.03533  1.0000
  H   H81       1.0  0.07020  0.49089  0.06709  1.0000
  C   C98       1.0  0.16644  0.35829  0.20242  1.0000
  C   C99       1.0  0.18110  0.37396  0.17763  1.0000
  C   C100      1.0  0.16901  0.40247  0.16699  1.0000
  C   C101      1.0  0.14245  0.41553  0.18134  1.0000
  C   C102      1.0  0.12823  0.40047  0.20700  1.0000
  C   C103      1.0  0.18660  0.22606  0.05297  1.0000
  H   H82       1.0  0.47162  0.39908  0.24550  1.0000
  H   H83       1.0  0.02659  0.36439  0.14300  1.0000
  C   C104      1.0  0.50792  0.39550  0.09492  1.0000
  H   H84       1.0  0.08194  0.01062  0.18813  1.0000
  C   C105      1.0  0.41425  0.00699  0.17728  1.0000
  C   C106      1.0  0.50771  0.49162  0.25746  1.0000
  C   C107      1.0  0.43283  0.45868  0.20878  1.0000
  H   H85       1.0  0.10051  0.02086  0.01508  1.0000
  C   C108      1.0  0.01765  0.25408  0.01762  1.0000
  H   H86       1.0  0.37183  0.12082  0.01622  1.0000
  H   H87       1.0  0.14419  0.41096  0.32943  1.0000
  H   H88       1.0  0.02732  0.22583  0.32624  1.0000
  H   H89       1.0  0.50332  0.34668  0.15451  1.0000
  H   H90       1.0  0.24211  0.39374  0.01123  1.0000
  C   C109      1.0  0.47214  0.41732  0.01236  1.0000
  C   C110      1.0  0.50530  0.05044  0.06423  1.0000
  H   H91       1.0  0.44745  0.41092  0.01439  1.0000
  H   H92       1.0  0.21999  0.15746  0.01194  1.0000
  C   C111      1.0  0.39682  0.12132  0.02161  1.0000
  C   C112      1.0  0.16416  0.26722  0.02097  1.0000
  C   C113      1.0  0.01027  0.06436  0.06986  1.0000
  H   H93       1.0  0.47376  0.48876  0.10174  1.0000
  H   H94       1.0  0.00922  0.01473  0.07572  1.0000
  H   H95       1.0  0.34506  0.01001  0.01212  1.0000
  C   C114      1.0  0.45064  0.10881  0.00763  1.0000
  C   C115      1.0  0.01450  0.34842  0.18944  1.0000
  C   C116      1.0  0.39398  0.02335  0.00902  1.0000
  H   H96       1.0  0.16192  0.21841  0.00910  1.0000
  C   C117      1.0  0.48577  0.49362  0.12378  1.0000
  C   C118      1.0  0.16097  0.12932  0.00735  1.0000
  H   H97       1.0  0.25889  0.20058  0.01160  1.0000
  C   C119      1.0  0.46101  0.48923  0.50121  1.0000
  C   C120      1.0  0.46318  0.02452  0.35985  1.0000
  S   S7        1.0  0.47997  0.08443  0.64611  1.0000
  H   H98       1.0  0.07437  0.39586  0.49527  1.0000
  H   H99       1.0  0.37862  0.02737  0.62749  1.0000
  Fe  Fe4       1.0  0.47316  0.05555  0.60239  1.0000
  S   S8        1.0  0.42556  0.05152  0.57878  1.0000
  C   C121      1.0  0.48305  0.15540  0.56577  1.0000
  C   C122      1.0  0.14292  0.44552  0.56089  1.0000
  H   H100      1.0  0.16231  0.09771  0.40492  1.0000
  Fe  Fe5       1.0  0.47646  0.37952  0.62473  1.0000
  C   C123      1.0  0.35475  0.43612  0.47043  1.0000
  S   S9        1.0  0.43572  0.40118  0.59856  1.0000
  C   C124      1.0  0.09425  0.46701  0.54007  1.0000
  C   C125      1.0  0.02711  0.20153  0.52313  1.0000
  C   C126      1.0  0.43383  0.25077  0.50390  1.0000
  S   S10       1.0  0.02352  0.09200  0.40870  1.0000
  S   S11       1.0  0.06243  0.08213  0.34344  1.0000
  H   H101      1.0  0.41430  0.50112  0.44796  1.0000
  S   S12       1.0  0.07953  0.41254  0.42640  1.0000
  H   H102      1.0  0.40127  0.50077  0.55358  1.0000
  H   H103      1.0  0.10135  0.20987  0.49370  1.0000
  H   H104      1.0  0.33802  0.41810  0.47696  1.0000
  C   C127      1.0  0.49244  0.26033  0.53997  1.0000
  H   H105      1.0  0.14201  0.08335  0.56476  1.0000
  C   C128      1.0  0.07012  0.18859  0.43241  1.0000
  C   C129      1.0  0.39916  0.28203  0.47081  1.0000
  H   H106      1.0  0.08329  0.39264  0.56680  1.0000
  C   C130      1.0  0.49930  0.42583  0.37456  1.0000
  S   S13       1.0  0.10849  0.05196  0.41676  1.0000
  C   C131      1.0  0.23216  0.01296  0.45026  1.0000
  H   H107      1.0  0.15497  0.01829  0.51689  1.0000
  H   H108      1.0  0.45613  0.21164  0.48037  1.0000
  S   S14       1.0  0.03387  0.35282  0.36878  1.0000
  C   C132      1.0  0.07812  0.04273  0.47331  1.0000
  C   C133      1.0  0.07758  0.03567  0.50562  1.0000
  C   C134      1.0  0.39279  0.00856  0.63712  1.0000
  C   C135      1.0  0.48235  0.18766  0.56031  1.0000
  H   H109      1.0  0.05666  0.04936  0.46121  1.0000
  H   H110      1.0  0.05562  0.03699  0.51843  1.0000
  C   C136      1.0  0.27303  0.03571  0.52672  1.0000
  C   C137      1.0  0.07931  0.45356  0.43161  1.0000
  C   C138      1.0  0.09642  0.46717  0.45647  1.0000
  C   C139      1.0  0.03153  0.39478  0.52287  1.0000
  H   H111      1.0  0.09618  0.42800  0.35781  1.0000
  C   C140      1.0  0.06270  0.47290  0.41087  1.0000
  H   H112      1.0  0.10965  0.45240  0.47239  1.0000
  C   C141      1.0  0.13357  0.02494  0.50474  1.0000
  H   H113      1.0  0.38331  0.30173  0.46803  1.0000
  C   C142      1.0  0.43623  0.44213  0.59544  1.0000
  C   C143      1.0  0.45496  0.46032  0.61554  1.0000
  S   S15       1.0  0.10450  0.02056  0.56242  1.0000
  C   C144      1.0  0.41686  0.45678  0.57308  1.0000
  H   H114      1.0  0.46976  0.44920  0.63300  1.0000
  H   H115      1.0  0.39455  0.26698  0.42259  1.0000
  H   H116      1.0  0.40233  0.44277  0.55749  1.0000
  C   C145      1.0  0.05428  0.38200  0.50268  1.0000
  C   C146      1.0  0.45355  0.49307  0.61389  1.0000
  H   H117      1.0  0.41708  0.33321  0.60491  1.0000
  H   H118      1.0  0.45417  0.20409  0.65594  1.0000
  C   C147      1.0  0.05512  0.01397  0.63531  1.0000
  H   H119      1.0  0.13861  0.49171  0.54124  1.0000
  H   H120      1.0  0.49832  0.25930  0.59042  1.0000
  Fe  Fe6       1.0  0.06219  0.06067  0.39147  1.0000
  H   H121      1.0  0.09934  0.16691  0.36123  1.0000
  C   C148      1.0  0.11787  0.12973  0.50428  1.0000
  C   C149      1.0  0.02117  0.49420  0.51823  1.0000
  H   H122      1.0  0.19637  0.05840  0.57066  1.0000
  C   C150      1.0  0.42695  0.03752  0.53997  1.0000
  C   C151      1.0  0.08623  0.13411  0.51299  1.0000
  H   H123      1.0  0.46871  0.06353  0.52794  1.0000
  H   H124      1.0  0.05145  0.12514  0.54903  1.0000
  H   H125      1.0  0.09498  0.26235  0.51742  1.0000
  C   C152      1.0  0.08731  0.13455  0.43324  1.0000
  S   S16       1.0  0.49658  0.33654  0.60239  1.0000
  C   C153      1.0  0.49440  0.23461  0.65116  1.0000
  H   H126      1.0  0.38813  0.24261  0.63771  1.0000
  C   C154      1.0  0.09325  0.16537  0.38591  1.0000
  C   C155      1.0  0.07829  0.43907  0.54710  1.0000
  C   C156      1.0  0.09510  0.41441  0.56117  1.0000
  C   C157      1.0  0.40550  0.26248  0.44522  1.0000
  H   H127      1.0  0.24341  0.04081  0.60075  1.0000
  H   H128      1.0  0.25879  0.01635  0.40698  1.0000
  H   H129      1.0  0.46906  0.04543  0.47259  1.0000
  C   C158      1.0  0.47335  0.47334  0.47512  1.0000
  C   C159      1.0  0.42592  0.23708  0.44885  1.0000
  P   P5        1.0  0.05941  0.15604  0.48833  1.0000
  C   C160      1.0  0.01694  0.22439  0.34939  1.0000
  C   C161      1.0  0.42993  0.15048  0.54535  1.0000
  C   C162      1.0  0.45685  0.13685  0.55845  1.0000
  C   C163      1.0  0.05086  0.35150  0.49111  1.0000
  S   S17       1.0  0.42876  0.00492  0.43780  1.0000
  C   C164      1.0  0.45548  0.20156  0.54688  1.0000
  C   C165      1.0  0.42917  0.18272  0.53962  1.0000
  H   H130      1.0  0.29197  0.02542  0.57264  1.0000
  C   C166      1.0  0.43210  0.26122  0.57338  1.0000
  H   H131      1.0  0.16589  0.14861  0.43280  1.0000
  C   C167      1.0  0.34589  0.49433  0.61169  1.0000
  H   H132      1.0  0.01795  0.43674  0.65307  1.0000
  C   C168      1.0  0.48148  0.44117  0.35158  1.0000
  H   H133      1.0  0.14006  0.39853  0.57883  1.0000
  H   H134      1.0  0.16198  0.10734  0.51555  1.0000
  C   C169      1.0  0.43244  0.29387  0.57716  1.0000
  C   C170      1.0  0.40365  0.01677  0.52900  1.0000
  C   C171      1.0  0.45086  0.04733  0.51974  1.0000
  C   C172      1.0  0.04802  0.25324  0.53432  1.0000
  C   C173      1.0  0.41584  0.24281  0.59538  1.0000
  C   C174      1.0  0.13798  0.11161  0.52296  1.0000
  H   H135      1.0  0.46171  0.42606  0.52164  1.0000
  C   C175      1.0  0.02281  0.46243  0.50981  1.0000
  C   C176      1.0  0.10530  0.02676  0.52141  1.0000
  H   H136      1.0  0.04531  0.02158  0.61300  1.0000
  H   H137      1.0  0.05124  0.43050  0.60614  1.0000
  H   H138      1.0  0.40958  0.13595  0.54008  1.0000
  H   H139      1.0  0.45724  0.11196  0.56332  1.0000
  H   H140      1.0  0.05827  0.20834  0.44308  1.0000
  H   H141      1.0  0.38820  0.30047  0.64320  1.0000
  H   H142      1.0  0.40789  0.19302  0.53002  1.0000
  H   H143      1.0  0.12705  0.13988  0.48294  1.0000
  C   C177      1.0  0.13423  0.03283  0.47264  1.0000
  C   C178      1.0  0.27187  0.03420  0.55952  1.0000
  H   H144      1.0  0.28596  0.10446  0.45096  1.0000
  H   H145      1.0  0.44553  0.30850  0.56117  1.0000
  H   H146      1.0  0.33463  0.48775  0.56259  1.0000
  H   H147      1.0  0.47001  0.37538  0.54756  1.0000
  C   C179      1.0  0.12643  0.47013  0.54690  1.0000
  H   H148      1.0  0.41608  0.21754  0.59400  1.0000
  H   H149      1.0  0.40780  0.29168  0.51941  1.0000
  C   C180      1.0  0.05487  0.19376  0.50698  1.0000
  H   H150      1.0  0.06805  0.34227  0.47475  1.0000
  C   C181      1.0  0.45385  0.45684  0.35997  1.0000
  C   C182      1.0  0.02192  0.13632  0.48380  1.0000
  C   C183      1.0  0.46163  0.44165  0.41458  1.0000
  C   C184      1.0  0.44396  0.45718  0.39134  1.0000
  H   H151      1.0  0.19804  0.05488  0.41842  1.0000
  H   H152      1.0  0.10633  0.11684  0.38987  1.0000
  C   C185      1.0  0.39787  0.48278  0.45411  1.0000
  C   C186      1.0  0.34080  0.03210  0.44719  1.0000
  C   C187      1.0  0.07419  0.16037  0.44884  1.0000
  H   H153      1.0  0.05029  0.46294  0.39110  1.0000
  C   C188      1.0  0.39995  0.28954  0.62354  1.0000
  H   H154      1.0  0.31946  0.47240  0.46739  1.0000
  C   C189      1.0  0.02438  0.33371  0.49913  1.0000
  C   C190      1.0  0.30869  0.02800  0.45323  1.0000
  H   H155      1.0  0.38501  0.00925  0.54456  1.0000
  H   H156      1.0  0.08915  0.11208  0.44490  1.0000
  C   C191      1.0  0.47869  0.04086  0.38391  1.0000
  C   C192      1.0  0.09702  0.13714  0.40198  1.0000
  C   C193      1.0  0.09576  0.10351  0.56018  1.0000
  H   H157      1.0  0.43088  0.22190  0.42902  1.0000
  H   H158      1.0  0.07586  0.21262  0.38831  1.0000
  H   H159      1.0  0.09689  0.04237  0.63082  1.0000
  C   C194      1.0  0.40870  0.45223  0.45946  1.0000
  C   C195      1.0  0.38681  0.42884  0.46748  1.0000
  P   P6        1.0  0.45027  0.44332  0.45557  1.0000
  H   H160      1.0  0.24153  0.11284  0.48998  1.0000
  H   H161      1.0  0.49451  0.26566  0.48921  1.0000
  P   P7        1.0  0.03678  0.43404  0.53806  1.0000
  C   C196      1.0  0.44007  0.23125  0.47803  1.0000
  C   C197      1.0  0.45108  0.03699  0.48844  1.0000
  C   C198      1.0  0.47908  0.20547  0.65066  1.0000
  C   C199      1.0  0.45749  0.40627  0.47473  1.0000
  C   C200      1.0  0.45667  0.37823  0.45737  1.0000
  C   C201      1.0  0.46134  0.34948  0.47237  1.0000
  C   C202      1.0  0.46625  0.34848  0.50484  1.0000
  C   C203      1.0  0.46606  0.37614  0.52241  1.0000
  C   C204      1.0  0.46172  0.40497  0.50748  1.0000
  C   C205      1.0  0.18005  0.10127  0.42306  1.0000
  P   P8        1.0  0.45329  0.24343  0.54111  1.0000
  C   C206      1.0  0.39980  0.25698  0.62031  1.0000
  H   H162      1.0  0.39433  0.40505  0.47175  1.0000
  C   C207      1.0  0.41627  0.30799  0.60197  1.0000
  Fe  Fe7       1.0  0.02099  0.11066  0.35937  1.0000
  H   H163      1.0  0.37803  0.06485  0.43765  1.0000
  H   H164      1.0  0.45251  0.37851  0.43225  1.0000
  C   C208      1.0  0.07956  0.21566  0.50559  1.0000
  C   C209      1.0  0.40639  0.01170  0.66693  1.0000
  C   C210      1.0  0.10656  0.04166  0.45684  1.0000
  H   H165      1.0  0.20571  0.15612  0.47531  1.0000
  C   C211      1.0  0.21792  0.05260  0.55838  1.0000
  C   C212      1.0  0.18197  0.12985  0.43894  1.0000
  C   C213      1.0  0.20435  0.13401  0.46285  1.0000
  C   C214      1.0  0.22470  0.10951  0.47099  1.0000
  C   C215      1.0  0.22294  0.08068  0.45510  1.0000
  C   C216      1.0  0.20052  0.07685  0.43090  1.0000
  P   P9        1.0  0.24800  0.04850  0.46710  1.0000
  C   C217      1.0  0.28851  0.05396  0.45505  1.0000
  C   C218      1.0  0.24663  0.04588  0.50947  1.0000
  C   C219      1.0  0.12686  0.09832  0.55078  1.0000
  H   H166      1.0  0.34252  0.11116  0.43938  1.0000
  C   C220      1.0  0.24440  0.04274  0.57535  1.0000
  H   H167      1.0  0.47088  0.32641  0.51633  1.0000
  C   C221      1.0  0.21893  0.05401  0.52556  1.0000
  C   C222      1.0  0.30086  0.08402  0.44975  1.0000
  C   C223      1.0  0.33300  0.08796  0.44323  1.0000
  C   C224      1.0  0.35300  0.06200  0.44218  1.0000
  C   C225      1.0  0.07605  0.24536  0.51904  1.0000
  H   H168      1.0  0.08224  0.48642  0.52908  1.0000
  C   C226      1.0  0.07998  0.19112  0.40118  1.0000
  C   C227      1.0  0.41320  0.27622  0.50005  1.0000
  C   C228      1.0  0.34425  0.46666  0.46507  1.0000
  C   C229      1.0  0.40457  0.00547  0.49795  1.0000
  H   H169      1.0  0.43792  0.48332  0.51009  1.0000
  H   H170      1.0  0.15619  0.03235  0.45994  1.0000
  Fe  Fe8       1.0  0.03556  0.39241  0.40384  1.0000
  C   C230      1.0  0.41625  0.48956  0.57081  1.0000
  H   H171      1.0  0.47230  0.06487  0.38892  1.0000
  C   C231      1.0  0.09645  0.49986  0.46081  1.0000
  H   H172      1.0  0.08708  0.09258  0.58144  1.0000
  H   H173      1.0  0.03825  0.09097  0.49974  1.0000
  H   H174      1.0  0.02106  0.31061  0.48897  1.0000
  C   C232      1.0  0.08424  0.02578  0.64535  1.0000
  H   H175      1.0  0.42295  0.47016  0.39731  1.0000
  C   C233      1.0  0.12726  0.41765  0.56804  1.0000
  H   H176      1.0  0.02854  0.50188  0.54146  1.0000
  H   H177      1.0  0.04520  0.27635  0.54449  1.0000
  H   H178      1.0  0.29443  0.02839  0.51512  1.0000
  H   H179      1.0  0.16783  0.44812  0.56612  1.0000
  H   H180      1.0  0.48381  0.15573  0.64278  1.0000
  C   C234      1.0  0.02642  0.43544  0.60312  1.0000
  C   C235      1.0  0.07559  0.12162  0.54156  1.0000
  H   H181      1.0  0.46157  0.32802  0.45877  1.0000
  H   H182      1.0  0.19794  0.06092  0.51275  1.0000
  H   H183      1.0  0.34677  0.46944  0.61620  1.0000
  Fe  Fe9       1.0  0.49505  0.31568  0.65065  1.0000
  H   H184      1.0  0.35641  0.01208  0.44665  1.0000
  C   C236      1.0  0.49582  0.17805  0.64322  1.0000
  S   S18       1.0  0.03063  0.02115  0.37671  1.0000
  C   C237      1.0  0.01866  0.10432  0.49063  1.0000
  S   S19       1.0  0.47262  0.26864  0.65989  1.0000
  C   C238      1.0  0.36580  0.48993  0.45674  1.0000
  C   C239      1.0  0.42805  0.01602  0.47752  1.0000
  C   C240      1.0  0.01318  0.43882  0.57296  1.0000
  S   S20       1.0  0.49558  0.01223  0.62215  1.0000
  H   H185      1.0  0.50272  0.20147  0.56707  1.0000
  H   H186      1.0  0.44034  0.46927  0.34229  1.0000
  C   C241      1.0  0.50142  0.02583  0.40245  1.0000
  C   C242      1.0  0.50352  0.48151  0.46422  1.0000
  Fe  Fe10      1.0  0.50613  0.04243  0.66413  1.0000
  H   H187      1.0  0.44477  0.03580  0.34624  1.0000
  C   C243      1.0  0.48936  0.42598  0.40586  1.0000
  C   C244      1.0  0.02364  0.23128  0.53650  1.0000
  C   C245      1.0  0.01223  0.45307  0.47989  1.0000
  C   C246      1.0  0.50651  0.26912  0.51140  1.0000
  H   H188      1.0  0.01417  0.27465  0.35523  1.0000
  H   H189      1.0  0.01298  0.42881  0.47274  1.0000
  H   H190      1.0  0.50381  0.14486  0.57625  1.0000
  C   C247      1.0  0.00954  0.25209  0.36577  1.0000
  S   S21       1.0  0.47110  0.35733  0.67210  1.0000
  H   H191      1.0  0.50371  0.41440  0.42345  1.0000
  H   H192      1.0  0.29973  0.00462  0.45722  1.0000
  C   C248      1.0  0.24060  0.00390  0.41967  1.0000
  H   H193      1.0  0.00831  0.01211  0.46796  1.0000
  C   C249      1.0  0.01123  0.19488  0.36282  1.0000
  H   H194      1.0  0.00804  0.18481  0.52534  1.0000
  S   S22       1.0  0.02161  0.16089  0.34139  1.0000
  H   H195      1.0  0.02051  0.48172  0.90154  1.0000
  C   C250      1.0  0.47679  0.11787  0.92579  1.0000
  H   H196      1.0  0.42225  0.47546  0.67730  1.0000
  S   S23       1.0  0.10616  0.33058  0.95999  1.0000
  H   H197      1.0  0.18059  0.02525  0.94098  1.0000
  H   H198      1.0  0.06704  0.08008  0.96841  1.0000
  C   C251      1.0  0.04856  0.02992  0.90884  1.0000
  Fe  Fe11      1.0  0.06483  0.36346  0.96248  1.0000
  S   S24       1.0  0.04286  0.38471  0.91881  1.0000
  H   H199      1.0  0.05494  0.16979  0.90651  1.0000
  H   H200      1.0  0.39554  0.46944  0.73973  1.0000
  Fe  Fe12      1.0  0.41022  0.33983  0.95524  1.0000
  S   S25       1.0  0.43490  0.36345  0.91480  1.0000
  H   H201      1.0  0.47164  0.03619  0.87307  1.0000
  C   C252      1.0  0.45172  0.46524  0.79643  1.0000
  C   C253      1.0  0.43270  0.47803  0.77297  1.0000
  H   H202      1.0  0.35362  0.31583  0.87270  1.0000
  H   H203      1.0  0.09698  0.43309  0.93295  1.0000
  H   H204      1.0  0.33768  0.47432  0.73466  1.0000
  C   C254      1.0  0.46522  0.34068  0.83847  1.0000
  C   C255      1.0  0.26561  0.32230  0.98441  1.0000
  P   P10       1.0  0.17106  0.13788  0.96693  1.0000
  H   H205      1.0  0.28796  0.47695  0.76445  1.0000
  Fe  Fe13      1.0  0.08108  0.30426  0.99843  1.0000
  C   C256      1.0  0.36153  0.40750  0.67619  1.0000
  C   C257      1.0  0.43356  0.40453  0.91186  1.0000
  C   C258      1.0  0.41074  0.42195  0.92779  1.0000
  C   C259      1.0  0.40773  0.45420  0.92201  1.0000
  C   C260      1.0  0.42805  0.46936  0.90096  1.0000
  C   C261      1.0  0.45183  0.45213  0.88618  1.0000
  C   C262      1.0  0.45439  0.41975  0.89141  1.0000
  H   H206      1.0  0.39452  0.41037  0.94349  1.0000
  H   H207      1.0  0.38934  0.46737  0.93357  1.0000
  H   H208      1.0  0.46760  0.46351  0.87000  1.0000
  H   H209      1.0  0.47221  0.40638  0.87920  1.0000
  C   C263      1.0  0.02399  0.47088  0.79008  1.0000
  H   H210      1.0  0.49959  0.26447  0.95465  1.0000
  H   H211      1.0  0.17290  0.00440  0.76065  1.0000
  C   C264      1.0  0.31674  0.01296  0.90041  1.0000
  C   C265      1.0  0.12292  0.17896  0.94857  1.0000
  H   H212      1.0  0.46385  0.42433  0.82276  1.0000
  H   H213      1.0  0.05290  0.18905  0.98815  1.0000
  C   C266      1.0  0.38333  0.34140  0.84061  1.0000
  H   H214      1.0  0.33582  0.36320  0.90117  1.0000
  S   S26       1.0  0.07906  0.25109  0.99714  1.0000
  C   C267      1.0  0.44899  0.43366  0.80427  1.0000
  C   C268      1.0  0.10248  0.49790  0.97933  1.0000
  C   C269      1.0  0.06663  0.04475  0.93211  1.0000
  C   C270      1.0  0.39383  0.40125  0.67794  1.0000
  H   H215      1.0  0.05409  0.45007  0.82540  1.0000
  H   H216      1.0  0.46357  0.07209  0.80252  1.0000
  C   C271      1.0  0.20820  0.32754  0.98229  1.0000
  H   H217      1.0  0.48164  0.14271  0.92361  1.0000
  H   H218      1.0  0.32573  0.44288  0.67351  1.0000
  H   H219      1.0  0.22326  0.23171  0.92243  1.0000
  C   C272      1.0  0.40790  0.35107  0.76741  1.0000
  C   C273      1.0  0.07724  0.16393  0.91755  1.0000
  H   H220      1.0  0.30128  0.02044  0.91923  1.0000
  C   C274      1.0  0.21689  0.10796  0.93009  1.0000
  C   C275      1.0  0.47795  0.18400  0.98638  1.0000
  C   C276      1.0  0.09432  0.18671  0.93404  1.0000
  C   C277      1.0  0.05774  0.46124  0.94794  1.0000
  C   C278      1.0  0.05312  0.06852  0.95042  1.0000
  H   H221      1.0  0.33789  0.33031  0.73316  1.0000
  C   C279      1.0  0.50268  0.00394  0.98215  1.0000
  C   C280      1.0  0.36193  0.33868  0.86543  1.0000
  H   H222      1.0  0.49512  0.02593  0.99219  1.0000
  H   H223      1.0  0.15136  0.27455  0.00010  1.0000
  C   C281      1.0  0.02132  0.07678  0.94616  1.0000
  H   H224      1.0  0.18431  0.18855  0.92197  1.0000
  H   H225      1.0  0.39042  0.41340  0.75284  1.0000
  C   C282      1.0  0.50005  0.48201  0.72300  1.0000
  S   S27       1.0  0.44230  0.31908  0.99157  1.0000
  C   C283      1.0  0.41051  0.45927  0.75752  1.0000
  H   H226      1.0  0.48646  0.49591  0.70656  1.0000
  C   C284      1.0  0.46138  0.35951  0.81169  1.0000
  H   H227      1.0  0.49765  0.31419  0.86689  1.0000
  C   C285      1.0  0.41616  0.31643  0.72270  1.0000
  C   C286      1.0  0.38360  0.31477  0.71768  1.0000
  C   C287      1.0  0.19842  0.17041  0.96749  1.0000
  H   H228      1.0  0.44054  0.42109  0.67928  1.0000
  C   C288      1.0  0.11214  0.47199  0.96172  1.0000
  H   H229      1.0  0.03276  0.01571  0.82405  1.0000
  Fe  Fe14      1.0  0.12688  0.35954  0.99912  1.0000
  C   C289      1.0  0.49150  0.40124  0.99130  1.0000
  C   C290      1.0  0.50684  0.45060  0.71601  1.0000
  C   C291      1.0  0.20003  0.19119  0.94197  1.0000
  S   S28       1.0  0.10562  0.03312  0.93997  1.0000
  C   C292      1.0  0.42708  0.41449  0.78857  1.0000
  C   C293      1.0  0.42832  0.33465  0.74731  1.0000
  H   H230      1.0  0.34780  0.05272  0.90455  1.0000
  C   C294      1.0  0.22224  0.21549  0.94199  1.0000
  Fe  Fe15      1.0  0.35058  0.31308  0.98556  1.0000
  C   C295      1.0  0.08880  0.13341  0.91554  1.0000
  H   H231      1.0  0.50050  0.35889  0.92096  1.0000
  C   C296      1.0  0.41835  0.10788  0.00084  1.0000
  C   C297      1.0  0.03461  0.20391  0.99756  1.0000
  H   H232      1.0  0.08515  0.21034  0.93611  1.0000
  H   H233      1.0  0.40218  0.37729  0.67837  1.0000
  H   H234      1.0  0.46231  0.01542  0.81992  1.0000
  C   C298      1.0  0.37522  0.34979  0.76173  1.0000
  C   C299      1.0  0.34289  0.03107  0.89213  1.0000
  C   C300      1.0  0.36315  0.33164  0.73702  1.0000
  H   H235      1.0  0.37426  0.30018  0.69898  1.0000
  H   H236      1.0  0.35903  0.36254  0.77666  1.0000
  H   H237      1.0  0.46865  0.47986  0.80852  1.0000
  H   H238      1.0  0.46229  0.16864  0.97343  1.0000
  C   C301      1.0  0.08975  0.45378  0.94589  1.0000
  C   C302      1.0  0.49499  0.32895  0.84643  1.0000
  Fe  Fe16      1.0  0.41250  0.27598  0.98794  1.0000
  C   C303      1.0  0.26785  0.35270  0.99650  1.0000
  C   C304      1.0  0.35184  0.36539  0.88148  1.0000
  C   C305      1.0  0.46443  0.05360  0.93238  1.0000
  C   C306      1.0  0.43990  0.07450  0.92515  1.0000
  C   C307      1.0  0.44607  0.10653  0.92193  1.0000
  C   C308      1.0  0.01690  0.03855  0.90424  1.0000
  P   P11       1.0  0.42299  0.37404  0.79998  1.0000
  H   H239      1.0  0.01869  0.40481  0.83441  1.0000
  H   H240      1.0  0.04054  0.44611  0.93685  1.0000
  H   H241      1.0  0.44545  0.33499  0.85337  1.0000
  C   C309      1.0  0.39524  0.37088  0.83202  1.0000
  C   C310      1.0  0.17676  0.07436  0.95233  1.0000
  H   H242      1.0  0.43208  0.30333  0.70766  1.0000
  C   C311      1.0  0.46765  0.21409  0.99462  1.0000
  H   H243      1.0  0.45362  0.33538  0.75064  1.0000
  C   C312      1.0  0.21816  0.05200  0.92032  1.0000
  C   C313      1.0  0.40771  0.42753  0.76514  1.0000
  C   C314      1.0  0.48681  0.07593  0.81254  1.0000
  H   H244      1.0  0.39114  0.32046  0.82857  1.0000
  H   H245      1.0  0.39403  0.42063  0.84270  1.0000
  C   C315      1.0  0.38488  0.39763  0.84822  1.0000
  H   H246      1.0  0.01935  0.20933  0.93009  1.0000
  H   H247      1.0  0.43539  0.50248  0.76683  1.0000
  C   C316      1.0  0.23112  0.08182  0.91618  1.0000
  H   H248      1.0  0.41597  0.06600  0.92217  1.0000
  H   H249      1.0  0.42704  0.12269  0.91681  1.0000
  H   H250      1.0  0.35573  0.41549  0.88552  1.0000
  S   S29       1.0  0.38339  0.29508  0.94825  1.0000
  C   C317      1.0  0.36305  0.39484  0.87264  1.0000
  C   C318      1.0  0.41546  0.42593  0.67845  1.0000
  H   H251      1.0  0.22725  0.13081  0.92637  1.0000
  H   H252      1.0  0.25207  0.08468  0.90197  1.0000
  C   C319      1.0  0.19095  0.04832  0.93830  1.0000
  S   S30       1.0  0.42928  0.22578  0.98349  1.0000
  H   H253      1.0  0.05889  0.01168  0.89457  1.0000
  C   C320      1.0  0.24228  0.19796  0.99230  1.0000
  H   H254      1.0  0.44262  0.03296  0.00041  1.0000
  H   H255      1.0  0.13687  0.46553  0.96090  1.0000
  H   H256      1.0  0.03960  0.49057  0.78603  1.0000
  C   C321      1.0  0.13483  0.14829  0.94665  1.0000
  H   H257      1.0  0.23365  0.28661  0.96763  1.0000
  H   H258      1.0  0.40264  0.03283  0.68053  1.0000
  H   H259      1.0  0.38339  0.03482  0.86186  1.0000
  H   H260      1.0  0.40990  0.09670  0.97959  1.0000
  H   H261      1.0  0.07537  0.11559  0.90308  1.0000
  H   H262      1.0  0.18536  0.31793  0.97622  1.0000
  C   C322      1.0  0.04776  0.48739  0.96510  1.0000
  H   H263      1.0  0.13534  0.19694  0.96165  1.0000
  C   C323      1.0  0.42128  0.02288  0.99070  1.0000
  H   H264      1.0  0.01343  0.26566  0.94222  1.0000
  C   C324      1.0  0.48796  0.36692  0.79353  1.0000
  C   C325      1.0  0.22005  0.17370  0.99245  1.0000
  C   C326      1.0  0.36289  0.02101  0.86809  1.0000
  C   C327      1.0  0.18958  0.10440  0.94841  1.0000
  S   S31       1.0  0.29926  0.29863  0.97823  1.0000
  C   C328      1.0  0.49534  0.06508  0.93529  1.0000
  H   H265      1.0  0.49866  0.44032  0.69418  1.0000
  H   H266      1.0  0.12540  0.10164  0.92821  1.0000
  H   H267      1.0  0.15552  0.07115  0.96601  1.0000
  C   C329      1.0  0.11741  0.12557  0.92998  1.0000
  H   H268      1.0  0.46997  0.10389  0.85123  1.0000
  H   H269      1.0  0.22894  0.03166  0.90944  1.0000
  S   S32       1.0  0.03830  0.33523  0.99803  1.0000
  C   C330      1.0  0.24339  0.21883  0.96710  1.0000
  S   S33       1.0  0.37531  0.35980  0.98949  1.0000
  C   C331      1.0  0.23568  0.30988  0.97732  1.0000
  C   C332      1.0  0.21036  0.35772  0.99475  1.0000
  C   C333      1.0  0.29027  0.48981  0.74262  1.0000
  H   H270      1.0  0.46743  0.09837  0.99167  1.0000
  H   H271      1.0  0.01094  0.09484  0.96059  1.0000
  H   H272      1.0  0.26087  0.23746  0.96693  1.0000
  H   H273      1.0  0.48111  0.38301  0.97686  1.0000
  C   C334      1.0  0.04134  0.23531  0.00487  1.0000
  H   H274      1.0  0.04359  0.00547  0.97731  1.0000
  H   H275      1.0  0.48561  0.38153  0.77284  1.0000
  H   H276      1.0  0.47863  0.30545  0.91926  1.0000
  S   S34       1.0  0.08746  0.39473  0.99865  1.0000
  C   C335      1.0  0.03223  0.44806  0.81218  1.0000
  C   C336      1.0  0.31843  0.48838  0.72565  1.0000
  C   C337      1.0  0.42074  0.00996  0.96027  1.0000
  C   C338      1.0  0.40491  0.45688  0.67722  1.0000
  C   C339      1.0  0.36594  0.01048  0.99746  1.0000
  C   C340      1.0  0.50137  0.09713  0.93242  1.0000
  C   C341      1.0  0.35084  0.43845  0.67522  1.0000
  C   C342      1.0  0.37245  0.46343  0.67630  1.0000
  C   C343      1.0  0.49043  0.09396  0.83978  1.0000
  C   C344      1.0  0.45952  0.01404  0.87043  1.0000
  S   S35       1.0  0.17623  0.38035  0.00176  1.0000
  C   C345      1.0  0.24026  0.37029  0.00176  1.0000
  H   H277      1.0  0.29076  0.36256  0.00193  1.0000
  H   H278      1.0  0.12037  0.02413  0.68114  1.0000
  C   C346      1.0  0.01229  0.42251  0.81721  1.0000
  C   C347      1.0  0.49816  0.31078  0.93494  1.0000
  H   H279      1.0  0.15359  0.02145  0.99217  1.0000
  H   H280      1.0  0.34482  0.38831  0.67526  1.0000
  P   P12       1.0  0.45584  0.01231  0.93610  1.0000
  S   S36       1.0  0.49810  0.02977  0.71481  1.0000
  C   C348      1.0  0.01123  0.01187  0.77807  1.0000
  P   P13       1.0  0.35837  0.50339  0.67582  1.0000
  H   H281      1.0  0.02703  0.44070  0.00508  1.0000
  C   C349      1.0  0.09750  0.01541  0.67359  1.0000
  H   H282      1.0  0.38403  0.89630  0.29348  1.0000
  C   C350      1.0  0.45694  0.98683  0.20964  1.0000
  S   S37       1.0  0.42414  0.92880  0.10942  1.0000
  Fe  Fe17      1.0  0.33902  0.93559  0.07647  1.0000
  S   S38       1.0  0.36014  0.88954  0.09060  1.0000
  S   S39       1.0  0.28747  0.93811  0.06279  1.0000
  Fe  Fe18      1.0  0.37890  0.91511  0.13284  1.0000
  S   S40       1.0  0.37963  0.88772  0.17838  1.0000
  Fe  Fe19      1.0  0.40359  0.90664  0.06625  1.0000
  S   S41       1.0  0.43604  0.87438  0.04007  1.0000
  S   S42       1.0  0.35446  0.96019  0.12083  1.0000
  S   S43       1.0  0.38096  0.95054  0.04818  1.0000
  S   S44       1.0  0.07112  0.86776  0.10400  1.0000
  H   H283      1.0  0.38422  0.86728  0.24262  1.0000
  C   C351      1.0  0.39682  0.79537  0.05170  1.0000
  C   C352      1.0  0.27369  0.94098  0.02377  1.0000
  H   H284      1.0  0.50538  0.77820  0.01226  1.0000
  H   H285      1.0  0.44387  0.91821  0.30966  1.0000
  C   C353      1.0  0.46456  0.91227  0.18345  1.0000
  H   H286      1.0  0.05454  0.69650  0.12438  1.0000
  H   H287      1.0  0.01796  0.60560  0.28939  1.0000
  H   H288      1.0  0.44162  0.78274  0.03084  1.0000
  Fe  Fe20      1.0  0.02114  0.86596  0.12221  1.0000
  H   H289      1.0  0.01885  0.71413  0.18489  1.0000
  C   C354      1.0  0.44083  0.98795  0.18075  1.0000
  H   H290      1.0  0.38939  0.82808  0.12472  1.0000
  H   H291      1.0  0.06988  0.79354  0.14502  1.0000
  P   P14       1.0  0.49181  0.96312  0.21425  1.0000
  C   C355      1.0  0.07589  0.87053  0.06286  1.0000
  C   C356      1.0  0.10173  0.88702  0.05054  1.0000
  H   H292      1.0  0.37108  0.98236  0.24327  1.0000
  C   C357      1.0  0.05482  0.85564  0.04227  1.0000
  H   H293      1.0  0.11825  0.89840  0.06633  1.0000
  C   C358      1.0  0.05634  0.72859  0.01910  1.0000
  C   C359      1.0  0.03885  0.81582  0.29390  1.0000
  H   H294      1.0  0.47329  0.79855  0.07689  1.0000
  C   C360      1.0  0.46435  0.88685  0.16266  1.0000
  C   C361      1.0  0.01229  0.95168  0.22488  1.0000
  H   H295      1.0  0.44296  0.87323  0.15953  1.0000
  C   C362      1.0  0.35000  0.84497  0.01695  1.0000
  C   C363      1.0  0.07753  0.98138  0.11358  1.0000
  H   H296      1.0  0.44247  0.94390  0.25806  1.0000
  H   H297      1.0  0.33234  0.89220  0.01848  1.0000
  C   C364      1.0  0.37783  0.94134  0.27171  1.0000
  C   C365      1.0  0.37422  0.95729  0.24314  1.0000
  C   C366      1.0  0.37454  0.94102  0.21443  1.0000
  C   C367      1.0  0.37820  0.90856  0.21415  1.0000
  C   C368      1.0  0.38138  0.89244  0.24275  1.0000
  C   C369      1.0  0.38117  0.90878  0.27154  1.0000
  C   C370      1.0  0.06216  0.60222  0.08351  1.0000
  P   P15       1.0  0.07519  0.99345  0.07302  1.0000
  C   C371      1.0  0.44786  0.80061  0.07755  1.0000
  C   C372      1.0  0.08144  0.93962  0.15210  1.0000
  H   H298      1.0  0.08546  0.60737  0.03898  1.0000
  H   H299      1.0  0.33251  0.69899  0.08661  1.0000
  C   C373      1.0  0.05283  0.84440  0.30187  1.0000
  H   H300      1.0  0.08054  0.96312  0.01030  1.0000
  C   C374      1.0  0.03634  0.66160  0.07168  1.0000
  H   H301      1.0  0.07701  0.73734  0.15836  1.0000
  C   C375      1.0  0.49178  0.93068  0.18697  1.0000
  S   S45       1.0  0.03471  0.52466  0.11331  1.0000
  C   C376      1.0  0.38242  0.80844  0.07840  1.0000
  C   C377      1.0  0.07734  0.51464  0.30825  1.0000
  C   C378      1.0  0.11436  0.99414  0.05624  1.0000
  C   C379      1.0  0.10605  0.88923  0.01781  1.0000
  C   C380      1.0  0.08243  0.96171  0.17633  1.0000
  C   C381      1.0  0.17495  0.99510  0.02967  1.0000
  C   C382      1.0  0.06975  0.61812  0.05586  1.0000
  C   C383      1.0  0.02459  0.97998  0.23664  1.0000
  C   C384      1.0  0.05093  0.72067  0.11800  1.0000
  H   H302      1.0  0.03500  0.84271  0.05142  1.0000
  C   C385      1.0  0.35015  0.73595  0.05706  1.0000
  C   C386      1.0  0.04194  0.61598  0.10535  1.0000
  H   H303      1.0  0.35756  0.74996  0.07697  1.0000
  S   S46       1.0  0.38052  0.96343  0.30663  1.0000
  H   H304      1.0  0.07174  0.57911  0.08802  1.0000
  C   C387      1.0  0.05970  0.85700  0.00965  1.0000
  C   C388      1.0  0.32653  0.86779  0.01450  1.0000
  C   C389      1.0  0.16979  0.97940  0.05797  1.0000
  H   H305      1.0  0.49064  0.86078  0.12822  1.0000
  C   C390      1.0  0.06392  0.74387  0.13745  1.0000
  C   C391      1.0  0.03359  0.72893  0.09100  1.0000
  C   C392      1.0  0.07921  0.94945  0.12086  1.0000
  H   H306      1.0  0.12567  0.90246  0.00849  1.0000
  H   H307      1.0  0.01783  0.94415  0.20125  1.0000
  C   C393      1.0  0.40059  0.81736  0.10446  1.0000
  C   C394      1.0  0.05982  0.77545  0.13009  1.0000
  H   H308      1.0  0.07813  0.84742  0.29984  1.0000
  H   H309      1.0  0.37386  0.85207  0.02272  1.0000
  H   H310      1.0  0.07892  0.93214  0.10227  1.0000
  H   H311      1.0  0.18913  0.96723  0.06941  1.0000
  H   H312      1.0  0.31483  0.66582  0.04189  1.0000
  C   C395      1.0  0.04802  0.51512  0.29307  1.0000
  H   H313      1.0  0.44332  0.91773  0.19646  1.0000
  H   H314      1.0  0.37184  0.95357  0.19254  1.0000
  C   C396      1.0  0.05936  0.95500  0.02173  1.0000
  C   C397      1.0  0.49470  0.91526  0.31136  1.0000
  C   C398      1.0  0.04267  0.78385  0.10335  1.0000
  H   H315      1.0  0.35714  0.81214  0.07901  1.0000
  C   C399      1.0  0.49330  0.94575  0.25291  1.0000
  H   H316      1.0  0.03969  0.80832  0.09762  1.0000
  H   H317      1.0  0.44727  0.82081  0.12407  1.0000
  C   C400      1.0  0.42975  0.79168  0.05140  1.0000
  C   C401      1.0  0.02877  0.64536  0.09932  1.0000
  H   H318      1.0  0.49165  0.50691  0.24492  1.0000
  H   H319      1.0  0.05332  0.79659  0.28576  1.0000
  H   H320      1.0  0.44862  0.97415  0.16089  1.0000
  C   C402      1.0  0.48045  0.99739  0.09383  1.0000
  P   P16       1.0  0.01868  0.69939  0.06408  1.0000
  C   C403      1.0  0.05707  0.64780  0.04999  1.0000
  H   H321      1.0  0.08400  0.95405  0.20058  1.0000
  H   H322      1.0  0.08232  0.91480  0.15739  1.0000
  C   C404      1.0  0.46513  0.93851  0.26858  1.0000
  H   H323      1.0  0.12033  0.52675  0.20906  1.0000
  C   C405      1.0  0.46585  0.92357  0.29778  1.0000
  C   C406      1.0  0.13963  0.97882  0.07120  1.0000
  S   S47       1.0  0.00832  0.83801  0.16524  1.0000
  C   C407      1.0  0.02965  0.76081  0.08386  1.0000
  H   H324      1.0  0.07266  0.73367  0.03814  1.0000
  C   C408      1.0  0.32590  0.68827  0.03749  1.0000
  C   C409      1.0  0.05094  0.96548  0.05187  1.0000
  H   H325      1.0  0.47113  0.97696  0.10540  1.0000
  C   C410      1.0  0.43327  0.81338  0.10405  1.0000
  H   H326      1.0  0.05123  0.95271  0.31901  1.0000
  Fe  Fe21      1.0  0.39833  0.97158  0.09349  1.0000
  H   H327      1.0  0.13621  0.96604  0.09286  1.0000
  H   H328      1.0  0.03622  0.60370  0.12690  1.0000
  C   C411      1.0  0.33589  0.70694  0.06267  1.0000
  H   H329      1.0  0.06337  0.65969  0.02848  1.0000
  H   H330      1.0  0.22560  0.93264  0.03761  1.0000
  C   C412      1.0  0.07333  0.51683  0.19246  1.0000
  H   H331      1.0  0.06907  0.54049  0.18431  1.0000
  C   C413      1.0  0.01332  0.92137  0.01998  1.0000
  H   H332      1.0  0.01701  0.76803  0.06293  1.0000
  P   P17       1.0  0.37288  0.78393  0.01825  1.0000
  C   C414      1.0  0.02357  0.95336  0.06592  1.0000
  C   C415      1.0  0.49124  0.87972  0.14518  1.0000
  C   C416      1.0  0.24126  0.93746  0.01818  1.0000
  H   H333      1.0  0.45813  0.98050  0.33574  1.0000
  H   H334      1.0  0.19820  0.99493  0.01909  1.0000
  C   C417      1.0  0.03408  0.86934  0.31181  1.0000
  H   H335      1.0  0.49509  0.90332  0.33381  1.0000
  C   C418      1.0  0.02889  0.55316  0.33117  1.0000
  H   H336      1.0  0.09392  0.99199  0.32242  1.0000
  H   H337      1.0  0.01262  0.65545  0.11623  1.0000
  H   H338      1.0  0.03941  0.99429  0.22195  1.0000
  C   C419      1.0  0.35457  0.74648  0.02611  1.0000
  H   H339      1.0  0.49252  0.65110  0.01137  1.0000
  C   C420      1.0  0.02826  0.71199  0.02469  1.0000
  H   H340      1.0  0.04484  0.89169  0.31714  1.0000
  H   H341      1.0  0.01678  0.96052  0.08936  1.0000
  C   C421      1.0  0.34252  0.81318  0.01304  1.0000
  C   C422      1.0  0.08259  0.53352  0.33468  1.0000
  C   C423      1.0  0.02389  0.53423  0.30452  1.0000
  C   C424      1.0  0.50483  0.52022  0.12660  1.0000
  C   C425      1.0  0.01792  0.98990  0.26737  1.0000
  C   C426      1.0  0.10228  0.50899  0.20615  1.0000
  C   C427      1.0  0.08114  0.99363  0.16925  1.0000
  C   C428      1.0  0.29543  0.85909  0.00789  1.0000
  H   H342      1.0  0.44117  0.62385  0.00990  1.0000
  C   C429      1.0  0.07858  0.00349  0.13797  1.0000
  H   H343      1.0  0.50777  0.53580  0.10670  1.0000
  H   H344      1.0  0.27716  0.87679  0.00655  1.0000
  C   C430      1.0  0.33006  0.69863  0.00663  1.0000
  Fe  Fe22      1.0  0.39672  0.89544  0.40618  1.0000
  S   S48       1.0  0.41749  0.84901  0.42059  1.0000
  Fe  Fe23      1.0  0.33593  0.93130  0.41267  1.0000
  S   S49       1.0  0.28515  0.92610  0.42785  1.0000
  S   S50       1.0  0.35395  0.89916  0.37488  1.0000
  S   S51       1.0  0.37723  0.92487  0.44533  1.0000
  Fe  Fe24      1.0  0.42346  0.63610  0.51544  1.0000
  S   S52       1.0  0.39929  0.62064  0.47113  1.0000
  S   S53       1.0  0.43661  0.68670  0.52335  1.0000
  Fe  Fe25      1.0  0.41808  0.57237  0.54525  1.0000
  S   S54       1.0  0.39345  0.55118  0.50358  1.0000
  S   S55       1.0  0.43308  0.54878  0.59028  1.0000
  Fe  Fe26      1.0  0.42903  0.57759  0.47490  1.0000
  S   S56       1.0  0.44681  0.55421  0.43072  1.0000
  Fe  Fe27      1.0  0.36521  0.59563  0.50253  1.0000
  S   S57       1.0  0.31508  0.59640  0.48396  1.0000
  S   S58       1.0  0.45638  0.59500  0.51682  1.0000
  S   S59       1.0  0.38682  0.61489  0.54686  1.0000
  Fe  Fe28      1.0  0.14009  0.59974  0.54128  1.0000
  S   S60       1.0  0.12264  0.62463  0.49799  1.0000
  S   S61       1.0  0.18883  0.60217  0.56360  1.0000
  Fe  Fe29      1.0  0.07339  0.57788  0.55888  1.0000
  S   S62       1.0  0.05061  0.60144  0.51768  1.0000
  S   S63       1.0  0.04763  0.54667  0.59271  1.0000
  Fe  Fe30      1.0  0.09182  0.58194  0.49082  1.0000
  S   S64       1.0  0.08018  0.56032  0.44360  1.0000
  Fe  Fe31      1.0  0.08311  0.64159  0.52864  1.0000
  S   S65       1.0  0.07132  0.69291  0.53344  1.0000
  S   S66       1.0  0.11258  0.55571  0.53149  1.0000
  S   S67       1.0  0.10246  0.61953  0.57245  1.0000
  Fe  Fe32      1.0  0.20453  0.95574  0.58663  1.0000
  S   S68       1.0  0.25522  0.95571  0.57049  1.0000
  Fe  Fe33      1.0  0.14525  0.91809  0.59823  1.0000
  S   S69       1.0  0.12171  0.87153  0.58791  1.0000
  S   S70       1.0  0.16131  0.94699  0.55726  1.0000
  S   S71       1.0  0.19053  0.92336  0.62569  1.0000
  C   C431      1.0  0.08149  0.87524  0.57796  1.0000
  C   C432      1.0  0.06588  0.90349  0.58322  1.0000
  C   C433      1.0  0.06463  0.84976  0.56541  1.0000
  H   H345      1.0  0.07854  0.92347  0.59195  1.0000
  H   H346      1.0  0.07656  0.82783  0.56102  1.0000
  H   H347      1.0  0.11192  0.70356  0.62914  1.0000
  H   H348      1.0  0.10515  0.53286  0.34681  1.0000
  H   H349      1.0  0.04037  0.75148  0.54291  1.0000
  C   C434      1.0  0.32115  0.85294  0.44989  1.0000
  C   C435      1.0  0.03211  0.85255  0.55888  1.0000
  Fe  Fe34      1.0  0.37762  0.94199  0.35510  1.0000
  C   C436      1.0  0.05856  0.55289  0.34600  1.0000
  H   H350      1.0  0.18873  0.78248  0.34883  1.0000
  C   C437      1.0  0.34300  0.83314  0.46432  1.0000
  C   C438      1.0  0.28041  0.59830  0.50670  1.0000
  C   C439      1.0  0.28142  0.60063  0.53948  1.0000
  C   C440      1.0  0.25312  0.60183  0.55666  1.0000
  C   C441      1.0  0.22374  0.60071  0.54118  1.0000
  C   C442      1.0  0.22278  0.59879  0.50839  1.0000
  C   C443      1.0  0.25105  0.59760  0.49124  1.0000
  H   H351      1.0  0.30391  0.60150  0.55153  1.0000
  H   H352      1.0  0.25396  0.60346  0.58204  1.0000
  H   H353      1.0  0.20029  0.59800  0.49627  1.0000
  H   H354      1.0  0.25015  0.59589  0.46586  1.0000
  C   C444      1.0  0.48761  0.55357  0.42363  1.0000
  H   H355      1.0  0.12289  0.99985  0.37277  1.0000
  H   H356      1.0  0.35553  0.56547  0.64703  1.0000
  H   H357      1.0  0.11006  0.51016  0.47971  1.0000
  H   H358      1.0  0.45917  0.61738  0.36781  1.0000
  C   C445      1.0  0.06622  0.85436  0.41235  1.0000
  H   H359      1.0  0.12402  0.90018  0.52719  1.0000
  H   H360      1.0  0.07624  0.91254  0.49742  1.0000
  H   H361      1.0  0.17715  0.89365  0.44170  1.0000
  C   C446      1.0  0.48660  0.72721  0.52505  1.0000
  C   C447      1.0  0.47676  0.69630  0.51986  1.0000
  H   H362      1.0  0.30643  0.76849  0.51462  1.0000
  H   H363      1.0  0.46940  0.74496  0.53075  1.0000
  C   C448      1.0  0.15595  0.76043  0.59513  1.0000
  C   C449      1.0  0.27729  0.93396  0.46765  1.0000
  C   C450      1.0  0.26298  0.94782  0.53070  1.0000
  C   C451      1.0  0.24028  0.93381  0.51130  1.0000
  C   C452      1.0  0.24755  0.92663  0.47992  1.0000
  H   H364      1.0  0.21726  0.92833  0.52054  1.0000
  H   H365      1.0  0.22999  0.91571  0.46499  1.0000
  C   C453      1.0  0.45873  0.84632  0.41716  1.0000
  C   C454      1.0  0.47535  0.82466  0.43555  1.0000
  H   H366      1.0  0.43509  0.61438  0.61459  1.0000
  C   C455      1.0  0.47530  0.86625  0.39708  1.0000
  H   H367      1.0  0.46274  0.80859  0.45050  1.0000
  H   H368      1.0  0.01048  0.80091  0.39111  1.0000
  H   H369      1.0  0.46264  0.88230  0.38212  1.0000
  C   C456      1.0  0.35181  0.51611  0.63581  1.0000
  H   H370      1.0  0.46718  0.50713  0.63020  1.0000
  C   C457      1.0  0.39488  0.77030  0.42259  1.0000
  H   H371      1.0  0.17493  0.89182  0.49989  1.0000
  C   C458      1.0  0.46059  0.64244  0.41162  1.0000
  H   H372      1.0  0.46577  0.74214  0.39799  1.0000
  C   C459      1.0  0.18086  0.81063  0.39019  1.0000
  C   C460      1.0  0.18355  0.78238  0.37379  1.0000
  C   C461      1.0  0.17917  0.75400  0.38950  1.0000
  C   C462      1.0  0.17252  0.75380  0.42170  1.0000
  C   C463      1.0  0.17088  0.78207  0.43855  1.0000
  C   C464      1.0  0.17416  0.81051  0.42237  1.0000
  P   P18       1.0  0.16115  0.78234  0.47982  1.0000
  C   C465      1.0  0.17118  0.74521  0.49757  1.0000
  C   C466      1.0  0.18465  0.81135  0.50044  1.0000
  C   C467      1.0  0.17449  0.82334  0.52941  1.0000
  C   C468      1.0  0.19293  0.84526  0.54576  1.0000
  C   C469      1.0  0.22173  0.85524  0.53341  1.0000
  C   C470      1.0  0.23233  0.84303  0.50484  1.0000
  C   C471      1.0  0.21410  0.82086  0.48860  1.0000
  C   C472      1.0  0.20069  0.73153  0.49151  1.0000
  C   C473      1.0  0.20823  0.70221  0.50411  1.0000
  C   C474      1.0  0.18662  0.68664  0.52327  1.0000
  C   C475      1.0  0.15761  0.70049  0.53011  1.0000
  C   C476      1.0  0.14996  0.72979  0.51759  1.0000
  C   C477      1.0  0.11909  0.78944  0.48065  1.0000
  C   C478      1.0  0.09815  0.76574  0.47094  1.0000
  C   C479      1.0  0.06566  0.77136  0.46982  1.0000
  C   C480      1.0  0.05379  0.80064  0.47832  1.0000
  C   C481      1.0  0.07445  0.82451  0.48745  1.0000
  C   C482      1.0  0.10699  0.81905  0.48829  1.0000
  H   H373      1.0  0.18386  0.83265  0.37790  1.0000
  C   C483      1.0  0.48754  0.93803  0.44296  1.0000
  H   H374      1.0  0.18074  0.73209  0.37668  1.0000
  H   H375      1.0  0.16849  0.73159  0.43326  1.0000
  H   H376      1.0  0.17158  0.83256  0.43468  1.0000
  H   H377      1.0  0.15215  0.81602  0.53923  1.0000
  H   H378      1.0  0.18472  0.85483  0.56791  1.0000
  H   H379      1.0  0.23573  0.87259  0.54595  1.0000
  H   H380      1.0  0.25470  0.85085  0.49529  1.0000
  H   H381      1.0  0.22317  0.81120  0.46691  1.0000
  H   H382      1.0  0.21764  0.74323  0.47658  1.0000
  H   H383      1.0  0.23062  0.69120  0.49873  1.0000
  H   H384      1.0  0.04159  0.64598  0.59440  1.0000
  H   H385      1.0  0.14080  0.68827  0.54486  1.0000
  H   H386      1.0  0.12735  0.73999  0.52350  1.0000
  H   H387      1.0  0.10685  0.74279  0.46445  1.0000
  H   H388      1.0  0.04957  0.75280  0.46289  1.0000
  C   C484      1.0  0.03911  0.99187  0.65355  1.0000
  H   H389      1.0  0.06516  0.84724  0.49394  1.0000
  H   H390      1.0  0.12250  0.83800  0.49483  1.0000
  H   H391      1.0  0.31058  0.96548  0.53354  1.0000
  C   C485      1.0  0.47821  0.51322  0.51575  1.0000
  C   C486      1.0  0.12762  0.90423  0.43629  1.0000
  H   H392      1.0  0.33264  0.54457  0.55087  1.0000
  C   C487      1.0  0.38564  0.79589  0.51401  1.0000
  C   C488      1.0  0.03161  0.77273  0.62937  1.0000
  C   C489      1.0  0.33900  0.80056  0.46289  1.0000
  Fe  Fe35      1.0  0.13982  0.98695  0.58366  1.0000
  H   H393      1.0  0.31029  0.76303  0.44367  1.0000
  H   H394      1.0  0.14360  0.80925  0.59330  1.0000
  C   C490      1.0  0.13623  0.78607  0.60032  1.0000
  C   C491      1.0  0.50027  0.52952  0.40512  1.0000
  C   C492      1.0  0.01637  0.88046  0.56611  1.0000
  C   C493      1.0  0.37423  0.79404  0.54491  1.0000
  C   C494      1.0  0.31330  0.78813  0.44593  1.0000
  H   H395      1.0  0.04733  0.98456  0.43574  1.0000
  C   C495      1.0  0.43441  0.50773  0.59139  1.0000
  C   C496      1.0  0.46928  0.88956  0.64288  1.0000
  C   C497      1.0  0.34515  0.74100  0.49627  1.0000
  H   H396      1.0  0.27557  0.72265  0.53222  1.0000
  C   C498      1.0  0.41185  0.81505  0.50777  1.0000
  C   C499      1.0  0.42680  0.83153  0.53205  1.0000
  C   C500      1.0  0.41535  0.82953  0.56271  1.0000
  C   C501      1.0  0.35654  0.71046  0.49168  1.0000
  C   C502      1.0  0.33872  0.68466  0.50142  1.0000
  C   C503      1.0  0.30957  0.68903  0.51594  1.0000
  C   C504      1.0  0.29815  0.71930  0.52085  1.0000
  C   C505      1.0  0.31578  0.74519  0.51098  1.0000
  H   H397      1.0  0.42047  0.81760  0.48399  1.0000
  H   H398      1.0  0.44709  0.84609  0.52695  1.0000
  C   C506      1.0  0.02599  0.73772  0.52693  1.0000
  H   H399      1.0  0.37898  0.70623  0.48044  1.0000
  H   H400      1.0  0.34739  0.66111  0.49753  1.0000
  H   H401      1.0  0.29588  0.66883  0.52325  1.0000
  H   H402      1.0  0.36323  0.84342  0.47595  1.0000
  C   C507      1.0  0.36860  0.89729  0.53388  1.0000
  C   C508      1.0  0.33863  0.89903  0.54729  1.0000
  C   C509      1.0  0.33530  0.90872  0.57851  1.0000
  C   C510      1.0  0.36201  0.91619  0.59652  1.0000
  C   C511      1.0  0.39226  0.91447  0.58322  1.0000
  C   C512      1.0  0.39532  0.90501  0.55170  1.0000
  P   P19       1.0  0.42675  0.92411  0.60656  1.0000
  C   C513      1.0  0.47070  0.99326  0.35399  1.0000
  H   H403      1.0  0.17350  0.96004  0.46301  1.0000
  C   C514      1.0  0.49910  0.67347  0.51256  1.0000
  H   H404      1.0  0.23218  0.97163  0.38156  1.0000
  H   H405      1.0  0.06317  0.56697  0.36673  1.0000
  H   H406      1.0  0.46874  0.66864  0.45401  1.0000
  H   H407      1.0  0.47032  0.72989  0.45489  1.0000
  C   C515      1.0  0.41823  0.95799  0.63063  1.0000
  H   H408      1.0  0.31189  0.91110  0.58851  1.0000
  C   C516      1.0  0.45848  0.93367  0.57996  1.0000
  C   C517      1.0  0.46139  0.96404  0.56779  1.0000
  H   H409      1.0  0.16220  0.71081  0.60159  1.0000
  C   C518      1.0  0.15376  0.89648  0.48639  1.0000
  C   C519      1.0  0.12520  0.90160  0.50182  1.0000
  C   C520      1.0  0.38890  0.81105  0.56910  1.0000
  H   H410      1.0  0.37111  0.89048  0.50947  1.0000
  H   H411      1.0  0.31788  0.89362  0.53327  1.0000
  H   H412      1.0  0.01358  0.92473  0.64588  1.0000
  C   C521      1.0  0.45588  0.84261  0.67172  1.0000
  H   H413      1.0  0.41821  0.90386  0.54059  1.0000
  H   H414      1.0  0.46837  0.52555  0.53566  1.0000
  H   H415      1.0  0.47196  0.95392  0.43075  1.0000
  H   H416      1.0  0.18854  0.94418  0.40864  1.0000
  C   C522      1.0  0.02844  0.65451  0.41446  1.0000
  H   H417      1.0  0.38681  0.98915  0.48974  1.0000
  C   C523      1.0  0.03276  0.97114  0.45159  1.0000
  C   C524      1.0  0.50531  0.63684  0.37693  1.0000
  H   H418      1.0  0.44522  0.98235  0.57459  1.0000
  C   C525      1.0  0.03540  0.70734  0.51869  1.0000
  C   C526      1.0  0.43811  0.89180  0.63162  1.0000
  P   P20       1.0  0.36676  0.77475  0.48210  1.0000
  C   C527      1.0  0.29546  0.84051  0.43339  1.0000
  H   H419      1.0  0.02145  0.92767  0.58315  1.0000
  H   H420      1.0  0.01645  0.98355  0.64537  1.0000
  S   S72       1.0  0.42196  0.93536  0.38318  1.0000
  H   H421      1.0  0.32451  0.87802  0.45101  1.0000
  C   C528      1.0  0.02068  0.82322  0.39766  1.0000
  H   H422      1.0  0.43697  0.67042  0.59925  1.0000
  C   C529      1.0  0.45862  0.65704  0.60116  1.0000
  H   H423      1.0  0.43773  0.76954  0.58620  1.0000
  H   H424      1.0  0.04918  0.51998  0.39949  1.0000
  C   C530      1.0  0.44658  0.74774  0.41373  1.0000
  H   H425      1.0  0.42700  0.84237  0.58142  1.0000
  C   C531      1.0  0.22513  0.97889  0.40492  1.0000
  C   C532      1.0  0.10497  0.98179  0.37092  1.0000
  Fe  Fe36      1.0  0.16785  0.96585  0.64711  1.0000
  C   C533      1.0  0.30010  0.94768  0.48716  1.0000
  C   C534      1.0  0.15494  0.89753  0.45360  1.0000
  C   C535      1.0  0.03342  0.90592  0.57793  1.0000
  H   H426      1.0  0.49779  0.59579  0.44935  1.0000
  C   C536      1.0  0.45756  0.62547  0.60961  1.0000
  C   C537      1.0  0.04811  0.70723  0.64571  1.0000
  C   C538      1.0  0.02905  0.80421  0.63878  1.0000
  H   H427      1.0  0.38867  0.98042  0.59557  1.0000
  H   H428      1.0  0.32310  0.95343  0.47795  1.0000
  C   C539      1.0  0.29290  0.95469  0.51858  1.0000
  S   S73       1.0  0.12141  0.95768  0.62328  1.0000
  H   H429      1.0  0.49170  0.64976  0.50803  1.0000
  C   C540      1.0  0.01050  0.76097  0.60666  1.0000
  C   C541      1.0  0.48727  0.78000  0.59022  1.0000
  C   C542      1.0  0.47435  0.91348  0.46019  1.0000
  Fe  Fe37      1.0  0.39861  0.96534  0.41955  1.0000
  C   C543      1.0  0.45526  0.76078  0.63304  1.0000
  H   H430      1.0  0.03842  0.61732  0.44715  1.0000
  C   C544      1.0  0.49387  0.89266  0.47640  1.0000
  H   H431      1.0  0.35898  0.92381  0.62064  1.0000
  H   H432      1.0  0.34343  0.58316  0.59320  1.0000
  C   C545      1.0  0.45809  0.77008  0.60168  1.0000
  H   H433      1.0  0.48937  0.78799  0.56613  1.0000
  H   H434      1.0  0.37458  0.78253  0.41322  1.0000
  H   H435      1.0  0.35407  0.77959  0.55044  1.0000
  H   H436      1.0  0.47770  0.88661  0.57840  1.0000
  C   C546      1.0  0.01000  0.60669  0.37266  1.0000
  H   H437      1.0  0.02856  0.80483  0.47778  1.0000
  H   H438      1.0  0.42712  0.74389  0.49098  1.0000
  H   H439      1.0  0.06806  0.80536  0.40043  1.0000
  H   H440      1.0  0.48819  0.69549  0.58714  1.0000
  C   C547      1.0  0.05654  0.93738  0.36708  1.0000
  H   H441      1.0  0.02415  0.66639  0.49128  1.0000
  H   H442      1.0  0.27202  0.79843  0.41793  1.0000
  C   C548      1.0  0.02974  0.62325  0.42388  1.0000
  C   C549      1.0  0.47920  0.65962  0.43263  1.0000
  C   C550      1.0  0.14684  0.73073  0.60537  1.0000
  H   H443      1.0  0.02163  0.57534  0.41094  1.0000
  C   C551      1.0  0.48571  0.97131  0.54693  1.0000
  H   H444      1.0  0.01904  0.83274  0.54971  1.0000
  C   C552      1.0  0.34405  0.55838  0.59837  1.0000
  C   C553      1.0  0.09792  0.90843  0.48469  1.0000
  C   C554      1.0  0.07958  0.51911  0.44014  1.0000
  C   C555      1.0  0.20072  0.96322  0.42032  1.0000
  C   C556      1.0  0.41583  0.86933  0.64098  1.0000
  C   C557      1.0  0.35102  0.54823  0.62885  1.0000
  H   H445      1.0  0.09235  0.80238  0.61875  1.0000
  C   C558      1.0  0.29157  0.80807  0.43131  1.0000
  H   H446      1.0  0.10939  0.96844  0.41933  1.0000
  H   H447      1.0  0.17837  0.76360  0.58340  1.0000
  H   H448      1.0  0.27901  0.85615  0.42175  1.0000
  C   C559      1.0  0.19240  0.97196  0.45086  1.0000
  C   C560      1.0  0.47971  0.91044  0.57010  1.0000
  H   H449      1.0  0.12887  0.90501  0.41086  1.0000
  H   H450      1.0  0.35774  0.51367  0.45255  1.0000
  C   C561      1.0  0.09890  0.90985  0.45175  1.0000
  C   C562      1.0  0.09725  0.96386  0.39729  1.0000
  P   P21       1.0  0.06125  0.74761  0.64680  1.0000
  H   H451      1.0  0.10403  0.87464  0.65689  1.0000
  C   C563      1.0  0.39734  0.76351  0.45481  1.0000
  C   C564      1.0  0.20855  0.99623  0.46603  1.0000
  C   C565      1.0  0.44916  0.74088  0.44574  1.0000
  C   C566      1.0  0.04987  0.69015  0.61755  1.0000
  P   P22       1.0  0.06349  0.91772  0.42932  1.0000
  C   C567      1.0  0.43149  0.96116  0.66084  1.0000
  H   H452      1.0  0.19224  0.66373  0.53271  1.0000
  C   C568      1.0  0.42468  0.74883  0.46617  1.0000
  C   C569      1.0  0.11799  0.72667  0.62068  1.0000
  H   H453      1.0  0.41649  0.53166  0.65310  1.0000
  H   H454      1.0  0.04570  0.81434  0.65532  1.0000
  C   C570      1.0  0.48532  0.60780  0.61070  1.0000
  C   C571      1.0  0.01054  0.51640  0.49655  1.0000
  H   H455      1.0  0.37990  0.80970  0.59286  1.0000
  C   C572      1.0  0.33796  0.53661  0.57453  1.0000
  S   S74       1.0  0.35562  0.97447  0.39019  1.0000
  H   H456      1.0  0.41783  0.76871  0.37755  1.0000
  H   H457      1.0  0.03690  0.92125  0.36548  1.0000
  C   C573      1.0  0.07347  0.94093  0.39531  1.0000
  H   H458      1.0  0.44688  0.94342  0.67046  1.0000
  C   C574      1.0  0.04690  0.88074  0.41650  1.0000
  C   C575      1.0  0.41949  0.76251  0.40219  1.0000
  H   H459      1.0  0.09132  0.85553  0.41668  1.0000
  H   H460      1.0  0.07602  0.92490  0.65960  1.0000
  H   H461      1.0  0.48670  0.90715  0.63683  1.0000
  C   C576      1.0  0.49333  0.97812  0.37254  1.0000
  H   H462      1.0  0.43604  0.63782  0.41679  1.0000
  C   C577      1.0  0.04008  0.65891  0.61631  1.0000
  H   H463      1.0  0.05894  0.70104  0.59651  1.0000
  C   C578      1.0  0.09762  0.75224  0.62523  1.0000
  H   H464      1.0  0.39155  0.87082  0.63323  1.0000
  C   C579      1.0  0.05312  0.82574  0.40300  1.0000
  H   H465      1.0  0.01254  0.73733  0.59792  1.0000
  H   H466      1.0  0.48391  0.58330  0.61695  1.0000
  H   H467      1.0  0.44899  0.91019  0.46035  1.0000
  C   C580      1.0  0.10709  0.78204  0.61503  1.0000
  C   C581      1.0  0.03540  0.93844  0.45345  1.0000
  H   H468      1.0  0.02066  0.62013  0.64209  1.0000
  C   C582      1.0  0.33891  0.50461  0.58120  1.0000
  C   C583      1.0  0.02041  0.59946  0.40318  1.0000
  S   S75       1.0  0.18449  0.99873  0.60953  1.0000
  C   C584      1.0  0.39868  0.98188  0.61901  1.0000
  C   C585      1.0  0.47365  0.63100  0.38387  1.0000
  H   H469      1.0  0.48371  0.87306  0.48885  1.0000
  C   C586      1.0  0.02605  0.66127  0.67130  1.0000
  H   H470      1.0  0.03581  0.67286  0.43055  1.0000
  H   H471      1.0  0.48490  0.51167  0.39551  1.0000
  H   H472      1.0  0.48818  0.99495  0.53818  1.0000
  C   C587      1.0  0.48751  0.67113  0.59418  1.0000
  C   C588      1.0  0.01703  0.68984  0.49766  1.0000
  C   C589      1.0  0.47811  0.86493  0.66264  1.0000
  C   C590      1.0  0.42476  0.84477  0.66087  1.0000
  H   H473      1.0  0.49839  0.95365  0.36829  1.0000
  H   H474      1.0  0.01683  0.68626  0.37693  1.0000
  C   C591      1.0  0.48188  0.76022  0.65263  1.0000
  C   C592      1.0  0.02815  0.64444  0.64316  1.0000
  C   C593      1.0  0.01786  0.66199  0.38422  1.0000
  H   H475      1.0  0.43247  0.75374  0.64208  1.0000
  C   C594      1.0  0.03600  0.69255  0.67264  1.0000
  C   C595      1.0  0.08867  0.97741  0.34260  1.0000
  C   C596      1.0  0.06267  0.50545  0.41526  1.0000
  H   H476      1.0  0.40744  0.82771  0.66837  1.0000
  H   H477      1.0  0.01795  0.89678  0.47681  1.0000
  H   H478      1.0  0.01072  0.54095  0.50288  1.0000
  C   C597      1.0  0.01438  0.87810  0.41046  1.0000
  H   H479      1.0  0.50208  0.86358  0.67156  1.0000
  C   C598      1.0  0.01622  0.92197  0.47467  1.0000
  C   C599      1.0  0.50417  0.91789  0.54952  1.0000
  H   H480      1.0  0.29805  0.53653  0.66490  1.0000
  C   C600      1.0  0.50771  0.52184  0.50414  1.0000
  C   C601      1.0  0.01090  0.98701  0.47024  1.0000
  C   C602      1.0  0.50752  0.57686  0.43558  1.0000
  C   C603      1.0  0.50716  0.94830  0.53789  1.0000
  C   C604      1.0  0.00871  0.63823  0.36334  1.0000
  H   H481      1.0  0.20189  0.00232  0.48975  1.0000
  C   C605      1.0  0.06444  0.95527  0.34072  1.0000
  Fe  Fe38      1.0  0.47321  0.86814  0.86726  1.0000
  S   S76       1.0  0.42708  0.87686  0.89194  1.0000
  S   S77       1.0  0.47701  0.83634  0.82524  1.0000
  Fe  Fe39      1.0  0.12956  0.93919  0.86752  1.0000
  H   H482      1.0  0.44297  0.76666  0.90542  1.0000
  S   S78       1.0  0.11668  0.92199  0.81850  1.0000
  Fe  Fe40      1.0  0.11746  0.91590  0.93416  1.0000
  S   S79       1.0  0.14504  0.95493  0.95664  1.0000
  S   S80       1.0  0.08870  0.87697  0.95609  1.0000
  Fe  Fe41      1.0  0.50269  0.87670  0.80330  1.0000
  Fe  Fe42      1.0  0.18039  0.94697  0.91821  1.0000
  S   S81       1.0  0.23355  0.95015  0.92395  1.0000
  S   S82       1.0  0.09045  0.94785  0.90203  1.0000
  S   S83       1.0  0.15494  0.90499  0.89861  1.0000
  C   C606      1.0  0.40765  0.55645  0.74027  1.0000
  S   S84       1.0  0.46106  0.65231  0.84883  1.0000
  Fe  Fe43      1.0  0.46065  0.53663  0.86862  1.0000
  H   H483      1.0  0.48905  0.95265  0.92188  1.0000
  H   H484      1.0  0.41273  0.86779  0.81937  1.0000
  H   H485      1.0  0.39362  0.90722  0.99758  1.0000
  Fe  Fe44      1.0  0.12111  0.98604  0.92137  1.0000
  Fe  Fe45      1.0  0.49981  0.54830  0.80971  1.0000
  C   C607      1.0  0.44906  0.63889  0.93186  1.0000
  S   S85       1.0  0.45288  0.56621  0.82574  1.0000
  S   S86       1.0  0.48452  0.57525  0.89552  1.0000
  C   C608      1.0  0.13404  0.93907  0.78500  1.0000
  C   C609      1.0  0.13124  0.92386  0.75577  1.0000
  C   C610      1.0  0.14336  0.93762  0.72833  1.0000
  C   C611      1.0  0.15849  0.96667  0.73004  1.0000
  H   H486      1.0  0.47914  0.75336  0.67696  1.0000
  C   C612      1.0  0.14916  0.96811  0.78667  1.0000
  H   H487      1.0  0.11962  0.90137  0.75439  1.0000
  H   H488      1.0  0.14122  0.92572  0.70594  1.0000
  C   C613      1.0  0.45445  0.00232  0.84012  1.0000
  C   C614      1.0  0.26818  0.52462  0.70349  1.0000
  H   H489      1.0  0.29035  0.97095  0.89164  1.0000
  H   H490      1.0  0.39839  0.94215  0.75306  1.0000
  C   C615      1.0  0.26515  0.50791  0.73154  1.0000
  C   C616      1.0  0.43982  0.97336  0.83584  1.0000
  H   H491      1.0  0.32221  0.68422  0.98708  1.0000
  C   C617      1.0  0.47095  0.71559  0.84935  1.0000
  H   H492      1.0  0.48304  0.99866  0.77183  1.0000
  H   H493      1.0  0.47822  0.76569  0.84987  1.0000
  H   H494      1.0  0.44559  0.71735  0.85164  1.0000
  C   C618      1.0  0.48087  0.64745  0.98895  1.0000
  C   C619      1.0  0.24890  0.94577  0.96231  1.0000
  C   C620      1.0  0.28151  0.94872  0.96772  1.0000
  C   C621      1.0  0.03026  0.89821  0.89096  1.0000
  H   H495      1.0  0.29714  0.95275  0.94813  1.0000
  C   C622      1.0  0.38427  0.53802  0.72602  1.0000
  C   C623      1.0  0.40889  0.89474  0.95096  1.0000
  C   C624      1.0  0.43068  0.87782  0.93306  1.0000
  C   C625      1.0  0.45427  0.86062  0.94818  1.0000
  H   H496      1.0  0.39079  0.90831  0.93944  1.0000
  H   H497      1.0  0.47055  0.84690  0.93456  1.0000
  C   C626      1.0  0.45587  0.85999  0.98109  1.0000
  C   C627      1.0  0.03150  0.97047  0.74431  1.0000
  S   S87       1.0  0.17506  0.98445  0.69658  1.0000
  C   C628      1.0  0.01510  0.71590  0.96913  1.0000
  S   S88       1.0  0.50528  0.51562  0.85043  1.0000
  H   H498      1.0  0.42039  0.93292  0.85861  1.0000
  C   C629      1.0  0.43078  0.95580  0.86190  1.0000
  H   H499      1.0  0.15119  0.98012  0.80900  1.0000
  C   C630      1.0  0.04039  0.93332  0.00582  1.0000
  H   H500      1.0  0.01891  0.76863  0.69687  1.0000
  H   H501      1.0  0.04817  0.74150  0.94053  1.0000
  H   H502      1.0  0.24333  0.50903  0.74471  1.0000
  H   H503      1.0  0.41045  0.81427  0.91234  1.0000
  H   H504      1.0  0.39003  0.98872  0.92499  1.0000
  H   H505      1.0  0.24867  0.53864  0.69486  1.0000
  H   H506      1.0  0.20393  0.93672  0.98373  1.0000
  H   H507      1.0  0.37249  0.98577  0.83377  1.0000
  C   C631      1.0  0.38732  0.52863  0.69446  1.0000
  C   C632      1.0  0.43731  0.55655  0.69180  1.0000
  C   C633      1.0  0.37312  0.89788  0.82855  1.0000
  C   C634      1.0  0.03044  0.90992  0.86030  1.0000
  H   H508      1.0  0.11887  0.75267  0.68565  1.0000
  H   H509      1.0  0.09293  0.98467  0.71307  1.0000
  H   H510      1.0  0.36415  0.53110  0.73989  1.0000
  C   C635      1.0  0.41382  0.53844  0.67743  1.0000
  H   H511      1.0  0.11981  0.51165  0.99211  1.0000
  C   C636      1.0  0.05330  0.97848  0.79678  1.0000
  H   H512      1.0  0.04856  0.90244  0.84396  1.0000
  C   C637      1.0  0.04274  0.73299  0.96389  1.0000
  C   C638      1.0  0.33029  0.97468  0.86021  1.0000
  C   C639      1.0  0.01115  0.99594  0.74925  1.0000
  H   H513      1.0  0.07013  0.94400  0.76456  1.0000
  C   C640      1.0  0.34425  0.72764  0.00093  1.0000
  H   H514      1.0  0.03666  0.89862  0.74905  1.0000
  H   H515      1.0  0.08471  0.75272  0.98486  1.0000
  C   C641      1.0  0.29635  0.52334  0.68651  1.0000
  S   S89       1.0  0.50436  0.53542  0.75838  1.0000
  C   C642      1.0  0.05568  0.91629  0.70538  1.0000
  C   C643      1.0  0.08664  0.85830  0.70160  1.0000
  C   C644      1.0  0.07875  0.77883  0.74945  1.0000
  H   H516      1.0  0.01422  0.56310  0.96530  1.0000
  H   H517      1.0  0.07022  0.97217  0.81492  1.0000
  C   C645      1.0  0.49491  0.65752  0.96084  1.0000
  H   H518      1.0  0.42904  0.89619  0.77126  1.0000
  C   C646      1.0  0.40853  0.90390  0.78433  1.0000
  S   S90       1.0  0.15812  0.98058  0.88403  1.0000
  C   C647      1.0  0.04811  0.77846  0.73713  1.0000
  C   C648      1.0  0.39208  0.99783  0.94854  1.0000
  C   C649      1.0  0.06337  0.73927  0.98886  1.0000
  C   C650      1.0  0.01839  0.00127  0.97728  1.0000
  C   C651      1.0  0.43429  0.56546  0.72327  1.0000
  H   H519      1.0  0.06527  0.84845  0.74639  1.0000
  H   H520      1.0  0.34701  0.73543  0.97686  1.0000
  C   C652      1.0  0.05296  0.96227  0.76816  1.0000
  C   C653      1.0  0.09889  0.75997  0.69964  1.0000
  C   C654      1.0  0.10410  0.76953  0.73073  1.0000
  C   C655      1.0  0.31060  0.98482  0.88469  1.0000
  H   H521      1.0  0.40546  0.56335  0.76473  1.0000
  C   C656      1.0  0.36505  0.99762  0.96728  1.0000
  C   C657      1.0  0.39934  0.88787  0.81138  1.0000
  H   H522      1.0  0.00857  0.89990  0.93639  1.0000
  C   C658      1.0  0.03228  0.00310  0.80187  1.0000
  C   C659      1.0  0.08191  0.99287  0.69157  1.0000
  H   H523      1.0  0.43674  0.63554  0.90969  1.0000
  C   C660      1.0  0.24021  0.96666  0.79727  1.0000
  C   C661      1.0  0.23882  0.94738  0.77071  1.0000
  C   C662      1.0  0.26243  0.92524  0.76551  1.0000
  C   C663      1.0  0.28763  0.92254  0.78668  1.0000
  C   C664      1.0  0.28978  0.94250  0.81294  1.0000
  C   C665      1.0  0.26551  0.96421  0.81839  1.0000
  P   P23       1.0  0.32193  0.93785  0.84069  1.0000
  C   C666      1.0  0.16125  0.98188  0.75924  1.0000
  C   C667      1.0  0.31051  0.91101  0.87141  1.0000
  C   C668      1.0  0.33091  0.90590  0.89702  1.0000
  C   C669      1.0  0.32150  0.88695  0.92209  1.0000
  C   C670      1.0  0.29145  0.87344  0.92198  1.0000
  C   C671      1.0  0.27089  0.87866  0.89678  1.0000
  C   C672      1.0  0.28034  0.89732  0.87153  1.0000
  H   H524      1.0  0.43626  0.99055  0.70187  1.0000
  H   H525      1.0  0.35186  0.96009  0.78307  1.0000
  C   C673      1.0  0.41064  0.89434  0.98391  1.0000
  C   C674      1.0  0.43576  0.62785  0.95971  1.0000
  P   P24       1.0  0.03307  0.95208  0.70592  1.0000
  C   C675      1.0  0.35606  0.92439  0.81898  1.0000
  C   C676      1.0  0.43612  0.96718  0.89227  1.0000
  C   C677      1.0  0.50733  0.78231  0.96190  1.0000
  C   C678      1.0  0.39128  0.92985  0.77417  1.0000
  C   C679      1.0  0.48935  0.74298  0.84829  1.0000
  C   C680      1.0  0.47854  0.65367  0.93239  1.0000
  C   C681      1.0  0.05178  0.89388  0.72915  1.0000
  H   H526      1.0  0.21929  0.94936  0.75428  1.0000
  H   H527      1.0  0.26099  0.91004  0.74512  1.0000
  H   H528      1.0  0.30532  0.90475  0.78255  1.0000
  H   H529      1.0  0.46271  0.82406  0.68769  1.0000
  H   H530      1.0  0.35402  0.91677  0.89763  1.0000
  H   H531      1.0  0.33725  0.88314  0.94187  1.0000
  H   H532      1.0  0.28383  0.85936  0.94165  1.0000
  H   H533      1.0  0.24721  0.86905  0.89723  1.0000
  H   H534      1.0  0.26359  0.90166  0.85276  1.0000
  H   H535      1.0  0.02141  0.96494  0.94299  1.0000
  C   C682      1.0  0.08506  0.87410  0.99729  1.0000
  C   C683      1.0  0.44971  0.99687  0.89683  1.0000
  H   H536      1.0  0.41326  0.61575  0.95903  1.0000
  C   C684      1.0  0.35659  0.99299  0.85213  1.0000
  S   S91       1.0  0.42185  0.50929  0.89230  1.0000
  H   H537      1.0  0.09904  0.83618  0.70034  1.0000
  Fe  Fe46      1.0  0.48111  0.60321  0.85085  1.0000
  C   C685      1.0  0.08964  0.88000  0.67726  1.0000
  C   C686      1.0  0.39641  0.77963  0.98311  1.0000
  H   H538      1.0  0.38134  0.82314  0.96150  1.0000
  C   C687      1.0  0.48514  0.68597  0.84742  1.0000
  H   H539      1.0  0.36667  0.88485  0.84932  1.0000
  H   H540      1.0  0.26570  0.97902  0.83902  1.0000
  C   C688      1.0  0.36508  0.93999  0.79132  1.0000
  H   H541      1.0  0.12785  0.76970  0.74034  1.0000
  C   C689      1.0  0.22892  0.93976  0.98762  1.0000
  C   C690      1.0  0.41510  0.75275  0.97907  1.0000
  C   C691      1.0  0.48811  0.99159  0.95502  1.0000
  C   C692      1.0  0.45157  0.63231  0.98829  1.0000
  H   H542      1.0  0.48134  0.94268  0.78667  1.0000
  H   H543      1.0  0.04822  0.88167  0.89838  1.0000
  C   C693      1.0  0.43408  0.87681  0.99899  1.0000
  H   H544      1.0  0.43003  0.95257  0.91218  1.0000
  H   H545      1.0  0.43610  0.96420  0.81236  1.0000
  H   H546      1.0  0.48859  0.66196  0.91058  1.0000
  H   H547      1.0  0.08288  0.78625  0.77353  1.0000
  H   H548      1.0  0.04708  0.92537  0.98259  1.0000
  H   H549      1.0  0.22143  0.98331  0.80158  1.0000
  C   C694      1.0  0.48892  0.98096  0.75474  1.0000
  C   C695      1.0  0.29394  0.94640  0.99842  1.0000
  C   C696      1.0  0.06760  0.86519  0.72748  1.0000
  C   C697      1.0  0.49920  0.96305  0.94274  1.0000
  C   C698      1.0  0.50431  0.93506  0.71065  1.0000
  C   C699      1.0  0.04282  0.76896  0.70603  1.0000
  H   H550      1.0  0.44613  0.72730  0.94809  1.0000
  H   H551      1.0  0.04334  0.84536  0.99390  1.0000
  C   C700      1.0  0.43183  0.74809  0.95116  1.0000
  C   C701      1.0  0.43004  0.77022  0.92709  1.0000
  C   C702      1.0  0.41168  0.79706  0.93099  1.0000
  C   C703      1.0  0.39509  0.80195  0.95896  1.0000
  C   C704      1.0  0.06823  0.76000  0.68692  1.0000
  H   H552      1.0  0.45275  0.57904  0.73465  1.0000
  C   C705      1.0  0.28786  0.82757  0.00322  1.0000
  C   C706      1.0  0.07043  0.50562  0.98107  1.0000
  H   H553      1.0  0.41651  0.73524  0.99741  1.0000
  H   H554      1.0  0.06357  0.52528  0.99552  1.0000
  H   H555      1.0  0.01684  0.64995  0.69212  1.0000
  C   C707      1.0  0.31131  0.80466  0.00562  1.0000
  C   C708      1.0  0.05262  0.98084  0.68169  1.0000
  H   H556      1.0  0.02844  0.78553  0.75169  1.0000
  H   H557      1.0  0.45800  0.56338  0.67858  1.0000
  H   H558      1.0  0.47387  0.84636  0.99279  1.0000
  C   C709      1.0  0.49562  0.92630  0.74119  1.0000
  H   H559      1.0  0.03431  0.70498  0.69473  1.0000
  H   H560      1.0  0.30480  0.78041  0.00225  1.0000
  H   H561      1.0  0.34335  0.98740  0.95846  1.0000
  C   C710      1.0  0.32175  0.50521  0.69748  1.0000
  S   S92       1.0  0.49515  0.90973  0.84371  1.0000
  H   H562      1.0  0.26367  0.82095  0.99814  1.0000
  H   H563      1.0  0.50408  0.66909  0.71509  1.0000
  H   H564      1.0  0.50193  0.80708  0.96186  1.0000
  C   C711      1.0  0.07406  0.90876  0.67904  1.0000
  S   S93       1.0  0.49474  0.88659  0.75165  1.0000
  C   C712      1.0  0.42549  0.98789  0.67888  1.0000
  C   C713      1.0  0.49778  0.98983  0.72437  1.0000
  H   H565      1.0  0.31902  0.94884  0.00251  1.0000
  C   C714      1.0  0.48789  0.94930  0.76315  1.0000
  C   C715      1.0  0.50546  0.96683  0.70223  1.0000
  H   H566      1.0  0.00809  0.94102  0.82733  1.0000
  H   H567      1.0  0.00837  0.60522  0.00490  1.0000
  H   H568      1.0  0.81078  0.10563  0.01945  1.0000
  C   C716      1.0  0.73076  0.43837  0.27742  1.0000
  S   S94       1.0  0.61092  0.10797  0.04952  1.0000
  H   H569      1.0  0.95476  0.01983  0.11199  1.0000
  Fe  Fe47      1.0  0.60532  0.47547  0.14562  1.0000
  H   H570      1.0  0.73002  0.34884  0.01186  1.0000
  C   C717      1.0  0.70128  0.20488  0.06702  1.0000
  S   S95       1.0  0.56685  0.03059  0.07101  1.0000
  C   C718      1.0  0.70655  0.35974  0.05531  1.0000
  H   H571      1.0  0.95071  0.20012  0.14359  1.0000
  S   S96       1.0  0.92009  0.06167  0.07264  1.0000
  H   H572      1.0  0.72108  0.16512  0.04278  1.0000
  Fe  Fe48      1.0  0.65120  0.46095  0.09287  1.0000
  H   H573      1.0  0.57134  0.20955  0.09694  1.0000
  Fe  Fe49      1.0  0.58999  0.42459  0.09736  1.0000
  S   S97       1.0  0.56988  0.37674  0.08694  1.0000
  S   S98       1.0  0.61281  0.45061  0.05768  1.0000
  S   S99       1.0  0.63034  0.43154  0.13122  1.0000
  H   H574      1.0  0.76417  0.01557  0.09577  1.0000
  C   C719      1.0  0.55116  0.41585  0.18986  1.0000
  C   C720      1.0  0.81788  0.07382  0.10636  1.0000
  S   S100      1.0  0.88492  0.12875  0.02387  1.0000
  C   C721      1.0  0.62778  0.44682  0.22623  1.0000
  H   H575      1.0  0.96405  0.08750  0.11871  1.0000
  C   C722      1.0  0.63509  0.44612  0.28320  1.0000
  H   H576      1.0  0.54008  0.25489  0.11566  1.0000
  C   C723      1.0  0.97332  0.46613  0.23987  1.0000
  H   H577      1.0  0.85220  0.44138  0.09868  1.0000
  C   C724      1.0  0.69688  0.45554  0.02223  1.0000
  C   C725      1.0  0.97990  0.42666  0.28083  1.0000
  H   H578      1.0  0.96285  0.43985  0.32654  1.0000
  C   C726      1.0  0.52872  0.37440  0.08072  1.0000
  S   S101      1.0  0.94066  0.19824  0.01679  1.0000
  H   H579      1.0  0.96288  0.16302  0.18620  1.0000
  C   C727      1.0  0.51792  0.22322  0.02075  1.0000
  H   H580      1.0  0.76101  0.09944  0.04940  1.0000
  C   C728      1.0  0.71786  0.45515  0.04765  1.0000
  C   C729      1.0  0.85696  0.43978  0.23731  1.0000
  H   H581      1.0  0.56179  0.34614  0.15266  1.0000
  C   C730      1.0  0.51813  0.41591  0.19196  1.0000
  H   H582      1.0  0.64690  0.31783  0.08747  1.0000
  H   H583      1.0  0.94502  0.18135  0.08851  1.0000
  C   C731      1.0  0.54961  0.36523  0.16420  1.0000
  H   H584      1.0  0.96890  0.25706  0.03123  1.0000
  H   H585      1.0  0.99602  0.33286  0.18116  1.0000
  C   C732      1.0  0.94125  0.09857  0.24262  1.0000
  H   H586      1.0  0.56887  0.15120  0.08568  1.0000
  C   C733      1.0  0.54017  0.48155  0.30340  1.0000
  C   C734      1.0  0.55995  0.25854  0.10021  1.0000
  H   H587      1.0  0.89077  0.46493  0.31877  1.0000
  P   P25       1.0  0.83976  0.44296  0.27597  1.0000
  C   C735      1.0  0.96125  0.11203  0.12443  1.0000
  C   C736      1.0  0.52687  0.09559  0.12441  1.0000
  H   H588      1.0  0.73726  0.04100  0.04101  1.0000
  C   C737      1.0  0.66431  0.32450  0.07026  1.0000
  C   C738      1.0  0.57775  0.23307  0.08998  1.0000
  H   H589      1.0  0.91724  0.10021  0.28724  1.0000
  C   C739      1.0  0.95048  0.16498  0.10728  1.0000
  H   H590      1.0  0.79366  0.44672  0.32657  1.0000
  H   H591      1.0  0.64954  0.40905  0.25198  1.0000
  Fe  Fe50      1.0  0.58429  0.06515  0.03491  1.0000
  C   C740      1.0  0.78378  0.03097  0.09055  1.0000
  C   C741      1.0  0.60340  0.23774  0.06996  1.0000
  C   C742      1.0  0.87585  0.48451  0.31271  1.0000
  H   H592      1.0  0.51706  0.41456  0.10900  1.0000
  S   S102      1.0  0.64871  0.42653  0.31709  1.0000
  C   C743      1.0  0.56683  0.39040  0.17642  1.0000
  C   C744      1.0  0.97989  0.21133  0.01296  1.0000
  S   S103      1.0  0.70392  0.45680  0.08650  1.0000
  H   H593      1.0  0.71080  0.19808  0.08968  1.0000
  C   C745      1.0  0.51627  0.46256  0.24456  1.0000
  C   C746      1.0  0.69265  0.31590  0.02167  1.0000
  C   C747      1.0  0.90754  0.02982  0.16140  1.0000
  C   C748      1.0  0.86368  0.41081  0.18848  1.0000
  H   H594      1.0  0.90489  0.42134  0.28188  1.0000
  H   H595      1.0  0.51552  0.17233  0.07713  1.0000
  H   H596      1.0  0.59693  0.31670  0.06030  1.0000
  H   H597      1.0  0.95292  0.14066  0.30994  1.0000
  C   C749      1.0  0.93624  0.10969  0.27319  1.0000
  C   C750      1.0  0.90847  0.31120  0.01374  1.0000
  C   C751      1.0  0.56737  0.28865  0.08989  1.0000
  H   H598      1.0  0.98630  0.49518  0.03504  1.0000
  C   C752      1.0  0.61151  0.26805  0.06001  1.0000
  C   C753      1.0  0.53596  0.44259  0.26207  1.0000
  H   H599      1.0  0.83083  0.39800  0.22452  1.0000
  C   C754      1.0  0.59241  0.29332  0.06907  1.0000
  C   C755      1.0  0.85738  0.41119  0.29790  1.0000
  H   H600      1.0  0.88897  0.35556  0.02801  1.0000
  H   H601      1.0  0.89115  0.01435  0.03327  1.0000
  C   C756      1.0  0.66963  0.24021  0.03510  1.0000
  C   C757      1.0  0.98114  0.14434  0.26820  1.0000
  H   H602      1.0  0.54220  0.41962  0.25339  1.0000
  H   H603      1.0  0.98806  0.02939  0.20510  1.0000
  H   H604      1.0  0.81951  0.39455  0.11051  1.0000
  H   H605      1.0  0.67929  0.36455  0.09761  1.0000
  S   S104      1.0  0.56301  0.46587  0.11505  1.0000
  H   H606      1.0  0.59182  0.04773  0.18629  1.0000
  C   C758      1.0  0.84862  0.41476  0.21744  1.0000
  C   C759      1.0  0.98639  0.13313  0.23779  1.0000
  H   H607      1.0  0.56475  0.43568  0.19826  1.0000
  H   H608      1.0  0.61846  0.48687  0.30786  1.0000
  C   C760      1.0  0.52565  0.02689  0.07468  1.0000
  H   H609      1.0  0.63264  0.38105  0.04099  1.0000
  H   H610      1.0  0.92576  0.08058  0.23336  1.0000
  C   C761      1.0  0.95367  0.17548  0.13830  1.0000
  C   C762      1.0  0.69492  0.01379  0.03753  1.0000
  H   H611      1.0  0.97607  0.47336  0.21567  1.0000
  S   S105      1.0  0.56668  0.18142  0.02298  1.0000
  C   C763      1.0  0.96659  0.11004  0.22480  1.0000
  C   C764      1.0  0.92410  0.05790  0.16546  1.0000
  C   C765      1.0  0.80043  0.02789  0.06221  1.0000
  H   H612      1.0  0.85696  0.39166  0.17310  1.0000
  H   H613      1.0  0.72074  0.38045  0.05998  1.0000
  C   C766      1.0  0.83190  0.44334  0.11398  1.0000
  H   H614      1.0  0.95123  0.12505  0.07643  1.0000
  H   H615      1.0  0.88533  0.02967  0.14864  1.0000
  C   C767      1.0  0.90386  0.38027  0.31056  1.0000
  C   C768      1.0  0.55296  0.11135  0.11222  1.0000
  C   C769      1.0  0.77877  0.44906  0.15243  1.0000
  C   C770      1.0  0.95624  0.13250  0.28600  1.0000
  H   H616      1.0  0.00773  0.33713  0.23840  1.0000
  H   H617      1.0  0.56394  0.43703  0.30422  1.0000
  C   C771      1.0  0.54085  0.00435  0.23026  1.0000
  H   H618      1.0  0.77914  0.05656  0.13401  1.0000
  C   C772      1.0  0.84977  0.48070  0.29257  1.0000
  C   C773      1.0  0.70719  0.18634  0.04059  1.0000
  C   C774      1.0  0.51650  0.34950  0.06294  1.0000
  H   H619      1.0  0.95119  0.02893  0.01016  1.0000
  C   C775      1.0  0.95629  0.47689  0.29298  1.0000
  C   C776      1.0  0.98311  0.43611  0.24937  1.0000
  S   S106      1.0  0.99344  0.38951  0.29274  1.0000
  C   C777      1.0  0.89741  0.45507  0.20000  1.0000
  C   C778      1.0  0.55515  0.01811  0.16755  1.0000
  C   C779      1.0  0.62752  0.38464  0.01626  1.0000
  H   H620      1.0  0.89054  0.47760  0.24437  1.0000
  H   H621      1.0  0.73311  0.43483  0.22703  1.0000
  H   H622      1.0  0.99343  0.42028  0.23241  1.0000
  H   H623      1.0  0.56060  0.02335  0.14317  1.0000
  C   C780      1.0  0.89027  0.33814  0.00952  1.0000
  H   H624      1.0  0.92901  0.37630  0.30840  1.0000
  H   H625      1.0  0.79103  0.43854  0.22525  1.0000
  C   C781      1.0  0.88532  0.35952  0.32782  1.0000
  C   C782      1.0  0.74658  0.43687  0.24869  1.0000
  C   C783      1.0  0.61006  0.49051  0.25780  1.0000
  C   C784      1.0  0.62107  0.47564  0.28520  1.0000
  H   H626      1.0  0.70519  0.43713  0.27803  1.0000
  C   C785      1.0  0.77955  0.43861  0.24787  1.0000
  P   P26       1.0  0.64374  0.27378  0.03287  1.0000
  C   C786      1.0  0.54800  0.45217  0.29124  1.0000
  H   H627      1.0  0.73533  0.44354  0.32756  1.0000
  H   H628      1.0  0.59232  0.39055  0.17475  1.0000
  H   H629      1.0  0.57636  0.10143  0.11479  1.0000
  C   C787      1.0  0.79702  0.44102  0.27598  1.0000
  C   C788      1.0  0.79233  0.05404  0.11239  1.0000
  C   C789      1.0  0.88795  0.43111  0.17967  1.0000
  H   H630      1.0  0.63065  0.43571  0.20357  1.0000
  Fe  Fe51      1.0  0.91456  0.08543  0.02592  1.0000
  H   H631      1.0  0.94596  0.49262  0.30990  1.0000
  H   H632      1.0  0.53229  0.33323  0.05157  1.0000
  C   C790      1.0  0.63857  0.43184  0.25365  1.0000
  H   H633      1.0  0.81354  0.39234  0.31617  1.0000
  H   H634      1.0  0.75196  0.50045  0.09952  1.0000
  H   H635      1.0  0.55350  0.30839  0.09779  1.0000
  C   C791      1.0  0.96454  0.12230  0.15565  1.0000
  C   C792      1.0  0.82634  0.04761  0.05654  1.0000
  C   C793      1.0  0.78079  0.44364  0.30467  1.0000
  H   H636      1.0  0.57759  0.37918  0.02230  1.0000
  Fe  Fe52      1.0  0.58389  0.13260  0.01155  1.0000
  H   H637      1.0  0.94248  0.38634  0.01239  1.0000
  H   H638      1.0  0.00629  0.14208  0.22466  1.0000
  S   S107      1.0  0.69607  0.09893  0.03109  1.0000
  C   C794      1.0  0.73073  0.10341  0.00866  1.0000
  C   C795      1.0  0.74782  0.44199  0.30537  1.0000
  H   H639      1.0  0.67786  0.24564  0.08508  1.0000
  H   H640      1.0  0.61620  0.21743  0.06166  1.0000
  C   C796      1.0  0.96624  0.44711  0.30251  1.0000
  C   C797      1.0  0.88211  0.45936  0.22872  1.0000
  H   H641      1.0  0.52612  0.46819  0.04281  1.0000
  C   C798      1.0  0.92269  0.02081  0.07253  1.0000
  C   C799      1.0  0.76008  0.10279  0.02419  1.0000
  C   C800      1.0  0.78701  0.41988  0.13994  1.0000
  H   H642      1.0  0.92116  0.30750  0.03560  1.0000
  C   C801      1.0  0.95974  0.48651  0.26174  1.0000
  C   C802      1.0  0.72768  0.01767  0.03795  1.0000
  H   H643      1.0  0.77227  0.39966  0.14447  1.0000
  H   H644      1.0  0.99865  0.47109  0.13546  1.0000
  C   C803      1.0  0.53593  0.43339  0.00747  1.0000
  H   H645      1.0  0.51478  0.07118  0.05327  1.0000
  C   C804      1.0  0.83882  0.38989  0.31494  1.0000
  H   H646      1.0  0.57867  0.03622  0.24199  1.0000
  C   C805      1.0  0.51648  0.44942  0.02850  1.0000
  C   C806      1.0  0.75040  0.45277  0.04209  1.0000
  H   H647      1.0  0.76677  0.45259  0.06171  1.0000
  H   H648      1.0  0.91386  0.07928  0.15639  1.0000
  H   H649      1.0  0.67187  0.45777  0.02622  1.0000
  C   C807      1.0  0.95417  0.13324  0.10041  1.0000
  C   C808      1.0  0.68309  0.35082  0.07647  1.0000
  Fe  Fe53      1.0  0.58870  0.49278  0.07776  1.0000
  H   H650      1.0  0.83999  0.04553  0.03520  1.0000
  C   C809      1.0  0.89002  0.40591  0.29561  1.0000
  C   C810      1.0  0.81351  0.41703  0.12067  1.0000
  H   H651      1.0  0.91691  0.47019  0.19374  1.0000
  C   C811      1.0  0.66827  0.30737  0.04226  1.0000
  H   H652      1.0  0.89989  0.42795  0.15738  1.0000
  C   C812      1.0  0.82369  0.47252  0.12637  1.0000
  P   P27       1.0  0.97493  0.09454  0.18614  1.0000
  C   C813      1.0  0.83491  0.07051  0.07852  1.0000
  H   H653      1.0  0.75748  0.45093  0.16626  1.0000
  C   C814      1.0  0.61329  0.47612  0.22828  1.0000
  H   H654      1.0  0.85492  0.08564  0.07398  1.0000
  C   C815      1.0  0.79716  0.47560  0.14579  1.0000
  H   H655      1.0  0.82461  0.09167  0.12324  1.0000
  C   C816      1.0  0.95365  0.05814  0.18064  1.0000
  H   H656      1.0  0.53324  0.23837  0.03437  1.0000
  H   H657      1.0  0.67968  0.03392  0.04052  1.0000
  H   H658      1.0  0.99933  0.39380  0.02383  1.0000
  Fe  Fe54      1.0  0.64588  0.09541  0.01213  1.0000
  C   C817      1.0  0.96581  0.02994  0.19255  1.0000
  C   C818      1.0  0.76182  0.45025  0.01119  1.0000
  C   C819      1.0  0.54872  0.13930  0.09573  1.0000
  H   H659      1.0  0.98487  0.06637  0.07020  1.0000
  C   C820      1.0  0.68265  0.23176  0.06430  1.0000
  C   C821      1.0  0.98709  0.24216  0.02164  1.0000
  C   C822      1.0  0.96062  0.15427  0.16244  1.0000
  C   C823      1.0  0.57272  0.03179  0.19184  1.0000
  H   H660      1.0  0.99683  0.16174  0.27836  1.0000
  C   C824      1.0  0.52841  0.19333  0.01199  1.0000
  C   C825      1.0  0.51839  0.15127  0.09102  1.0000
  C   C826      1.0  0.98653  0.41130  0.01054  1.0000
  C   C827      1.0  0.67639  0.22188  0.00846  1.0000
  H   H661      1.0  0.53001  0.07343  0.13629  1.0000
  H   H662      1.0  0.00104  0.41486  0.12145  1.0000
  H   H663      1.0  0.78689  0.44808  0.00701  1.0000
  C   C828      1.0  0.85283  0.36426  0.32990  1.0000
  H   H664      1.0  0.83779  0.49286  0.12043  1.0000
  H   H665      1.0  0.54990  0.48908  0.32582  1.0000
  C   C829      1.0  0.71161  0.34204  0.02812  1.0000
  C   C830      1.0  0.56540  0.02514  0.22319  1.0000
  H   H666      1.0  0.85076  0.49861  0.17689  1.0000
  S   S108      1.0  0.59972  0.49592  0.19452  1.0000
  C   C831      1.0  0.51667  0.36549  0.16538  1.0000
  C   C832      1.0  0.94113  0.00599  0.09547  1.0000
  C   C833      1.0  0.69489  0.19491  0.01133  1.0000
  C   C834      1.0  0.51986  0.50118  0.28662  1.0000
  H   H667      1.0  0.89611  0.33952  0.33925  1.0000
  C   C835      1.0  0.78832  0.10630  0.00732  1.0000
  C   C836      1.0  0.83414  0.32383  0.40489  1.0000
  H   H668      1.0  0.53860  0.25857  0.64471  1.0000
  H   H669      1.0  0.67987  0.06976  0.53277  1.0000
  S   S109      1.0  0.54983  0.14600  0.62624  1.0000
  C   C837      1.0  0.94819  0.38208  0.66638  1.0000
  C   C838      1.0  0.80144  0.44348  0.41689  1.0000
  C   C839      1.0  0.81246  0.38244  0.53849  1.0000
  C   C840      1.0  0.95307  0.49907  0.38587  1.0000
  S   S110      1.0  0.58674  0.35574  0.58632  1.0000
  Fe  Fe55      1.0  0.60243  0.43438  0.42606  1.0000
  H   H670      1.0  0.52114  0.41418  0.36836  1.0000
  S   S111      1.0  0.56474  0.40453  0.44760  1.0000
  H   H671      1.0  0.90630  0.28832  0.40387  1.0000
  H   H672      1.0  0.69081  0.36382  0.37715  1.0000
  S   S112      1.0  0.98551  0.07489  0.34261  1.0000
  C   C841      1.0  0.88834  0.30581  0.40862  1.0000
  H   H673      1.0  0.00195  0.23734  0.54845  1.0000
  S   S113      1.0  0.64826  0.41713  0.40699  1.0000
  C   C842      1.0  0.72980  0.39204  0.66959  1.0000
  Fe  Fe56      1.0  0.96430  0.39832  0.40670  1.0000
  S   S114      1.0  0.92663  0.42961  0.42622  1.0000
  S   S115      1.0  0.95601  0.35961  0.37199  1.0000
  Fe  Fe57      1.0  0.86540  0.45544  0.59265  1.0000
  Fe  Fe58      1.0  0.83874  0.46976  0.65717  1.0000
  S   S116      1.0  0.89043  0.41507  0.56947  1.0000
  C   C843      1.0  0.99017  0.22099  0.40904  1.0000
  H   H674      1.0  0.51405  0.46960  0.44443  1.0000
  H   H675      1.0  0.69695  0.37163  0.43470  1.0000
  H   H676      1.0  0.91736  0.49770  0.42168  1.0000
  Fe  Fe59      1.0  0.54339  0.35620  0.61684  1.0000
  S   S117      1.0  0.81760  0.44813  0.61384  1.0000
  S   S118      1.0  0.88738  0.47352  0.63720  1.0000
  Fe  Fe60      1.0  0.99161  0.05364  0.39075  1.0000
  H   H677      1.0  0.54702  0.29048  0.48937  1.0000
  S   S119      1.0  0.95281  0.03659  0.42261  1.0000
  C   C844      1.0  0.92103  0.39977  0.67168  1.0000
  H   H678      1.0  0.55160  0.28295  0.58987  1.0000
  C   C845      1.0  0.71765  0.37007  0.41989  1.0000
  H   H679      1.0  0.83852  0.34766  0.34265  1.0000
  C   C846      1.0  0.68425  0.04486  0.53050  1.0000
  H   H680      1.0  0.98656  0.38630  0.54553  1.0000
  H   H681      1.0  0.64025  0.03151  0.55214  1.0000
  C   C847      1.0  0.82220  0.40892  0.52198  1.0000
  H   H682      1.0  0.98034  0.33305  0.52420  1.0000
  C   C848      1.0  0.74768  0.37377  0.43316  1.0000
  C   C849      1.0  0.91914  0.42654  0.46670  1.0000
  C   C850      1.0  0.92932  0.40059  0.48396  1.0000
  C   C851      1.0  0.92069  0.39744  0.51564  1.0000
  C   C852      1.0  0.90248  0.42053  0.53034  1.0000
  C   C853      1.0  0.89321  0.44695  0.51332  1.0000
  C   C854      1.0  0.90113  0.44973  0.48145  1.0000
  H   H683      1.0  0.94281  0.38237  0.47267  1.0000
  H   H684      1.0  0.92770  0.37685  0.52864  1.0000
  H   H685      1.0  0.87910  0.46480  0.52435  1.0000
  H   H686      1.0  0.89295  0.46970  0.46816  1.0000
  P   P28       1.0  0.81329  0.38104  0.43008  1.0000
  H   H687      1.0  0.68468  0.49658  0.49416  1.0000
  H   H688      1.0  0.84275  0.50146  0.38092  1.0000
  H   H689      1.0  0.72030  0.50195  0.66587  1.0000
  H   H690      1.0  0.88003  0.37623  0.44477  1.0000
  H   H691      1.0  0.73799  0.36283  0.34299  1.0000
  C   C855      1.0  0.72847  0.47238  0.48636  1.0000
  C   C856      1.0  0.89640  0.33287  0.42529  1.0000
  H   H692      1.0  0.52639  0.48570  0.60417  1.0000
  C   C857      1.0  0.99015  0.08887  0.48447  1.0000
  S   S120      1.0  0.55325  0.05847  0.64648  1.0000
  C   C858      1.0  0.58086  0.36906  0.54764  1.0000
  C   C859      1.0  0.55093  0.36792  0.53377  1.0000
  C   C860      1.0  0.54660  0.37863  0.50292  1.0000
  C   C861      1.0  0.57179  0.39127  0.48606  1.0000
  C   C862      1.0  0.60180  0.39261  0.49988  1.0000
  C   C863      1.0  0.60639  0.38098  0.53051  1.0000
  H   H693      1.0  0.53125  0.35840  0.54664  1.0000
  H   H694      1.0  0.52369  0.37736  0.49191  1.0000
  H   H695      1.0  0.62145  0.40212  0.48685  1.0000
  H   H696      1.0  0.62963  0.38143  0.54106  1.0000
  H   H697      1.0  0.64115  0.39180  0.61248  1.0000
  H   H698      1.0  0.57652  0.00801  0.37550  1.0000
  C   C864      1.0  0.84237  0.35159  0.42070  1.0000
  C   C865      1.0  0.98098  0.44595  0.56999  1.0000
  H   H699      1.0  0.57579  0.29891  0.53956  1.0000
  H   H700      1.0  0.97011  0.44863  0.54701  1.0000
  Fe  Fe61      1.0  0.99587  0.38159  0.34526  1.0000
  H   H701      1.0  0.77450  0.45143  0.48532  1.0000
  H   H702      1.0  0.93773  0.45563  0.59407  1.0000
  S   S121      1.0  0.66188  0.48958  0.38503  1.0000
  C   C866      1.0  0.66197  0.02340  0.54139  1.0000
  S   S122      1.0  0.62369  0.47543  0.45132  1.0000
  H   H703      1.0  0.99316  0.17063  0.40308  1.0000
  C   C867      1.0  0.71420  0.36583  0.38745  1.0000
  H   H704      1.0  0.56815  0.21028  0.63120  1.0000
  Fe  Fe62      1.0  0.61431  0.50039  0.40576  1.0000
  C   C868      1.0  0.53521  0.50314  0.65091  1.0000
  H   H705      1.0  0.53174  0.48052  0.66186  1.0000
  C   C869      1.0  0.85718  0.30118  0.39860  1.0000
  C   C870      1.0  0.99655  0.15228  0.46988  1.0000
  C   C871      1.0  0.57910  0.03619  0.49913  1.0000
  C   C872      1.0  0.82260  0.40873  0.48911  1.0000
  H   H706      1.0  0.72951  0.05084  0.50841  1.0000
  C   C873      1.0  0.77464  0.37259  0.41407  1.0000
  C   C874      1.0  0.82309  0.41884  0.41386  1.0000
  C   C875      1.0  0.50894  0.26544  0.56818  1.0000
  H   H707      1.0  0.69670  0.49880  0.60038  1.0000
  H   H708      1.0  0.53216  0.03555  0.51823  1.0000
  H   H709      1.0  0.51270  0.03885  0.42120  1.0000
  C   C876      1.0  0.53485  0.00938  0.47495  1.0000
  C   C877      1.0  0.85860  0.45385  0.38626  1.0000
  C   C878      1.0  0.60639  0.48040  0.55201  1.0000
  C   C879      1.0  0.59883  0.02554  0.47515  1.0000
  Fe  Fe63      1.0  0.54047  0.03211  0.60264  1.0000
  C   C880      1.0  0.55442  0.44133  0.56202  1.0000
  H   H710      1.0  0.79151  0.49194  0.40768  1.0000
  C   C881      1.0  0.58133  0.47998  0.53047  1.0000
  H   H711      1.0  0.90234  0.40032  0.65412  1.0000
  C   C882      1.0  0.60592  0.46066  0.57835  1.0000
  C   C883      1.0  0.57963  0.44128  0.58329  1.0000
  P   P29       1.0  0.63963  0.45928  0.60444  1.0000
  C   C884      1.0  0.67317  0.44180  0.58495  1.0000
  C   C885      1.0  0.72752  0.42367  0.58722  1.0000
  C   C886      1.0  0.72610  0.41566  0.55536  1.0000
  C   C887      1.0  0.69822  0.42027  0.53836  1.0000
  C   C888      1.0  0.67188  0.43338  0.55300  1.0000
  H   H712      1.0  0.53458  0.42569  0.56553  1.0000
  H   H713      1.0  0.83125  0.42922  0.47692  1.0000
  H   H714      1.0  0.57878  0.42528  0.60288  1.0000
  H   H715      1.0  0.74675  0.40647  0.54362  1.0000
  H   H716      1.0  0.69726  0.41445  0.51352  1.0000
  C   C889      1.0  0.64806  0.49922  0.61596  1.0000
  C   C890      1.0  0.96814  0.13675  0.46358  1.0000
  C   C891      1.0  0.96493  0.10505  0.47090  1.0000
  H   H717      1.0  0.58860  0.05013  0.51832  1.0000
  H   H718      1.0  0.96107  0.44948  0.64724  1.0000
  C   C892      1.0  0.87348  0.35552  0.43152  1.0000
  H   H719      1.0  0.62675  0.49505  0.54745  1.0000
  C   C893      1.0  0.55550  0.46021  0.53538  1.0000
  C   C894      1.0  0.80256  0.35577  0.52210  1.0000
  H   H720      1.0  0.81317  0.38253  0.56398  1.0000
  C   C895      1.0  0.99612  0.25049  0.39570  1.0000
  H   H721      1.0  0.70259  0.44273  0.62670  1.0000
  H   H722      1.0  0.79531  0.33510  0.53491  1.0000
  C   C896      1.0  0.54717  0.02802  0.49907  1.0000
  C   C897      1.0  0.97558  0.44610  0.62664  1.0000
  H   H723      1.0  0.65077  0.43685  0.53910  1.0000
  H   H724      1.0  0.92046  0.33626  0.43349  1.0000
  H   H725      1.0  0.85088  0.27984  0.38627  1.0000
  C   C898      1.0  0.52658  0.23624  0.64423  1.0000
  C   C899      1.0  0.70107  0.43638  0.60206  1.0000
  H   H726      1.0  0.83026  0.42939  0.53478  1.0000
  H   H727      1.0  0.86848  0.40558  0.39446  1.0000
  Fe  Fe64      1.0  0.66901  0.46061  0.42857  1.0000
  H   H728      1.0  0.77917  0.43980  0.42871  1.0000
  Fe  Fe65      1.0  0.99415  0.33380  0.39819  1.0000
  Fe  Fe66      1.0  0.63784  0.44714  0.36494  1.0000
  H   H729      1.0  0.94891  0.14904  0.45216  1.0000
  H   H730      1.0  0.94329  0.09267  0.46510  1.0000
  S   S123      1.0  0.51723  0.07325  0.57952  1.0000
  C   C900      1.0  0.63207  0.40196  0.63401  1.0000
  H   H731      1.0  0.79124  0.36942  0.36624  1.0000
  S   S124      1.0  0.71738  0.45476  0.45044  1.0000
  C   C901      1.0  0.54327  0.20887  0.63665  1.0000
  H   H732      1.0  0.74931  0.42058  0.60024  1.0000
  C   C902      1.0  0.80253  0.35560  0.48919  1.0000
  H   H733      1.0  0.88128  0.45787  0.37535  1.0000
  C   C903      1.0  0.53906  0.27886  0.56794  1.0000
  C   C904      1.0  0.55272  0.28785  0.53955  1.0000
  C   C905      1.0  0.53642  0.28309  0.51130  1.0000
  C   C906      1.0  0.62984  0.43457  0.63752  1.0000
  H   H734      1.0  0.79516  0.33467  0.47673  1.0000
  C   C907      1.0  0.80838  0.47309  0.40485  1.0000
  H   H735      1.0  0.62372  0.03136  0.47572  1.0000
  H   H736      1.0  0.61389  0.47165  0.66854  1.0000
  C   C908      1.0  0.81225  0.38222  0.47247  1.0000
  H   H737      1.0  0.74945  0.37885  0.45804  1.0000
  S   S125      1.0  0.52355  0.40130  0.63547  1.0000
  C   C909      1.0  0.85145  0.42407  0.39778  1.0000
  C   C910      1.0  0.96238  0.44965  0.59672  1.0000
  H   H738      1.0  0.81005  0.31939  0.39765  1.0000
  S   S126      1.0  0.58967  0.46036  0.38199  1.0000
  H   H739      1.0  0.99258  0.46774  0.43562  1.0000
  S   S127      1.0  0.85365  0.50298  0.57327  1.0000
  S   S128      1.0  0.99897  0.37129  0.43513  1.0000
  H   H740      1.0  0.53665  0.45865  0.51821  1.0000
  C   C911      1.0  0.83710  0.47837  0.38972  1.0000
  H   H741      1.0  0.97948  0.21967  0.43203  1.0000
  H   H742      1.0  0.58237  0.49419  0.50945  1.0000
  C   C912      1.0  0.62054  0.38197  0.65726  1.0000
  C   C913      1.0  0.77092  0.36881  0.38145  1.0000
  C   C914      1.0  0.52800  0.17970  0.63617  1.0000
  Fe  Fe67      1.0  0.52632  0.09840  0.62511  1.0000
  S   S129      1.0  0.54381  0.33172  0.66355  1.0000
  C   C915      1.0  0.74083  0.36528  0.36822  1.0000
  S   S130      1.0  0.00105  0.42231  0.37794  1.0000
  C   C916      1.0  0.99776  0.19326  0.39272  1.0000
  H   H743      1.0  0.79165  0.47367  0.53651  1.0000
  H   H744      1.0  0.95435  0.47384  0.38376  1.0000
  C   C917      1.0  0.00490  0.37683  0.53071  1.0000
  H   H745      1.0  0.95052  0.36896  0.64465  1.0000
  H   H746      1.0  0.73477  0.37125  0.65583  1.0000
  C   C918      1.0  0.71221  0.03418  0.51684  1.0000
  C   C919      1.0  0.00061  0.47521  0.45865  1.0000
  S   S131      1.0  0.98652  0.28466  0.41727  1.0000
  C   C920      1.0  0.75867  0.46622  0.49839  1.0000
  C   C921      1.0  0.76838  0.47877  0.52738  1.0000
  S   S132      1.0  0.57634  0.00718  0.57285  1.0000
  C   C922      1.0  0.74793  0.49777  0.54454  1.0000
  C   C923      1.0  0.58654  0.00701  0.45082  1.0000
  H   H747      1.0  0.99905  0.17658  0.46321  1.0000
  H   H748      1.0  0.62104  0.35684  0.65356  1.0000
  H   H749      1.0  0.77640  0.41158  0.66387  1.0000
  C   C924      1.0  0.70800  0.49169  0.50332  1.0000
  C   C925      1.0  0.61645  0.44683  0.66510  1.0000
  Fe  Fe68      1.0  0.80767  0.49741  0.59880  1.0000
  C   C926      1.0  0.00136  0.34644  0.51881  1.0000
  H   H750      1.0  0.98789  0.06402  0.48903  1.0000
  C   C927      1.0  0.00760  0.43896  0.62986  1.0000
  H   H751      1.0  0.99853  0.16805  0.99485  1.0000
  H   H752      1.0  0.64043  0.32423  0.98504  1.0000
  Fe  Fe69      1.0  0.59310  0.07903  0.96587  1.0000
  S   S133      1.0  0.57731  0.06364  0.91732  1.0000
  S   S134      1.0  0.62080  0.12345  0.97485  1.0000
  C   C928      1.0  0.74683  0.44147  0.69183  1.0000
  C   C929      1.0  0.51051  0.34114  0.93612  1.0000
  S   S135      1.0  0.91029  0.13707  0.95183  1.0000
  P   P30       1.0  0.00596  0.49533  0.96862  1.0000
  C   C930      1.0  0.75803  0.11157  0.95926  1.0000
  H   H753      1.0  0.99547  0.03148  0.78176  1.0000
  Fe  Fe70      1.0  0.93762  0.09273  0.95905  1.0000
  S   S136      1.0  0.96291  0.07067  0.91804  1.0000
  H   H754      1.0  0.86288  0.32441  0.93554  1.0000
  S   S137      1.0  0.84690  0.45362  0.96186  1.0000
  S   S138      1.0  0.82142  0.43891  0.88919  1.0000
  Fe  Fe71      1.0  0.52005  0.37527  0.68112  1.0000
  Fe  Fe72      1.0  0.80249  0.45980  0.93373  1.0000
  S   S139      1.0  0.75350  0.44443  0.94702  1.0000
  Fe  Fe73      1.0  0.86700  0.43610  0.91636  1.0000
  S   S140      1.0  0.89358  0.39059  0.91822  1.0000
  S   S141      1.0  0.83055  0.44314  0.70213  1.0000
  C   C931      1.0  0.74064  0.44974  0.98586  1.0000
  C   C932      1.0  0.70822  0.45256  0.99145  1.0000
  H   H755      1.0  0.69177  0.45253  0.97192  1.0000
  C   C933      1.0  0.95348  0.45642  0.97612  1.0000
  C   C934      1.0  0.82944  0.46241  0.79511  1.0000
  C   C935      1.0  0.82910  0.44683  0.76603  1.0000
  C   C936      1.0  0.82881  0.46375  0.73787  1.0000
  H   H756      1.0  0.90260  0.48931  0.79150  1.0000
  S   S142      1.0  0.89682  0.06642  0.97994  1.0000
  H   H757      1.0  0.83050  0.44921  0.81674  1.0000
  H   H758      1.0  0.82932  0.42158  0.76527  1.0000
  C   C937      1.0  0.93785  0.42985  0.98729  1.0000
  C   C938      1.0  0.93509  0.39129  0.92001  1.0000
  C   C939      1.0  0.95068  0.36771  0.93680  1.0000
  S   S143      1.0  0.95797  0.10756  0.00564  1.0000
  C   C940      1.0  0.95278  0.41349  0.90347  1.0000
  H   H759      1.0  0.93728  0.35071  0.94997  1.0000
  C   C941      1.0  0.54352  0.45845  0.89568  1.0000
  H   H760      1.0  0.94100  0.43179  0.89045  1.0000
  C   C942      1.0  0.88920  0.41606  0.83683  1.0000
  H   H761      1.0  0.63307  0.06373  0.74894  1.0000
  C   C943      1.0  0.72204  0.48546  0.82531  1.0000
  H   H762      1.0  0.56999  0.09126  0.84769  1.0000
  H   H763      1.0  0.54822  0.43208  0.78210  1.0000
  H   H764      1.0  0.76544  0.45855  0.69537  1.0000
  C   C944      1.0  0.59675  0.27973  0.93492  1.0000
  H   H765      1.0  0.75538  0.43458  0.75756  1.0000
  H   H766      1.0  0.54546  0.45535  0.84518  1.0000
  C   C945      1.0  0.62800  0.30390  0.97629  1.0000
  C   C946      1.0  0.52365  0.40892  0.98891  1.0000
  C   C947      1.0  0.82802  0.49500  0.79611  1.0000
  H   H767      1.0  0.61217  0.48541  0.88471  1.0000
  C   C948      1.0  0.51083  0.49548  0.75117  1.0000
  H   H768      1.0  0.94536  0.47750  0.70006  1.0000
  H   H769      1.0  0.75719  0.11495  0.93407  1.0000
  C   C949      1.0  0.70114  0.48986  0.90625  1.0000
  C   C950      1.0  0.61161  0.05918  0.81472  1.0000
  H   H770      1.0  0.55292  0.36827  0.89469  1.0000
  C   C951      1.0  0.89099  0.39671  0.77408  1.0000
  C   C952      1.0  0.55284  0.00979  0.89122  1.0000
  H   H771      1.0  0.94011  0.47365  0.96306  1.0000
  C   C953      1.0  0.99615  0.21982  0.92972  1.0000
  C   C954      1.0  0.99876  0.01973  0.99582  1.0000
  H   H772      1.0  0.00291  0.02684  0.88641  1.0000
  C   C955      1.0  0.69373  0.42274  0.70122  1.0000
  C   C956      1.0  0.97518  0.44304  0.77858  1.0000
  H   H773      1.0  0.72622  0.49098  0.91097  1.0000
  C   C957      1.0  0.54977  0.39339  0.89525  1.0000
  H   H774      1.0  0.77288  0.42548  0.81208  1.0000
  C   C958      1.0  0.98367  0.36595  0.93686  1.0000
  C   C959      1.0  0.84399  0.01133  0.95631  1.0000
  S   S144      1.0  0.53566  0.39424  0.72813  1.0000
  C   C960      1.0  0.90204  0.00943  0.88645  1.0000
  H   H775      1.0  0.59344  0.43604  0.70902  1.0000
  C   C961      1.0  0.59408  0.11036  0.69709  1.0000
  C   C962      1.0  0.91021  0.42171  0.78406  1.0000
  C   C963      1.0  0.86945  0.21421  0.96007  1.0000
  C   C964      1.0  0.56428  0.11023  0.71094  1.0000
  C   C965      1.0  0.54367  0.06899  0.80969  1.0000
  C   C966      1.0  0.87005  0.39139  0.82676  1.0000
  H   H776      1.0  0.64374  0.43656  0.88888  1.0000
  H   H777      1.0  0.98962  0.48632  0.75630  1.0000
  H   H778      1.0  0.51023  0.04922  0.77675  1.0000
  H   H779      1.0  0.53505  0.02474  0.88086  1.0000
  C   C967      1.0  0.72975  0.10781  0.97611  1.0000
  H   H780      1.0  0.92429  0.44978  0.82437  1.0000
  C   C968      1.0  0.61371  0.39556  0.95289  1.0000
  H   H781      1.0  0.86784  0.00615  0.94888  1.0000
  H   H782      1.0  0.71327  0.50000  0.84412  1.0000
  C   C969      1.0  0.54705  0.08680  0.83733  1.0000
  C   C970      1.0  0.55915  0.09355  0.73874  1.0000
  H   H783      1.0  0.99326  0.49534  0.85243  1.0000
  C   C971      1.0  0.00305  0.06155  0.92329  1.0000
  C   C972      1.0  0.68692  0.46078  0.90057  1.0000
  H   H784      1.0  0.54143  0.48367  0.89620  1.0000
  C   C973      1.0  0.86562  0.23810  0.93781  1.0000
  H   H785      1.0  0.96902  0.39969  0.80444  1.0000
  C   C974      1.0  0.66029  0.06903  0.85882  1.0000
  S   S145      1.0  0.82231  0.11450  0.95265  1.0000
  C   C975      1.0  0.79391  0.03689  0.94719  1.0000
  C   C976      1.0  0.95440  0.40723  0.00434  1.0000
  H   H786      1.0  0.54497  0.12263  0.69966  1.0000
  H   H787      1.0  0.53785  0.36044  0.78692  1.0000
  H   H788      1.0  0.59770  0.12297  0.67526  1.0000
  C   C977      1.0  0.96942  0.39894  0.71675  1.0000
  C   C978      1.0  0.82710  0.49639  0.73878  1.0000
  C   C979      1.0  0.58401  0.07712  0.75319  1.0000
  C   C980      1.0  0.78323  0.02678  0.97652  1.0000
  H   H789      1.0  0.60619  0.01428  0.83811  1.0000
  C   C981      1.0  0.52790  0.47734  0.77262  1.0000
  Fe  Fe74      1.0  0.86004  0.50106  0.94343  1.0000
  H   H790      1.0  0.75247  0.45836  0.85555  1.0000
  C   C982      1.0  0.64855  0.47199  0.75168  1.0000
  Fe  Fe75      1.0  0.87055  0.11188  0.97590  1.0000
  H   H791      1.0  0.66560  0.11430  0.83737  1.0000
  C   C983      1.0  0.61380  0.30535  0.94654  1.0000
  H   H792      1.0  0.85597  0.36264  0.78749  1.0000
  C   C984      1.0  0.63708  0.48648  0.89065  1.0000
  C   C985      1.0  0.81542  0.19751  0.95158  1.0000
  C   C986      1.0  0.65183  0.39142  0.99528  1.0000
  H   H793      1.0  0.67073  0.42512  0.71181  1.0000
  H   H794      1.0  0.88859  0.42351  0.86111  1.0000
  C   C987      1.0  0.52054  0.09921  0.85221  1.0000
  H   H795      1.0  0.56250  0.33114  0.99660  1.0000
  C   C988      1.0  0.64497  0.39674  0.96358  1.0000
  Fe  Fe76      1.0  0.92721  0.14982  0.00032  1.0000
  C   C989      1.0  0.98592  0.41137  0.90312  1.0000
  H   H796      1.0  0.87696  0.26066  0.81563  1.0000
  H   H797      1.0  0.97215  0.17675  0.91816  1.0000
  C   C990      1.0  0.00223  0.43787  0.99955  1.0000
  S   S146      1.0  0.55423  0.09061  0.99985  1.0000
  H   H798      1.0  0.58817  0.01713  0.73098  1.0000
  C   C991      1.0  0.64348  0.04090  0.85873  1.0000
  H   H799      1.0  0.98837  0.39829  0.73388  1.0000
  C   C992      1.0  0.88480  0.27507  0.83516  1.0000
  C   C993      1.0  0.89579  0.30546  0.82974  1.0000
  C   C994      1.0  0.90673  0.32366  0.85487  1.0000
  C   C995      1.0  0.90637  0.31162  0.88537  1.0000
  C   C996      1.0  0.89456  0.28155  0.89122  1.0000
  C   C997      1.0  0.88458  0.26298  0.86574  1.0000
  P   P31       1.0  0.89753  0.26493  0.93009  1.0000
  H   H800      1.0  0.85994  0.36368  0.97783  1.0000
  H   H801      1.0  0.54150  0.45509  0.94571  1.0000
  H   H802      1.0  0.58537  0.28098  0.91209  1.0000
  P   P32       1.0  0.57783  0.05468  0.78880  1.0000
  H   H803      1.0  0.61691  0.01322  0.93954  1.0000
  C   C998      1.0  0.59365  0.25274  0.95317  1.0000
  C   C999      1.0  0.83599  0.24233  0.92347  1.0000
  C   C1000     1.0  0.51328  0.06306  0.79787  1.0000
  C   C1001     1.0  0.52116  0.33597  0.82789  1.0000
  H   H804      1.0  0.66392  0.40233  0.94749  1.0000
  C   C1002     1.0  0.96955  0.20150  0.92315  1.0000
  C   C1003     1.0  0.61663  0.47980  0.75428  1.0000
  C   C1004     1.0  0.93590  0.24679  0.93101  1.0000
  C   C1005     1.0  0.54352  0.44202  0.92396  1.0000
  C   C1006     1.0  0.90926  0.43108  0.81574  1.0000
  P   P33       1.0  0.54839  0.38872  0.96098  1.0000
  C   C1007     1.0  0.87376  0.34263  0.98135  1.0000
  C   C1008     1.0  0.93950  0.21501  0.92345  1.0000
  C   C1009     1.0  0.50833  0.17370  0.99477  1.0000
  H   H805      1.0  0.89636  0.31472  0.80605  1.0000
  H   H806      1.0  0.91592  0.34702  0.85090  1.0000
  H   H807      1.0  0.91571  0.32568  0.90433  1.0000
  H   H808      1.0  0.87708  0.23902  0.86946  1.0000
  S   S147      1.0  0.88406  0.48297  0.90008  1.0000
  C   C1010     1.0  0.57181  0.01386  0.77917  1.0000
  H   H809      1.0  0.89691  0.43084  0.70314  1.0000
  H   H810      1.0  0.78841  0.22483  0.91867  1.0000
  H   H811      1.0  0.83204  0.26150  0.90734  1.0000
  C   C1011     1.0  0.53452  0.34880  0.95764  1.0000
  H   H812      1.0  0.89169  0.21127  0.97233  1.0000
  H   H813      1.0  0.54412  0.32654  0.83389  1.0000
  C   C1012     1.0  0.65292  0.09228  0.83693  1.0000
  H   H814      1.0  0.69683  0.30245  0.00046  1.0000
  H   H815      1.0  0.60150  0.46684  0.77012  1.0000
  H   H816      1.0  0.51493  0.04942  0.93958  1.0000
  H   H817      1.0  0.66725  0.22795  0.98551  1.0000
  H   H818      1.0  0.53649  0.48771  0.79422  1.0000
  H   H819      1.0  0.91919  0.20063  0.91785  1.0000
  C   C1013     1.0  0.81109  0.22186  0.93010  1.0000
  C   C1014     1.0  0.94222  0.41687  0.72216  1.0000
  H   H820      1.0  0.67859  0.07300  0.87627  1.0000
  H   H821      1.0  0.70095  0.43963  0.90203  1.0000
  C   C1015     1.0  0.62856  0.08750  0.81510  1.0000
  H   H822      1.0  0.96068  0.28989  0.94226  1.0000
  C   C1016     1.0  0.91806  0.41711  0.69942  1.0000
  H   H823      1.0  0.70726  0.10837  0.96399  1.0000
  H   H824      1.0  0.89104  0.38885  0.74991  1.0000
  C   C1017     1.0  0.87572  0.32040  0.95724  1.0000
  H   H825      1.0  0.59735  0.37875  0.70205  1.0000
  C   C1018     1.0  0.61928  0.03593  0.83683  1.0000
  C   C1019     1.0  0.96632  0.01431  0.99593  1.0000
  C   C1020     1.0  0.99561  0.46837  0.77325  1.0000
  P   P34       1.0  0.71005  0.47964  0.73000  1.0000
  C   C1021     1.0  0.72318  0.47214  0.76975  1.0000
  C   C1022     1.0  0.71709  0.44571  0.70561  1.0000
  C   C1023     1.0  0.54920  0.40995  0.86688  1.0000
  C   C1024     1.0  0.61380  0.07697  0.73877  1.0000
  H   H826      1.0  0.55117  0.39764  0.84470  1.0000
  C   C1025     1.0  0.54602  0.44248  0.86710  1.0000
  C   C1026     1.0  0.93235  0.49116  0.71706  1.0000
  C   C1027     1.0  0.61881  0.09363  0.71092  1.0000
  C   C1028     1.0  0.74403  0.46197  0.83169  1.0000
  C   C1029     1.0  0.75551  0.44343  0.80718  1.0000
  C   C1030     1.0  0.74540  0.44864  0.77625  1.0000
  C   C1031     1.0  0.96281  0.26513  0.93709  1.0000
  H   H827      1.0  0.53566  0.09341  0.74841  1.0000
  H   H828      1.0  0.99956  0.42805  0.88980  1.0000
  C   C1032     1.0  0.53470  0.44599  0.76563  1.0000
  C   C1033     1.0  0.54633  0.40931  0.92400  1.0000
  H   H829      1.0  0.62238  0.10627  0.79917  1.0000
  H   H830      1.0  0.52364  0.11310  0.87329  1.0000
  H   H831      1.0  0.57991  0.23302  0.94460  1.0000
  C   C1034     1.0  0.58907  0.38915  0.97398  1.0000
  H   H832      1.0  0.65782  0.45295  0.76575  1.0000
  H   H833      1.0  0.85462  0.37984  0.84340  1.0000
  H   H834      1.0  0.51613  0.15057  0.98804  1.0000
  H   H835      1.0  0.60892  0.40010  0.92833  1.0000
  H   H836      1.0  0.64175  0.09332  0.69980  1.0000
  C   C1035     1.0  0.87102  0.38162  0.79540  1.0000
  C   C1036     1.0  0.78738  0.11064  0.97478  1.0000
  C   C1037     1.0  0.50957  0.28785  0.95532  1.0000
  H   H837      1.0  0.61562  0.32652  0.93270  1.0000
  H   H838      1.0  0.99525  0.34720  0.94927  1.0000
  C   C1038     1.0  0.60496  0.42670  0.68835  1.0000
  H   H839      1.0  0.79633  0.18133  0.95654  1.0000
  C   C1039     1.0  0.89472  0.29378  0.96096  1.0000
  C   C1040     1.0  0.71162  0.49055  0.79456  1.0000
  C   C1041     1.0  0.54507  0.32584  0.97879  1.0000
  S   S148      1.0  0.62111  0.05017  0.00020  1.0000
  C   C1042     1.0  0.57597  0.02282  0.91109  1.0000
  C   C1043     1.0  0.82436  0.02950  0.93724  1.0000
  C   C1044     1.0  0.99280  0.25160  0.93666  1.0000
  C   C1045     1.0  0.53282  0.29550  0.97743  1.0000
  P   P35       1.0  0.93806  0.43994  0.75760  1.0000
  C   C1046     1.0  0.91044  0.28893  0.98968  1.0000
  H   H840      1.0  0.77904  0.05169  0.93273  1.0000
  C   C1047     1.0  0.92508  0.47892  0.74689  1.0000
  C   C1048     1.0  0.65481  0.45906  0.89306  1.0000
  H   H841      1.0  0.90477  0.03383  0.87989  1.0000
  H   H842      1.0  0.52531  0.10581  0.93500  1.0000
  C   C1049     1.0  0.80290  0.00875  0.99598  1.0000
  C   C1050     1.0  0.00143  0.38765  0.91997  1.0000
  H   H843      1.0  0.83302  0.03881  0.91523  1.0000
  H   H844      1.0  0.64853  0.02317  0.87626  1.0000
  C   C1051     1.0  0.70016  0.39600  0.68329  1.0000
  C   C1052     1.0  0.51765  0.35505  0.80150  1.0000
  H   H845      1.0  0.84767  0.17513  0.98355  1.0000
  H   H846      1.0  0.68227  0.37810  0.68027  1.0000
  H   H847      1.0  0.92425  0.26791  0.99352  1.0000
  H   H848      1.0  0.94817  0.00695  0.90716  1.0000
  C   C1053     1.0  0.60702  0.39431  0.68442  1.0000
  C   C1054     1.0  0.00384  0.19195  0.00141  1.0000
  Fe  Fe77      1.0  0.83652  0.48776  0.87702  1.0000
  C   C1055     1.0  0.98406  0.41978  0.80025  1.0000
  H   H849      1.0  0.91302  0.42648  0.98213  1.0000
  C   C1056     1.0  0.52458  0.43274  0.73715  1.0000
  C   C1057     1.0  0.60777  0.25127  0.98290  1.0000
  C   C1058     1.0  0.75313  0.41477  0.67392  1.0000
  C   C1059     1.0  0.98591  0.46047  0.98189  1.0000
  C   C1060     1.0  0.90886  0.49785  0.76846  1.0000
  H   H850      1.0  0.99341  0.36793  0.68471  1.0000
  C   C1061     1.0  0.84448  0.19390  0.96675  1.0000
  C   C1062     1.0  0.62558  0.27658  0.99445  1.0000
  C   C1063     1.0  0.66841  0.48891  0.73147  1.0000
  H   H851      1.0  0.76001  0.03396  0.98417  1.0000
  H   H852      1.0  0.60493  0.23027  0.99685  1.0000
  H   H853      1.0  0.69938  0.18025  0.99098  1.0000
  H   H854      1.0  0.54121  0.27799  0.99377  1.0000
  C   C1064     1.0  0.97236  0.38165  0.68890  1.0000
  C   C1065     1.0  0.00007  0.49665  0.90268  1.0000
  C   C1066     1.0  0.59629  0.38366  0.00567  1.0000
  H   H855      1.0  0.67594  0.39307  0.00367  1.0000
  H   H856      1.0  0.56039  0.44043  0.00550  1.0000
  H   H857      1.0  0.85509  0.00517  0.86729  1.0000
  H   H858      1.0  0.60326  0.50053  0.00592  1.0000
  Fe  Fe78      1.0  0.98170  0.88141  0.17942  1.0000
  S   S149      1.0  0.93683  0.86566  0.15576  1.0000
  S   S150      1.0  0.97821  0.89680  0.23039  1.0000
  H   H859      1.0  0.97065  0.92927  0.28909  1.0000
  S   S151      1.0  0.97977  0.84919  0.09390  1.0000
  Fe  Fe79      1.0  0.95502  0.89106  0.11364  1.0000
  S   S152      1.0  0.92095  0.91466  0.08067  1.0000
  Fe  Fe80      1.0  0.96465  0.82474  0.13796  1.0000
  S   S153      1.0  0.93834  0.77874  0.13271  1.0000
  C   C1067     1.0  0.90830  0.78785  0.27434  1.0000
  Fe  Fe81      1.0  0.92476  0.56034  0.14134  1.0000
  C   C1068     1.0  0.88082  0.54767  0.07579  1.0000
  S   S154      1.0  0.92764  0.58457  0.18825  1.0000
  H   H860      1.0  0.91702  0.86910  0.25313  1.0000
  C   C1069     1.0  0.84014  0.93050  0.08304  1.0000
  C   C1070     1.0  0.88426  0.54113  0.01003  1.0000
  C   C1071     1.0  0.92645  0.60596  0.28740  1.0000
  H   H861      1.0  0.61266  0.69121  0.04533  1.0000
  C   C1072     1.0  0.73433  0.96195  0.02986  1.0000
  H   H862      1.0  0.62690  0.93439  0.32856  1.0000
  C   C1073     1.0  0.83882  0.53640  0.29718  1.0000
  C   C1074     1.0  0.95725  0.72268  0.06943  1.0000
  H   H863      1.0  0.66809  0.51007  0.17007  1.0000
  H   H864      1.0  0.93153  0.63037  0.24326  1.0000
  C   C1075     1.0  0.52142  0.52583  0.15456  1.0000
  H   H865      1.0  0.82136  0.59760  0.23023  1.0000
  H   H866      1.0  0.78279  0.57148  0.19513  1.0000
  C   C1076     1.0  0.51312  0.00023  0.08919  1.0000
  C   C1077     1.0  0.99239  0.60561  0.28918  1.0000
  C   C1078     1.0  0.81275  0.93691  0.02349  1.0000
  C   C1079     1.0  0.90566  0.56139  0.05924  1.0000
  C   C1080     1.0  0.89807  0.93053  0.29998  1.0000
  H   H867      1.0  0.92333  0.57488  0.07159  1.0000
  C   C1081     1.0  0.91557  0.77389  0.21955  1.0000
  C   C1082     1.0  0.51882  0.89719  0.14947  1.0000
  C   C1083     1.0  0.00608  0.81233  0.29552  1.0000
  C   C1084     1.0  0.90712  0.55848  0.02641  1.0000
  H   H868      1.0  0.96759  0.74563  0.07240  1.0000
  C   C1085     1.0  0.72105  0.50816  0.23024  1.0000
  C   C1086     1.0  0.00342  0.58118  0.01119  1.0000
  C   C1087     1.0  0.99089  0.51905  0.02783  1.0000
  C   C1088     1.0  0.69079  0.51018  0.18197  1.0000
  C   C1089     1.0  0.95408  0.74376  0.14800  1.0000
  C   C1090     1.0  0.94914  0.68734  0.15551  1.0000
  C   C1091     1.0  0.93655  0.71596  0.14524  1.0000
  H   H869      1.0  0.93580  0.66592  0.15257  1.0000
  H   H870      1.0  0.91330  0.71650  0.13468  1.0000
  C   C1092     1.0  0.92324  0.95539  0.07684  1.0000
  C   C1093     1.0  0.94147  0.97327  0.09762  1.0000
  H   H871      1.0  0.85608  0.88550  0.06692  1.0000
  C   C1094     1.0  0.90556  0.97019  0.05322  1.0000
  H   H872      1.0  0.95508  0.96199  0.11590  1.0000
  C   C1095     1.0  0.92586  0.87094  0.30343  1.0000
  H   H873      1.0  0.89152  0.95632  0.03707  1.0000
  C   C1096     1.0  0.99811  0.97170  0.28616  1.0000
  H   H874      1.0  0.99725  0.76439  0.16501  1.0000
  H   H875      1.0  0.74485  0.52960  0.05040  1.0000
  C   C1097     1.0  0.94361  0.61968  0.26302  1.0000
  C   C1098     1.0  0.52377  0.98980  0.20592  1.0000
  H   H876      1.0  0.97988  0.53724  0.07350  1.0000
  C   C1099     1.0  0.71870  0.51188  0.16458  1.0000
  H   H877      1.0  0.82294  0.97656  0.09260  1.0000
  C   C1100     1.0  0.70149  0.95821  0.02920  1.0000
  C   C1101     1.0  0.97536  0.59220  0.31401  1.0000
  C   C1102     1.0  0.51895  0.50493  0.17973  1.0000
  C   C1103     1.0  0.82393  0.95795  0.07536  1.0000
  C   C1104     1.0  0.78040  0.53605  0.12219  1.0000
  H   H878      1.0  0.96732  0.83081  0.24111  1.0000
  C   C1105     1.0  0.94858  0.81369  0.24349  1.0000
  H   H879      1.0  0.84201  0.51335  0.01407  1.0000
  C   C1106     1.0  0.99390  0.57394  0.04172  1.0000
  H   H880      1.0  0.82458  0.55651  0.29096  1.0000
  C   C1107     1.0  0.81368  0.53287  0.18355  1.0000
  H   H881      1.0  0.83147  0.89092  0.01411  1.0000
  C   C1108     1.0  0.81005  0.96134  0.04551  1.0000
  H   H882      1.0  0.88454  0.68871  0.06748  1.0000
  H   H883      1.0  0.57525  0.59819  0.03437  1.0000
  C   C1109     1.0  0.74815  0.51189  0.17998  1.0000
  H   H884      1.0  0.00116  0.53394  0.29276  1.0000
  H   H885      1.0  0.88885  0.52534  0.21141  1.0000
  C   C1110     1.0  0.98585  0.94331  0.27443  1.0000
  H   H886      1.0  0.65634  0.98135  0.03246  1.0000
  H   H887      1.0  0.87446  0.57419  0.23865  1.0000
  H   H888      1.0  0.58971  0.68810  0.32872  1.0000
  C   C1111     1.0  0.59576  0.64368  0.04294  1.0000
  H   H889      1.0  0.95206  0.79910  0.19526  1.0000
  C   C1112     1.0  0.56237  0.53011  0.00974  1.0000
  S   S155      1.0  0.87809  0.55232  0.11685  1.0000
  H   H890      1.0  0.53506  0.99998  0.25462  1.0000
  H   H891      1.0  0.91749  0.64110  0.06155  1.0000
  C   C1113     1.0  0.53038  0.99771  0.17459  1.0000
  H   H892      1.0  0.77196  0.58078  0.04291  1.0000
  H   H893      1.0  0.60028  0.60526  0.27258  1.0000
  C   C1114     1.0  0.97654  0.61935  0.26388  1.0000
  H   H894      1.0  0.54520  0.91496  0.30611  1.0000
  S   S156      1.0  0.95037  0.51712  0.15700  1.0000
  C   C1115     1.0  0.85764  0.53065  0.05935  1.0000
  C   C1116     1.0  0.91001  0.69073  0.06671  1.0000
  H   H895      1.0  0.95868  0.98019  0.19761  1.0000
  C   C1117     1.0  0.93993  0.79580  0.21734  1.0000
  P   P36       1.0  0.94454  0.83294  0.30594  1.0000
  C   C1118     1.0  0.92435  0.72009  0.06942  1.0000
  H   H896      1.0  0.81114  0.57459  0.13570  1.0000
  C   C1119     1.0  0.86464  0.53993  0.31741  1.0000
  C   C1120     1.0  0.82746  0.57574  0.21887  1.0000
  H   H897      1.0  0.90895  0.76019  0.19904  1.0000
  S   S157      1.0  0.00220  0.56471  0.18927  1.0000
  P   P37       1.0  0.78482  0.51408  0.15827  1.0000
  H   H898      1.0  0.89333  0.92131  0.25033  1.0000
  H   H899      1.0  0.83809  0.52037  0.07188  1.0000
  C   C1121     1.0  0.91457  0.88248  0.27459  1.0000
  C   C1122     1.0  0.90887  0.91908  0.32882  1.0000
  H   H900      1.0  0.71690  0.51296  0.13927  1.0000
  C   C1123     1.0  0.76275  0.52327  0.09727  1.0000
  H   H901      1.0  0.85172  0.92829  0.10573  1.0000
  C   C1124     1.0  0.77428  0.56836  0.06497  1.0000
  H   H902      1.0  0.61101  0.63543  0.06171  1.0000
  C   C1125     1.0  0.85729  0.56266  0.22360  1.0000
  H   H903      1.0  0.61510  0.99093  0.33551  1.0000
  C   C1126     1.0  0.97616  0.69591  0.06640  1.0000
  H   H904      1.0  0.88780  0.95369  0.29862  1.0000
  C   C1127     1.0  0.59340  0.61630  0.29448  1.0000
  H   H905      1.0  0.53726  0.54570  0.15630  1.0000
  C   C1128     1.0  0.69197  0.50859  0.21474  1.0000
  C   C1129     1.0  0.98700  0.83744  0.30514  1.0000
  C   C1130     1.0  0.79585  0.56482  0.11776  1.0000
  H   H906      1.0  0.60479  0.66289  0.27892  1.0000
  C   C1131     1.0  0.93295  0.80976  0.27225  1.0000
  H   H907      1.0  0.80556  0.60254  0.08571  1.0000
  C   C1132     1.0  0.98368  0.74307  0.16255  1.0000
  S   S158      1.0  0.94598  0.52388  0.25115  1.0000
  H   H908      1.0  0.90757  0.97996  0.16918  1.0000
  H   H909      1.0  0.99929  0.90381  0.00796  1.0000
  C   C1133     1.0  0.58739  0.66297  0.32649  1.0000
  C   C1134     1.0  0.79288  0.58080  0.08920  1.0000
  C   C1135     1.0  0.86538  0.53488  0.20837  1.0000
  H   H910      1.0  0.54412  0.94074  0.25400  1.0000
  C   C1136     1.0  0.59598  0.64874  0.29810  1.0000
  C   C1137     1.0  0.59657  0.67510  0.03377  1.0000
  Fe  Fe82      1.0  0.95624  0.54279  0.20273  1.0000
  H   H911      1.0  0.51644  0.98792  0.15552  1.0000
  H   H912      1.0  0.89563  0.78463  0.29613  1.0000
  Fe  Fe83      1.0  0.97330  0.60470  0.17108  1.0000
  H   H913      1.0  0.98433  0.92162  0.06127  1.0000
  C   C1138     1.0  0.80573  0.56093  0.19891  1.0000
  H   H914      1.0  0.90094  0.60581  0.28641  1.0000
  C   C1139     1.0  0.85972  0.52680  0.02657  1.0000
  C   C1140     1.0  0.84368  0.51990  0.18854  1.0000
  H   H915      1.0  0.54114  0.93493  0.17415  1.0000
  C   C1141     1.0  0.98738  0.54296  0.04990  1.0000
  C   C1142     1.0  0.90098  0.91225  0.27287  1.0000
  H   H916      1.0  0.52873  0.98173  0.09688  1.0000
  C   C1143     1.0  0.89971  0.76994  0.24803  1.0000
  H   H917      1.0  0.91009  0.74088  0.07275  1.0000
  C   C1144     1.0  0.58206  0.59804  0.31920  1.0000
  H   H918      1.0  0.88070  0.75307  0.24963  1.0000
  C   C1145     1.0  0.90535  0.00292  0.05099  1.0000
  C   C1146     1.0  0.75918  0.53958  0.06907  1.0000
  S   S159      1.0  0.96783  0.58455  0.12267  1.0000
  S   S160      1.0  0.56003  0.52872  0.05111  1.0000
  C   C1147     1.0  0.52221  0.93674  0.26637  1.0000
  C   C1148     1.0  0.00134  0.86583  0.31386  1.0000
  C   C1149     1.0  0.97893  0.68663  0.16967  1.0000
  C   C1150     1.0  0.52289  0.92186  0.29571  1.0000
  C   C1151     1.0  0.84272  0.90634  0.06103  1.0000
  H   H919      1.0  0.53312  0.50907  0.20054  1.0000
  C   C1152     1.0  0.92304  0.88959  0.33047  1.0000
  S   S161      1.0  0.99773  0.91041  0.13844  1.0000
  C   C1153     1.0  0.94224  0.59224  0.31286  1.0000
  C   C1154     1.0  0.99307  0.93310  0.24384  1.0000
  C   C1155     1.0  0.82905  0.90953  0.03126  1.0000
  C   C1156     1.0  0.88318  0.51404  0.32510  1.0000
  C   C1157     1.0  0.57690  0.68566  0.00946  1.0000
  C   C1158     1.0  0.74773  0.99178  0.03423  1.0000
  C   C1159     1.0  0.57555  0.62271  0.02760  1.0000
  H   H920      1.0  0.98985  0.62966  0.24483  1.0000
  C   C1160     1.0  0.51932  0.92221  0.17073  1.0000
  H   H921      1.0  0.69124  0.93522  0.02562  1.0000
  H   H922      1.0  0.59895  0.51323  0.25949  1.0000
  H   H923      1.0  0.51359  0.52382  0.29624  1.0000
  H   H924      1.0  0.67029  0.50757  0.22809  1.0000
  H   H925      1.0  0.74897  0.94152  0.02689  1.0000
  H   H926      1.0  0.91984  0.88401  0.02460  1.0000
  C   C1161     1.0  0.99590  0.71458  0.17366  1.0000
  H   H927      1.0  0.58029  0.57283  0.31665  1.0000
  Fe  Fe84      1.0  0.99388  0.54296  0.14189  1.0000
  H   H928      1.0  0.77128  0.50847  0.22544  1.0000
  S   S162      1.0  0.99580  0.65132  0.18262  1.0000
  P   P38       1.0  0.79014  0.99717  0.03473  1.0000
  H   H929      1.0  0.99259  0.97926  0.30982  1.0000
  H   H930      1.0  0.98736  0.88556  0.32144  1.0000
  C   C1162     1.0  0.00497  0.93134  0.05004  1.0000
  H   H931      1.0  0.97526  0.64553  0.06005  1.0000
  C   C1163     1.0  0.96148  0.66653  0.06308  1.0000
  C   C1164     1.0  0.92858  0.66394  0.06353  1.0000
  H   H932      1.0  0.99172  0.59224  0.05913  1.0000
  H   H933      1.0  0.53991  0.99856  0.01640  1.0000
  C   C1165     1.0  0.94910  0.00192  0.18856  1.0000
  C   C1166     1.0  0.74902  0.50944  0.21297  1.0000
  H   H934      1.0  0.99558  0.79021  0.28863  1.0000
  H   H935      1.0  0.87041  0.56276  0.32697  1.0000
  H   H936      1.0  0.53975  0.89146  0.13613  1.0000
  C   C1167     1.0  0.92009  0.00182  0.17284  1.0000
  S   S163      1.0  0.62909  0.50567  0.10963  1.0000
  H   H937      1.0  0.51838  0.72167  0.01242  1.0000
  H   H938      1.0  0.92859  0.58160  0.33136  1.0000
  H   H939      1.0  0.92608  0.56963  0.01366  1.0000
  C   C1168     1.0  0.83154  0.50698  0.28461  1.0000
  C   C1169     1.0  0.68179  0.98413  0.03305  1.0000
  H   H940      1.0  0.72182  0.50655  0.25567  1.0000
  H   H941      1.0  0.81179  0.50480  0.26853  1.0000
  Fe  Fe85      1.0  0.65186  0.81284  0.49121  1.0000
  S   S164      1.0  0.63144  0.79422  0.53627  1.0000
  S   S165      1.0  0.70142  0.81288  0.47116  1.0000
  Fe  Fe86      1.0  0.58703  0.82777  0.46347  1.0000
  S   S166      1.0  0.56078  0.81115  0.50595  1.0000
  S   S167      1.0  0.56636  0.84843  0.41922  1.0000
  Fe  Fe87      1.0  0.59860  0.83558  0.53365  1.0000
  S   S168      1.0  0.58213  0.85949  0.57795  1.0000
  Fe  Fe88      1.0  0.59486  0.77118  0.50573  1.0000
  S   S169      1.0  0.58144  0.72091  0.51372  1.0000
  S   S170      1.0  0.62192  0.85621  0.49110  1.0000
  S   S171      1.0  0.61802  0.78565  0.46083  1.0000
  S   S172      1.0  0.59403  0.54897  0.40732  1.0000
  S   S173      1.0  0.90211  0.56447  0.62024  1.0000
  Fe  Fe89      1.0  0.87942  0.83736  0.51482  1.0000
  S   S174      1.0  0.89124  0.82072  0.46617  1.0000
  S   S175      1.0  0.83264  0.83595  0.54063  1.0000
  Fe  Fe90      1.0  0.94737  0.85655  0.52837  1.0000
  S   S176      1.0  0.96521  0.84119  0.48136  1.0000
  S   S177      1.0  0.97514  0.88378  0.56419  1.0000
  Fe  Fe91      1.0  0.92133  0.86397  0.46276  1.0000
  S   S178      1.0  0.92676  0.89052  0.41745  1.0000
  Fe  Fe92      1.0  0.93424  0.79922  0.48853  1.0000
  S   S179      1.0  0.94821  0.75065  0.47270  1.0000
  S   S180      1.0  0.90568  0.88274  0.50928  1.0000
  S   S181      1.0  0.92025  0.81240  0.53768  1.0000
  H   H942      1.0  0.97955  0.92514  0.50947  1.0000
  C   C1170     1.0  0.92921  0.98140  0.44561  1.0000
  C   C1171     1.0  0.92401  0.94888  0.44519  1.0000
  C   C1172     1.0  0.93544  0.93077  0.42030  1.0000
  C   C1173     1.0  0.95268  0.94520  0.39626  1.0000
  C   C1174     1.0  0.95828  0.97758  0.39693  1.0000
  H   H943      1.0  0.53726  0.66439  0.58808  1.0000
  H   H944      1.0  0.91049  0.93800  0.46369  1.0000
  H   H945      1.0  0.96159  0.93139  0.37691  1.0000
  H   H946      1.0  0.97104  0.98851  0.37796  1.0000
  C   C1175     1.0  0.61356  0.62513  0.41432  1.0000
  H   H947      1.0  0.52061  0.54092  0.51494  1.0000
  C   C1176     1.0  0.58061  0.85425  0.66426  1.0000
  C   C1177     1.0  0.57568  0.76995  0.38253  1.0000
  H   H948      1.0  0.97519  0.78491  0.34506  1.0000
  C   C1178     1.0  0.54147  0.52959  0.66932  1.0000
  C   C1179     1.0  0.98092  0.73383  0.49177  1.0000
  C   C1180     1.0  0.59400  0.71542  0.59637  1.0000
  C   C1181     1.0  0.99000  0.70323  0.48398  1.0000
  H   H949      1.0  0.95901  0.75824  0.39397  1.0000
  H   H950      1.0  0.97642  0.69009  0.46690  1.0000
  C   C1182     1.0  0.94656  0.70538  0.60639  1.0000
  C   C1183     1.0  0.95937  0.58362  0.59710  1.0000
  C   C1184     1.0  0.94209  0.55906  0.61062  1.0000
  C   C1185     1.0  0.95721  0.53086  0.61752  1.0000
  C   C1186     1.0  0.51429  0.62159  0.60296  1.0000
  H   H951      1.0  0.94776  0.60554  0.59198  1.0000
  C   C1187     1.0  0.62522  0.72519  0.60053  1.0000
  H   H952      1.0  0.53653  0.78635  0.60004  1.0000
  C   C1188     1.0  0.55290  0.55081  0.41241  1.0000
  H   H953      1.0  0.87196  0.80933  0.39367  1.0000
  H   H954      1.0  0.55514  0.59471  0.43692  1.0000
  H   H955      1.0  0.90658  0.93318  0.34991  1.0000
  H   H956      1.0  0.99189  0.77457  0.51965  1.0000
  H   H957      1.0  0.93203  0.88139  0.35281  1.0000
  C   C1189     1.0  0.79155  0.92613  0.48646  1.0000
  C   C1190     1.0  0.73737  0.82006  0.49114  1.0000
  C   C1191     1.0  0.76547  0.82013  0.47371  1.0000
  C   C1192     1.0  0.79478  0.82518  0.48854  1.0000
  C   C1193     1.0  0.79621  0.83014  0.52100  1.0000
  C   C1194     1.0  0.76807  0.83039  0.53843  1.0000
  C   C1195     1.0  0.73870  0.82543  0.52357  1.0000
  H   H958      1.0  0.76456  0.81612  0.44859  1.0000
  H   H959      1.0  0.81624  0.82512  0.47489  1.0000
  H   H960      1.0  0.76904  0.83434  0.56355  1.0000
  H   H961      1.0  0.71722  0.82541  0.53719  1.0000
  C   C1196     1.0  0.57644  0.96617  0.57428  1.0000
  C   C1197     1.0  0.58997  0.94951  0.54937  1.0000
  C   C1198     1.0  0.59183  0.91681  0.55041  1.0000
  C   C1199     1.0  0.57999  0.90054  0.57629  1.0000
  C   C1200     1.0  0.56578  0.91716  0.60095  1.0000
  C   C1201     1.0  0.56395  0.94998  0.59993  1.0000
  H   H962      1.0  0.59878  0.96195  0.52910  1.0000
  H   H963      1.0  0.60259  0.90430  0.53126  1.0000
  H   H964      1.0  0.55588  0.90472  0.62070  1.0000
  H   H965      1.0  0.55317  0.96276  0.61906  1.0000
  H   H966      1.0  0.66492  0.58647  0.63691  1.0000
  C   C1202     1.0  0.61263  0.65470  0.47282  1.0000
  C   C1203     1.0  0.59118  0.65775  0.66796  1.0000
  C   C1204     1.0  0.97105  0.55067  0.37010  1.0000
  H   H967      1.0  0.52111  0.80816  0.45033  1.0000
  H   H968      1.0  0.96017  0.71836  0.62364  1.0000
  C   C1205     1.0  0.50858  0.99417  0.39714  1.0000
  H   H969      1.0  0.61971  0.70454  0.39385  1.0000
  C   C1206     1.0  0.62400  0.51831  0.62799  1.0000
  C   C1207     1.0  0.68439  0.93246  0.58388  1.0000
  H   H970      1.0  0.81000  0.56399  0.53127  1.0000
  H   H971      1.0  0.65005  0.97513  0.54728  1.0000
  C   C1208     1.0  0.52463  0.65341  0.39827  1.0000
  C   C1209     1.0  0.59895  0.71870  0.38954  1.0000
  P   P39       1.0  0.53789  0.97398  0.42044  1.0000
  C   C1210     1.0  0.97270  0.51794  0.36759  1.0000
  P   P40       1.0  0.54691  0.76431  0.66440  1.0000
  C   C1211     1.0  0.61010  0.94189  0.34618  1.0000
  H   H972      1.0  0.91375  0.91344  0.65683  1.0000
  H   H973      1.0  0.83211  0.90605  0.50967  1.0000
  C   C1212     1.0  0.52657  0.89687  0.47612  1.0000
  C   C1213     1.0  0.59212  0.66459  0.44894  1.0000
  H   H974      1.0  0.73975  0.99433  0.50353  1.0000
  C   C1214     1.0  0.98957  0.52749  0.61167  1.0000
  C   C1215     1.0  0.99161  0.57983  0.59021  1.0000
  C   C1216     1.0  0.63028  0.64808  0.62785  1.0000
  C   C1217     1.0  0.60218  0.75120  0.38762  1.0000
  H   H975      1.0  0.00482  0.59876  0.57974  1.0000
  H   H976      1.0  0.88748  0.83623  0.34499  1.0000
  H   H977      1.0  0.52658  0.61861  0.54115  1.0000
  C   C1218     1.0  0.57776  0.74833  0.64004  1.0000
  C   C1219     1.0  0.96353  0.91797  0.64820  1.0000
  C   C1220     1.0  0.74388  0.92992  0.51795  1.0000
  H   H978      1.0  0.99894  0.89809  0.41326  1.0000
  H   H979      1.0  0.61268  0.66647  0.49538  1.0000
  C   C1221     1.0  0.65102  0.90297  0.43157  1.0000
  C   C1222     1.0  0.63022  0.54950  0.63608  1.0000
  P   P41       1.0  0.99643  0.57558  0.34697  1.0000
  C   C1223     1.0  0.63333  0.62990  0.46759  1.0000
  C   C1224     1.0  0.63384  0.61518  0.43830  1.0000
  H   H980      1.0  0.54623  0.71936  0.61210  1.0000
  H   H981      1.0  0.64908  0.62221  0.48614  1.0000
  H   H982      1.0  0.64974  0.59578  0.43408  1.0000
  C   C1225     1.0  0.53994  0.57604  0.42892  1.0000
  H   H983      1.0  0.54314  0.51276  0.46913  1.0000
  C   C1226     1.0  0.85626  0.62280  0.58385  1.0000
  C   C1227     1.0  0.86080  0.62313  0.55116  1.0000
  C   C1228     1.0  0.84412  0.60165  0.53226  1.0000
  P   P42       1.0  0.88797  0.65031  0.53307  1.0000
  C   C1229     1.0  0.86680  0.68030  0.51167  1.0000
  C   C1230     1.0  0.91112  0.67106  0.56225  1.0000
  C   C1231     1.0  0.89637  0.69307  0.58187  1.0000
  C   C1232     1.0  0.91401  0.70999  0.60399  1.0000
  H   H984      1.0  0.59297  0.86934  0.64795  1.0000
  C   C1233     1.0  0.96155  0.68428  0.58627  1.0000
  C   C1234     1.0  0.94398  0.66711  0.56432  1.0000
  C   C1235     1.0  0.88233  0.70831  0.50405  1.0000
  C   C1236     1.0  0.86581  0.73299  0.49013  1.0000
  C   C1237     1.0  0.83361  0.73004  0.48370  1.0000
  C   C1238     1.0  0.81794  0.70219  0.49095  1.0000
  C   C1239     1.0  0.83439  0.67740  0.50495  1.0000
  C   C1240     1.0  0.91443  0.62812  0.50844  1.0000
  C   C1241     1.0  0.92437  0.59828  0.51817  1.0000
  C   C1242     1.0  0.94680  0.58178  0.50077  1.0000
  C   C1243     1.0  0.95968  0.59500  0.47366  1.0000
  C   C1244     1.0  0.94980  0.62460  0.46372  1.0000
  C   C1245     1.0  0.92727  0.64118  0.48104  1.0000
  C   C1246     1.0  0.54261  0.72368  0.38059  1.0000
  H   H985      1.0  0.97612  0.84752  0.39712  1.0000
  H   H986      1.0  0.84776  0.60104  0.50707  1.0000
  H   H987      1.0  0.87120  0.69719  0.57995  1.0000
  C   C1247     1.0  0.60943  0.75671  0.64521  1.0000
  C   C1248     1.0  0.69582  0.98028  0.52536  1.0000
  H   H988      1.0  0.98685  0.68131  0.58738  1.0000
  H   H989      1.0  0.95632  0.65104  0.54901  1.0000
  H   H990      1.0  0.90715  0.71141  0.50949  1.0000
  H   H991      1.0  0.87800  0.75463  0.48481  1.0000
  H   H992      1.0  0.82075  0.74952  0.47350  1.0000
  H   H993      1.0  0.79287  0.70008  0.48622  1.0000
  H   H994      1.0  0.82146  0.65650  0.51104  1.0000
  H   H995      1.0  0.91540  0.58799  0.53968  1.0000
  C   C1249     1.0  0.79225  0.90918  0.54069  1.0000
  H   H996      1.0  0.64991  0.87359  0.62525  1.0000
  H   H997      1.0  0.96012  0.63504  0.44295  1.0000
  H   H998      1.0  0.92055  0.66441  0.47342  1.0000
  C   C1250     1.0  0.93633  0.92089  0.66637  1.0000
  C   C1251     1.0  0.56912  0.70469  0.38613  1.0000
  C   C1252     1.0  0.90345  0.81933  0.35533  1.0000
  C   C1253     1.0  0.82271  0.58073  0.54580  1.0000
  C   C1254     1.0  0.67833  0.88805  0.44223  1.0000
  H   H999      1.0  0.56458  0.59770  0.36643  1.0000
  H   H1000     1.0  0.71433  0.88615  0.47767  1.0000
  H   H1001     1.0  0.68696  0.86734  0.43024  1.0000
  H   H1002     1.0  0.54838  0.66372  0.50513  1.0000
  H   H1003     1.0  0.61512  0.61336  0.39194  1.0000
  H   H1004     1.0  0.61791  0.94013  0.43978  1.0000
  H   H1005     1.0  0.69274  0.95617  0.58732  1.0000
  C   C1255     1.0  0.52504  0.84560  0.41676  1.0000
  H   H1006     1.0  0.75327  0.54418  0.64404  1.0000
  C   C1256     1.0  0.54431  0.56162  0.62220  1.0000
  C   C1257     1.0  0.53115  0.68139  0.51083  1.0000
  P   P43       1.0  0.55028  0.59905  0.60325  1.0000
  C   C1258     1.0  0.57891  0.62277  0.62427  1.0000
  C   C1259     1.0  0.56330  0.59128  0.56354  1.0000
  C   C1260     1.0  0.58888  0.57108  0.55802  1.0000
  C   C1261     1.0  0.59847  0.56448  0.52727  1.0000
  C   C1262     1.0  0.58235  0.57762  0.50182  1.0000
  C   C1263     1.0  0.55668  0.59739  0.50718  1.0000
  C   C1264     1.0  0.54702  0.60395  0.53781  1.0000
  C   C1265     1.0  0.67114  0.91660  0.60936  1.0000
  C   C1266     1.0  0.57002  0.63795  0.65223  1.0000
  C   C1267     1.0  0.58181  0.98332  0.37294  1.0000
  C   C1268     1.0  0.98330  0.81072  0.60510  1.0000
  H   H1007     1.0  0.80359  0.92904  0.46421  1.0000
  H   H1008     1.0  0.00053  0.64473  0.34014  1.0000
  C   C1269     1.0  0.68644  0.91784  0.55431  1.0000
  C   C1270     1.0  0.52038  0.50596  0.47841  1.0000
  H   H1009     1.0  0.52615  0.75892  0.52746  1.0000
  H   H1010     1.0  0.60130  0.56032  0.57744  1.0000
  H   H1011     1.0  0.61832  0.54910  0.52303  1.0000
  H   H1012     1.0  0.58968  0.57237  0.47795  1.0000
  H   H1013     1.0  0.54396  0.60766  0.48767  1.0000
  H   H1014     1.0  0.52634  0.95415  0.52221  1.0000
  C   C1271     1.0  0.94649  0.99581  0.42157  1.0000
  C   C1272     1.0  0.57606  0.64477  0.35153  1.0000
  P   P44       1.0  0.56531  0.66267  0.38869  1.0000
  H   H1015     1.0  0.96469  0.82539  0.59569  1.0000
  H   H1016     1.0  0.97463  0.98276  0.50528  1.0000
  H   H1017     1.0  0.54647  0.63495  0.66163  1.0000
  C   C1273     1.0  0.66764  0.99131  0.53868  1.0000
  H   H1018     1.0  0.62518  0.76198  0.39065  1.0000
  C   C1274     1.0  0.52042  0.94182  0.44173  1.0000
  H   H1019     1.0  0.90753  0.77006  0.41808  1.0000
  C   C1275     1.0  0.93043  0.54510  0.41000  1.0000
  C   C1276     1.0  0.62131  0.66279  0.65579  1.0000
  H   H1020     1.0  0.64326  0.71722  0.58440  1.0000
  C   C1277     1.0  0.53658  0.53511  0.60402  1.0000
  C   C1278     1.0  0.57278  0.82368  0.65534  1.0000
  C   C1279     1.0  0.00683  0.55181  0.59799  1.0000
  H   H1021     1.0  0.63844  0.89373  0.41136  1.0000
  C   C1280     1.0  0.99271  0.92756  0.66027  1.0000
  C   C1281     1.0  0.54101  0.71224  0.51586  1.0000
  C   C1282     1.0  0.89438  0.80388  0.38281  1.0000
  C   C1283     1.0  0.59490  0.91971  0.36489  1.0000
  C   C1284     1.0  0.99186  0.97046  0.49119  1.0000
  C   C1285     1.0  0.69384  0.89886  0.46924  1.0000
  H   H1022     1.0  0.66870  0.92830  0.63184  1.0000
  C   C1286     1.0  0.99865  0.75088  0.51368  1.0000
  H   H1023     1.0  0.61648  0.61801  0.58999  1.0000
  C   C1287     1.0  0.00135  0.84943  0.40115  1.0000
  C   C1288     1.0  0.60917  0.62830  0.61201  1.0000
  C   C1289     1.0  0.66014  0.56223  0.63106  1.0000
  C   C1290     1.0  0.57036  0.72677  0.61613  1.0000
  C   C1291     1.0  0.91443  0.78186  0.39661  1.0000
  H   H1024     1.0  0.54177  0.88066  0.48855  1.0000
  C   C1292     1.0  0.63934  0.92894  0.44777  1.0000
  C   C1293     1.0  0.57328  0.61221  0.34748  1.0000
  C   C1294     1.0  0.54588  0.55876  0.65509  1.0000
  H   H1025     1.0  0.65342  0.65259  0.61804  1.0000
  H   H1026     1.0  0.70679  0.55373  0.61289  1.0000
  H   H1027     1.0  0.63749  0.67858  0.66770  1.0000
  C   C1295     1.0  0.94354  0.77520  0.38293  1.0000
  C   C1296     1.0  0.76047  0.91738  0.54369  1.0000
  H   H1028     1.0  0.57821  0.79516  0.38145  1.0000
  H   H1029     1.0  0.90344  0.51688  0.34046  1.0000
  H   H1030     1.0  0.67914  0.87435  0.52896  1.0000
  C   C1297     1.0  0.56692  0.96119  0.39224  1.0000
  Fe  Fe93      1.0  0.87232  0.52060  0.61956  1.0000
  H   H1031     1.0  0.65586  0.84678  0.57410  1.0000
  H   H1032     1.0  0.56191  0.91173  0.40177  1.0000
  H   H1033     1.0  0.96199  0.90826  0.62466  1.0000
  C   C1298     1.0  0.95268  0.79058  0.35539  1.0000
  H   H1034     1.0  0.00146  0.50603  0.61789  1.0000
  C   C1299     1.0  0.68382  0.54377  0.61793  1.0000
  H   H1035     1.0  0.90245  0.72687  0.61908  1.0000
  C   C1300     1.0  0.66069  0.88578  0.60574  1.0000
  C   C1301     1.0  0.66394  0.87066  0.57679  1.0000
  S   S182      1.0  0.82537  0.51877  0.64394  1.0000
  C   C1302     1.0  0.81801  0.58094  0.57828  1.0000
  H   H1036     1.0  0.74743  0.94383  0.46911  1.0000
  C   C1303     1.0  0.80772  0.91334  0.51207  1.0000
  C   C1304     1.0  0.65486  0.93994  0.47474  1.0000
  C   C1305     1.0  0.68238  0.92507  0.48561  1.0000
  H   H1037     1.0  0.65724  0.75305  0.62842  1.0000
  H   H1038     1.0  0.52113  0.90014  0.54295  1.0000
  H   H1039     1.0  0.60039  0.50910  0.63083  1.0000
  C   C1306     1.0  0.53295  0.52766  0.40020  1.0000
  C   C1307     1.0  0.99453  0.93797  0.49341  1.0000
  H   H1040     1.0  0.59967  0.89494  0.36184  1.0000
  H   H1041     1.0  0.83227  0.60098  0.62259  1.0000
  C   C1308     1.0  0.59185  0.64945  0.41957  1.0000
  H   H1042     1.0  0.80184  0.56443  0.58881  1.0000
  P   P45       1.0  0.70222  0.93860  0.52087  1.0000
  H   H1043     1.0  0.70198  0.51946  0.54531  1.0000
  C   C1309     1.0  0.71780  0.50449  0.53233  1.0000
  H   H1044     1.0  0.95455  0.55896  0.50881  1.0000
  C   C1310     1.0  0.63301  0.74549  0.62521  1.0000
  H   H1045     1.0  0.74891  0.91321  0.56592  1.0000
  C   C1311     1.0  0.98635  0.77985  0.59475  1.0000
  H   H1046     1.0  0.57707  0.68455  0.45332  1.0000
  H   H1047     1.0  0.94822  0.58931  0.39392  1.0000
  H   H1048     1.0  0.56513  0.92466  0.45963  1.0000
  C   C1312     1.0  0.94974  0.56411  0.39146  1.0000
  C   C1313     1.0  0.57342  0.92932  0.38778  1.0000
  H   H1049     1.0  0.61174  0.56397  0.64578  1.0000
  C   C1314     1.0  0.54590  0.75624  0.37911  1.0000
  C   C1315     1.0  0.00019  0.50691  0.46676  1.0000
  C   C1316     1.0  0.67680  0.88655  0.55116  1.0000
  C   C1317     1.0  0.53977  0.92166  0.45932  1.0000
  H   H1050     1.0  0.91436  0.55553  0.42677  1.0000
  C   C1318     1.0  0.71797  0.00202  0.51417  1.0000
  H   H1051     1.0  0.97012  0.77064  0.57722  1.0000
  H   H1052     1.0  0.53336  0.53679  0.57879  1.0000
  H   H1053     1.0  0.64499  0.95966  0.48722  1.0000
  H   H1054     1.0  0.80475  0.89856  0.56025  1.0000
  C   C1319     1.0  0.83486  0.60183  0.59728  1.0000
  C   C1320     1.0  0.75977  0.93445  0.48936  1.0000
  H   H1055     1.0  0.86980  0.63785  0.59927  1.0000
  C   C1321     1.0  0.53252  0.50598  0.61832  1.0000
  H   H1056     1.0  0.54255  0.50852  0.38674  1.0000
  H   H1057     1.0  0.97761  0.58247  0.46063  1.0000
  H   H1058     1.0  0.52484  0.67886  0.44247  1.0000
  C   C1322     1.0  0.67794  0.51237  0.61072  1.0000
  H   H1059     1.0  0.61582  0.77259  0.66410  1.0000
  H   H1060     1.0  0.57923  0.81568  0.63204  1.0000
  H   H1061     1.0  0.52102  0.88143  0.38142  1.0000
  C   C1323     1.0  0.51869  0.73519  0.52301  1.0000
  C   C1324     1.0  0.75170  0.54124  0.66929  1.0000
  H   H1062     1.0  0.58803  0.69963  0.57727  1.0000
  H   H1063     1.0  0.51015  0.00270  0.47554  1.0000
  H   H1064     1.0  0.91998  0.99540  0.46467  1.0000
  H   H1065     1.0  0.99229  0.52405  0.44978  1.0000
  H   H1066     1.0  0.94423  0.51197  0.62823  1.0000
  C   C1325     1.0  0.93209  0.51257  0.40718  1.0000
  S   S183      1.0  0.75967  0.51309  0.58132  1.0000
  C   C1326     1.0  0.60350  0.97371  0.35016  1.0000
  C   C1327     1.0  0.55434  0.99910  0.45042  1.0000
  C   C1328     1.0  0.51399  0.77903  0.60957  1.0000
  H   H1067     1.0  0.60233  0.99863  0.43281  1.0000
  H   H1068     1.0  0.51421  0.62843  0.35476  1.0000
  H   H1069     1.0  0.51939  0.71350  0.37756  1.0000
  C   C1329     1.0  0.50847  0.82447  0.43557  1.0000
  H   H1070     1.0  0.52541  0.77101  0.37551  1.0000
  H   H1071     1.0  0.55034  0.57887  0.66989  1.0000
  C   C1330     1.0  0.51168  0.76808  0.64063  1.0000
  C   C1331     1.0  0.51523  0.65344  0.59480  1.0000
  C   C1332     1.0  0.00491  0.82305  0.62674  1.0000
  H   H1072     1.0  0.00321  0.84745  0.63362  1.0000
  H   H1073     1.0  0.51375  0.70422  0.66999  1.0000
  C   C1333     1.0  0.93289  0.81311  0.34161  1.0000
  H   H1074     1.0  0.98909  0.50676  0.35171  1.0000
  C   C1334     1.0  0.51110  0.66503  0.42610  1.0000
  C   C1335     1.0  0.50840  0.86565  0.39664  1.0000
  H   H1075     1.0  0.98623  0.69236  0.00300  1.0000
  C   C1336     1.0  0.54199  0.73728  0.69681  1.0000
  S   S184      1.0  0.55039  0.86126  0.82026  1.0000
  H   H1076     1.0  0.58012  0.71254  0.92591  1.0000
  C   C1337     1.0  0.98865  0.50769  0.93164  1.0000
  S   S185      1.0  0.54612  0.77456  0.84458  1.0000
  Fe  Fe94      1.0  0.54061  0.89089  0.86286  1.0000
  S   S186      1.0  0.57931  0.91811  0.88748  1.0000
  C   C1338     1.0  0.96755  0.94283  0.70899  1.0000
  C   C1339     1.0  0.54053  0.54838  0.99311  1.0000
  S   S187      1.0  0.88613  0.53951  0.96879  1.0000
  H   H1077     1.0  0.53969  0.61965  0.92445  1.0000
  C   C1340     1.0  0.59641  0.65115  0.87794  1.0000
  C   C1341     1.0  0.75045  0.53159  0.73428  1.0000
  H   H1078     1.0  0.78317  0.57017  0.73707  1.0000
  S   S188      1.0  0.57240  0.54341  0.90325  1.0000
  H   H1079     1.0  0.60740  0.50639  0.94808  1.0000
  C   C1342     1.0  0.55800  0.96129  0.79605  1.0000
  C   C1343     1.0  0.56716  0.53698  0.94394  1.0000
  C   C1344     1.0  0.54283  0.55174  0.96034  1.0000
  C   C1345     1.0  0.53927  0.96046  0.98339  1.0000
  H   H1080     1.0  0.92783  0.53041  0.68544  1.0000
  H   H1081     1.0  0.64990  0.54817  0.95547  1.0000
  C   C1346     1.0  0.53179  0.69649  0.74759  1.0000
  H   H1082     1.0  0.82503  0.53722  0.76865  1.0000
  C   C1347     1.0  0.52210  0.74086  0.84519  1.0000
  C   C1348     1.0  0.70067  0.58616  0.81971  1.0000
  H   H1083     1.0  0.92808  0.98711  0.97708  1.0000
  H   H1084     1.0  0.52617  0.56633  0.94800  1.0000
  C   C1349     1.0  0.95783  0.52341  0.87511  1.0000
  H   H1085     1.0  0.67016  0.52643  0.69724  1.0000
  H   H1086     1.0  0.66821  0.58480  0.85837  1.0000
  H   H1087     1.0  0.89203  0.92272  0.91155  1.0000
  H   H1088     1.0  0.56161  0.70955  0.84078  1.0000
  C   C1350     1.0  0.50948  0.76598  0.99030  1.0000
  C   C1351     1.0  0.55273  0.97744  0.88465  1.0000
  C   C1352     1.0  0.57643  0.95824  0.89709  1.0000
  C   C1353     1.0  0.59929  0.97133  0.91714  1.0000
  C   C1354     1.0  0.55100  0.72284  0.75147  1.0000
  C   C1355     1.0  0.52272  0.71844  0.96179  1.0000
  H   H1089     1.0  0.88728  0.54259  0.77710  1.0000
  H   H1090     1.0  0.61759  0.95660  0.92693  1.0000
  H   H1091     1.0  0.56105  0.72814  0.77442  1.0000
  C   C1356     1.0  0.90661  0.53992  0.73035  1.0000
  H   H1092     1.0  0.52904  0.66113  0.84314  1.0000
  H   H1093     1.0  0.93834  0.93164  0.99799  1.0000
  C   C1357     1.0  0.87412  0.99333  0.87951  1.0000
  C   C1358     1.0  0.76937  0.56058  0.68922  1.0000
  C   C1359     1.0  0.00665  0.55732  0.98888  1.0000
  H   H1094     1.0  0.54937  0.85466  0.73769  1.0000
  C   C1360     1.0  0.69204  0.57970  0.85076  1.0000
  C   C1361     1.0  0.65135  0.51552  0.89622  1.0000
  C   C1362     1.0  0.76319  0.53298  0.98194  1.0000
  H   H1095     1.0  0.53279  0.80199  0.72130  1.0000
  H   H1096     1.0  0.78429  0.57869  0.67940  1.0000
  S   S189      1.0  0.52786  0.58710  0.83210  1.0000
  H   H1097     1.0  0.61156  0.64483  0.85852  1.0000
  C   C1363     1.0  0.00046  0.52608  0.99712  1.0000
  C   C1364     1.0  0.76870  0.55578  0.72169  1.0000
  C   C1365     1.0  0.57230  0.86539  0.69399  1.0000
  C   C1366     1.0  0.52828  0.98855  0.99602  1.0000
  C   C1367     1.0  0.00788  0.93193  0.85107  1.0000
  H   H1098     1.0  0.57213  0.76269  0.72955  1.0000
  H   H1099     1.0  0.55934  0.94878  0.99396  1.0000
  H   H1100     1.0  0.57943  0.51046  0.73884  1.0000
  C   C1368     1.0  0.94206  0.90949  0.95207  1.0000
  C   C1369     1.0  0.93763  0.88134  0.93542  1.0000
  P   P46       1.0  0.95576  0.94379  0.93138  1.0000
  C   C1370     1.0  0.92343  0.96284  0.91135  1.0000
  C   C1371     1.0  0.97298  0.97225  0.95790  1.0000
  C   C1372     1.0  0.51792  0.68384  0.84451  1.0000
  H   H1101     1.0  0.77576  0.55783  0.82124  1.0000
  H   H1102     1.0  0.94554  0.52903  0.85345  1.0000
  C   C1373     1.0  0.57552  0.62911  0.89029  1.0000
  C   C1374     1.0  0.73094  0.57867  0.80915  1.0000
  H   H1103     1.0  0.95169  0.53470  0.95386  1.0000
  C   C1375     1.0  0.92719  0.85443  0.95090  1.0000
  H   H1104     1.0  0.54119  0.61640  0.99098  1.0000
  C   C1376     1.0  0.74395  0.55795  0.86059  1.0000
  H   H1105     1.0  0.71909  0.51513  0.96461  1.0000
  C   C1377     1.0  0.98506  0.93092  0.90341  1.0000
  H   H1106     1.0  0.92423  0.83272  0.93802  1.0000
  H   H1107     1.0  0.91729  0.93497  0.71105  1.0000
  C   C1378     1.0  0.83342  0.00114  0.98565  1.0000
  C   C1379     1.0  0.71390  0.56629  0.87165  1.0000
  H   H1108     1.0  0.84886  0.94975  0.88360  1.0000
  H   H1109     1.0  0.61379  0.53999  0.70233  1.0000
  C   C1380     1.0  0.62357  0.52094  0.71595  1.0000
  H   H1110     1.0  0.50993  0.77919  0.91134  1.0000
  H   H1111     1.0  0.53340  0.92600  0.94681  1.0000
  H   H1112     1.0  0.94249  0.88012  0.91045  1.0000
  H   H1113     1.0  0.57493  0.60563  0.88075  1.0000
  C   C1381     1.0  0.75248  0.56437  0.82953  1.0000
  C   C1382     1.0  0.73717  0.53279  0.96156  1.0000
  C   C1383     1.0  0.55661  0.80389  0.67618  1.0000
  H   H1114     1.0  0.58405  0.66958  0.68936  1.0000
  C   C1384     1.0  0.58866  0.51813  0.96050  1.0000
  H   H1115     1.0  0.76550  0.51505  0.99974  1.0000
  C   C1385     1.0  0.99487  0.94083  0.69049  1.0000
  C   C1386     1.0  0.68324  0.51734  0.90503  1.0000
  S   S190      1.0  0.81364  0.50904  0.91931  1.0000
  C   C1387     1.0  0.96162  0.52666  0.93185  1.0000
  C   C1388     1.0  0.54701  0.81581  0.70542  1.0000
  C   C1389     1.0  0.55575  0.84606  0.71460  1.0000
  C   C1390     1.0  0.55637  0.66755  0.92772  1.0000
  H   H1116     1.0  0.76071  0.54593  0.87566  1.0000
  P   P47       1.0  0.70168  0.55503  0.91059  1.0000
  C   C1391     1.0  0.58626  0.51463  0.99331  1.0000
  C   C1392     1.0  0.73494  0.55495  0.93732  1.0000
  C   C1393     1.0  0.73243  0.51215  0.71439  1.0000
  C   C1394     1.0  0.93518  0.91044  0.98434  1.0000
  C   C1395     1.0  0.53629  0.71125  0.84323  1.0000
  Fe  Fe95      1.0  0.52892  0.55583  0.87491  1.0000
  C   C1396     1.0  0.75823  0.57828  0.93489  1.0000
  C   C1397     1.0  0.55550  0.63721  0.91504  1.0000
  C   C1398     1.0  0.65557  0.51318  0.71322  1.0000
  C   C1399     1.0  0.67427  0.58270  0.92725  1.0000
  C   C1400     1.0  0.65139  0.57256  0.94875  1.0000
  C   C1401     1.0  0.63004  0.59385  0.96169  1.0000
  C   C1402     1.0  0.63197  0.62556  0.95398  1.0000
  C   C1403     1.0  0.65537  0.63602  0.93342  1.0000
  C   C1404     1.0  0.67654  0.61469  0.92013  1.0000
  C   C1405     1.0  0.55666  0.74279  0.72603  1.0000
  C   C1406     1.0  0.57823  0.68928  0.91591  1.0000
  H   H1117     1.0  0.57848  0.70984  0.00203  1.0000
  C   C1407     1.0  0.59784  0.68122  0.89083  1.0000
  C   C1408     1.0  0.56686  0.94944  0.76677  1.0000
  H   H1118     1.0  0.75665  0.59607  0.91687  1.0000
  H   H1119     1.0  0.56466  0.92459  0.76202  1.0000
  C   C1409     1.0  0.51702  0.73407  0.99028  1.0000
  S   S191      1.0  0.51826  0.85138  0.88949  1.0000
  H   H1120     1.0  0.57828  0.88911  0.70094  1.0000
  H   H1121     1.0  0.61537  0.64199  0.96397  1.0000
  H   H1122     1.0  0.65700  0.66066  0.92774  1.0000
  H   H1123     1.0  0.69470  0.62317  0.90446  1.0000
  H   H1124     1.0  0.92519  0.54875  0.90447  1.0000
  H   H1125     1.0  0.80245  0.59602  0.95305  1.0000
  H   H1126     1.0  0.55231  0.00238  0.82449  1.0000
  H   H1127     1.0  0.61192  0.58563  0.97763  1.0000
  S   S192      1.0  0.82907  0.51523  0.83212  1.0000
  C   C1410     1.0  0.92660  0.99421  0.90217  1.0000
  H   H1128     1.0  0.73764  0.58363  0.78512  1.0000
  H   H1129     1.0  0.63743  0.53658  0.89367  1.0000
  H   H1130     1.0  0.68377  0.59671  0.80377  1.0000
  C   C1411     1.0  0.89521  0.94685  0.90461  1.0000
  H   H1131     1.0  0.96838  0.95985  0.86491  1.0000
  C   C1412     1.0  0.87066  0.96210  0.88871  1.0000
  C   C1413     1.0  0.98533  0.94253  0.87252  1.0000
  H   H1132     1.0  0.54955  0.94558  0.81412  1.0000
  H   H1133     1.0  0.53473  0.96748  0.86955  1.0000
  C   C1414     1.0  0.94645  0.53465  0.90376  1.0000
  C   C1415     1.0  0.82616  0.51195  0.76793  1.0000
  H   H1134     1.0  0.82664  0.50959  0.71712  1.0000
  C   C1416     1.0  0.78404  0.57857  0.95552  1.0000
  H   H1135     1.0  0.61397  0.69843  0.88128  1.0000
  C   C1417     1.0  0.92083  0.85546  0.98307  1.0000
  Fe  Fe96      1.0  0.52418  0.82303  0.84534  1.0000
  H   H1136     1.0  0.96862  0.95139  0.73291  1.0000
  C   C1418     1.0  0.55598  0.63319  0.00327  1.0000
  H   H1137     1.0  0.51077  0.91738  0.69371  1.0000
  H   H1138     1.0  0.58317  0.96076  0.72027  1.0000
  P   P48       1.0  0.53250  0.67733  0.96134  1.0000
  C   C1419     1.0  0.00781  0.90875  0.91251  1.0000
  H   H1139     1.0  0.54230  0.52759  0.69474  1.0000
  C   C1420     1.0  0.55975  0.99344  0.80194  1.0000
  C   C1421     1.0  0.57741  0.96978  0.74335  1.0000
  H   H1140     1.0  0.75140  0.52766  0.75938  1.0000
  H   H1141     1.0  0.89906  0.56324  0.72377  1.0000
  H   H1142     1.0  0.52691  0.68145  0.76756  1.0000
  C   C1422     1.0  0.93836  0.93314  0.69682  1.0000
  C   C1423     1.0  0.51895  0.73470  0.93334  1.0000
  H   H1143     1.0  0.80707  0.55562  0.99434  1.0000
  H   H1144     1.0  0.52158  0.72284  0.91097  1.0000
  C   C1424     1.0  0.52460  0.94762  0.95690  1.0000
  C   C1425     1.0  0.51877  0.68970  0.71807  1.0000
  C   C1426     1.0  0.95339  0.99060  0.97712  1.0000
  C   C1427     1.0  0.73323  0.51718  0.68177  1.0000
  C   C1428     1.0  0.92279  0.52136  0.70874  1.0000
  C   C1429     1.0  0.90001  0.52831  0.76031  1.0000
  H   H1145     1.0  0.69490  0.50919  0.79012  1.0000
  H   H1146     1.0  0.80255  0.93921  0.00020  1.0000
  C   C1430     1.0  0.51189  0.76663  0.93344  1.0000
  H   H1147     1.0  0.99560  0.00383  0.73060  1.0000
  H   H1148     1.0  0.91304  0.83460  0.99528  1.0000
  C   C1431     1.0  0.78663  0.55581  0.97891  1.0000
  C   C1432     1.0  0.55580  0.66492  0.99465  1.0000
  C   C1433     1.0  0.00560  0.97799  0.95796  1.0000
  H   H1149     1.0  0.51246  0.97352  0.67878  1.0000
  H   H1150     1.0  0.52184  0.56019  0.00566  1.0000
  C   C1434     1.0  0.92470  0.88343  0.99967  1.0000
  C   C1435     1.0  0.52407  0.70983  0.69268  1.0000
  C   C1436     1.0  0.60415  0.50432  0.73651  1.0000
  H   H1151     1.0  0.99912  0.71102  0.94975  1.0000
  H   H1152     1.0  0.84944  0.98811  0.00056  1.0000
  C   C1437     1.0  0.00785  0.70540  0.99940  1.0000
  C   C1438     1.0  0.58005  0.00188  0.74952  1.0000
  C   C1439     1.0  0.59884  0.00338  0.92445  1.0000
  C   C1440     1.0  0.98466  0.50444  0.87457  1.0000
