data_image0
_chemical_formula_structural       FeS2FeS2FeSFeS3FeSCFeSCFeSFeS3CHC6H4CH2C7HC2H2CHC6H4C6H4C3SH3C4HC2HC2H4C2H3CHPH4C9HCH2CHCPC3H4PH2C3H2CHC3H2CHC3H2C2HCH3CH6C7PC18H11CH5CH2C3H3C2H3CHCHCH2C5HC3HCH2CHCHC5HSH2FeCSFeS2HFeS3FeS2FeSFeSFeS3C3H3C7H5CHCH3CH2C6H4SHC2HSH2C7PC2HC4HC7H3C3H7C2HCH2CH2C12PCHSC3HC11H3CH3C3H11CHC2HC5H2C2H4C2H2CH6C6PHCHC2H2CH2C2FeH4CPHCHC3HCHCH3CSCHC2HC3FeS2FeSFe2S2HSCFeSCFeSCSCHCHC3H2CH2SHCHC6H4CH4C2HCH2C2SC2H3C4HCH3CH2C3H6C2HC2H3CHC7PC17H13CH4C4PC12HC3H2CH8C2HCH4PCHC2HC3HCSC2SC6HCH2CH5CH4CHCHFeS2CSHCS2Fe2S2FeSCFeHFeSHSH2C8H4C3HCHSH3C2H2C2HC2HC2H2C2HFeC2H2C2HC3HC5HC2H3CH2C9H7C6PC10HC7H11CHCH3C2HC4PC7H4C8H7C3H5PH2CSCH3CH3C2H3CHFeCHCHC2HCH7CHSFeSFeSHFeSFeS3FeS2FeS2FeSFeS2HC4H2C6H4PC2H2C5H2C6H4SCHC2HC2SCH2C3H2CHC2H2CHC4PC2HC3H2C2HCH4C2HCHPC5HC6HC2HCHCH2CH6C3HC2H2CHC4HC3H2CHCHC8H2C2H5C2HCH5C2H2CH5SH2CH3C2H4C3HCHCPCSHC7SHC3HCH2CFeHCH3C4HCHCFeHSC2FeS2FeS2FeHFeCS2FeS2FeS2FeSFeS3C6H4CSC5HC6H4C2HCPHC4H3CHC2HCH3C3H2CSCH4C3H2CHC3HCHCHCH4CHC3HC2H2C2H6C3HC2HC2H2SCHCH2C4HCH2C2HC6H7CHPHC3PC12H3CH2CH3CH7CH3C2HSH2C4HC2HC3HCHCHC2H2C2HC3HC6PC3HC8H3CFeS2FeS2FeSFeS3HFeCFeS2HFeHS2HC4H5C4H4C4HPCHSCHC6H4C2HC3H4C2H2SC3H3C11PC3HC4H2C5HC2H9CH3FeCHSCHC2HCH2C2H2CH3C6H4CH3CH2C5HCHC2HC6HPC19HSH8CH6C2H2PCHCHCHC4HCHC2HCHCHCHC2HCHCH2FeS2FeS2FeSFeS3CSCFeS2FePFeSHSC3HCH4C6H4C4H2C4HCH2CHC6H4C2HC4HCH3C9HC2FeH3CH6CHCHC3SCHC3H2C8PC14H2CH11CHCH2CHC3H2CH4C2HCHCHCHC12H3SCH2CHCH4C2HCHCH2C2HCH2PCHCHC3HCHCPC2PH2CHC2H4PC4H3CH3CSFeHFeS2FeSFeHS4FeS2H2C2HC5H4C6H4C5HCHC2HC2H3CH2CHSH2CHC6HCHC2HPC2HC3HCHC4H3CH3C3H2CH4SC3HPH4C3H3C2HC4H3CSCH4C2H2CHC3PCHC6PCH3SCH6CHC4H7C6H2CHC4HC2H3CHPC4HCFeSFeSFe2S2HSC2SHFeS3CSCH5C6H5CFeCHCHC3HCH2PCH4C8SHCHC2H3FeHC4H2C6HCH2SCHCHCH2C6H6CH2CPC3HCHCHSC3HC5H2CH2CHC2H2C2HC2H2C2HCHC3HPFeCH2CH2C2H2C5HC3HC5HCHCFeS2FeSCFeSFeS3FeSCFeS2FeSFeHS4HC7H4C3HC2HCH2C5H4SC6H4C5FeH2C4H2CH3CH2C4HCH3CH2CH2SCHCH2C2HSH2C2H2C8PC18H15CH2CHCHCHSC3PHCHCFeHC2H2C2H3C4HC2FeH4C3HC7PC7H3CHC2SCH4CH6CH5CPHCHC3HCH5FeSCFeS2Fe2S3FeS2FeS2FeSFeS3C3HC6H2C3H2C6H4C6H4CH2CHC2H2CHCHC2HC3HCHCH4CHCHC3HC3H3CHCHC2H5C3HCPCH3C2HC9HCH2CH3C7PCH2CHCHCHCH2CH7SHCSHC2H4C6HCS2HC2H3C3PHC2H2CHC4PC14H2CH10CHCHC3HCH4CH4C2HCHCHCHCHC4HC
_chemical_formula_sum              "Fe96 S192 C1440 H1152 P48"
_cell_length_a       40.1963
_cell_length_b       39.8558
_cell_length_c       39.9519
_cell_angle_alpha    89.5421
_cell_angle_beta     89.9005
_cell_angle_gamma    89.7842

_space_group_name_H-M_alt    "P 1"
_space_group_IT_number       1

loop_
  _space_group_symop_operation_xyz
  'x, y, z'

loop_
  _atom_site_type_symbol
  _atom_site_label
  _atom_site_symmetry_multiplicity
  _atom_site_fract_x
  _atom_site_fract_y
  _atom_site_fract_z
  _atom_site_occupancy
  Fe  Fe1       1.0  0.27864  0.18032  0.37779  1.0000
  S   S1        1.0  0.32502  0.20566  0.39590  1.0000
  S   S2        1.0  0.23342  0.20772  0.35747  1.0000
  Fe  Fe2       1.0  0.30691  0.11003  0.39181  1.0000
  S   S3        1.0  0.35433  0.13055  0.41240  1.0000
  S   S4        1.0  0.30244  0.05429  0.38384  1.0000
  Fe  Fe3       1.0  0.32174  0.16830  0.43799  1.0000
  S   S5        1.0  0.32940  0.18308  0.49166  1.0000
  Fe  Fe4       1.0  0.35218  0.16533  0.36812  1.0000
  S   S6        1.0  0.39760  0.17198  0.33576  1.0000
  S   S7        1.0  0.27396  0.14462  0.42145  1.0000
  S   S8        1.0  0.30619  0.14287  0.34638  1.0000
  Fe  Fe5       1.0  0.46582  0.25263  0.15924  1.0000
  S   S9        1.0  0.43426  0.22235  0.12460  1.0000
  C   C1        1.0  0.16094  0.18224  0.41413  1.0000
  Fe  Fe6       1.0  0.41028  0.30306  0.17301  1.0000
  S   S10       1.0  0.37429  0.27692  0.13968  1.0000
  C   C2        1.0  0.04470  0.22065  0.37306  1.0000
  Fe  Fe7       1.0  0.39459  0.23005  0.16325  1.0000
  S   S11       1.0  0.35988  0.19101  0.18308  1.0000
  Fe  Fe8       1.0  0.41743  0.27221  0.10428  1.0000
  S   S12       1.0  0.41885  0.28374  0.04908  1.0000
  S   S13       1.0  0.42740  0.25645  0.19963  1.0000
  S   S14       1.0  0.45215  0.30202  0.13584  1.0000
  C   C3        1.0  0.22378  0.15598  0.51180  1.0000
  H   H1        1.0  0.35463  0.30322  0.07633  1.0000
  C   C4        1.0  0.46546  0.08439  0.25919  1.0000
  C   C5        1.0  0.31571  0.07878  0.50681  1.0000
  C   C6        1.0  0.33202  0.23544  0.03581  1.0000
  C   C7        1.0  0.44717  0.06818  0.42373  1.0000
  C   C8        1.0  0.50277  0.08014  0.40357  1.0000
  C   C9        1.0  0.48162  0.06689  0.42815  1.0000
  H   H2        1.0  0.24135  0.26693  0.02053  1.0000
  H   H3        1.0  0.44896  0.06425  0.25203  1.0000
  H   H4        1.0  0.47154  0.16957  0.33423  1.0000
  H   H5        1.0  0.50651  0.32517  0.07344  1.0000
  C   C10       1.0  0.47374  0.10955  0.23609  1.0000
  H   H6        1.0  0.20730  0.06641  0.23410  1.0000
  H   H7        1.0  0.44393  0.10866  0.34871  1.0000
  C   C11       1.0  0.21639  0.07054  0.25917  1.0000
  C   C12       1.0  0.32219  0.06178  0.47703  1.0000
  C   C13       1.0  0.45227  0.30156  0.34530  1.0000
  C   C14       1.0  0.15891  0.13030  0.46156  1.0000
  C   C15       1.0  0.10567  0.22878  0.49131  1.0000
  C   C16       1.0  0.03724  0.33492  0.47241  1.0000
  C   C17       1.0  0.16649  0.32167  0.42069  1.0000
  H   H8        1.0  0.47123  0.06566  0.30925  1.0000
  C   C18       1.0  0.33436  0.04066  0.35682  1.0000
  C   C19       1.0  0.35826  0.06337  0.34523  1.0000
  H   H9        1.0  0.35670  0.08951  0.35186  1.0000
  H   H10       1.0  0.28165  0.30568  0.44572  1.0000
  C   C20       1.0  0.27365  0.22260  0.48418  1.0000
  H   H11       1.0  0.27357  0.21484  0.45831  1.0000
  C   C21       1.0  0.38705  0.17738  0.29333  1.0000
  C   C22       1.0  0.35418  0.18412  0.28388  1.0000
  C   C23       1.0  0.34579  0.18731  0.24996  1.0000
  C   C24       1.0  0.37042  0.18515  0.22537  1.0000
  C   C25       1.0  0.40357  0.17960  0.23477  1.0000
  C   C26       1.0  0.41181  0.17539  0.26870  1.0000
  H   H12       1.0  0.33525  0.18769  0.30265  1.0000
  H   H13       1.0  0.32038  0.19250  0.24283  1.0000
  H   H14       1.0  0.42281  0.17825  0.21587  1.0000
  H   H15       1.0  0.43735  0.17077  0.27590  1.0000
  C   C27       1.0  0.23447  0.25202  0.35865  1.0000
  C   C28       1.0  0.26073  0.26891  0.37393  1.0000
  C   C29       1.0  0.26097  0.30406  0.37512  1.0000
  C   C30       1.0  0.23484  0.32271  0.36124  1.0000
  C   C31       1.0  0.20854  0.30599  0.34568  1.0000
  C   C32       1.0  0.20831  0.27071  0.34455  1.0000
  H   H16       1.0  0.28064  0.25508  0.38538  1.0000
  H   H17       1.0  0.28144  0.31688  0.38693  1.0000
  H   H18       1.0  0.18772  0.32008  0.33578  1.0000
  H   H19       1.0  0.18753  0.25790  0.33335  1.0000
  C   C33       1.0  0.33910  0.22896  0.06947  1.0000
  C   C34       1.0  0.31497  0.21484  0.09039  1.0000
  C   C35       1.0  0.28368  0.20695  0.07749  1.0000
  S   S15       1.0  0.03318  0.30200  0.38634  1.0000
  H   H20       1.0  0.36348  0.23496  0.07926  1.0000
  H   H21       1.0  0.32058  0.21016  0.11662  1.0000
  H   H22       1.0  0.26496  0.19615  0.09383  1.0000
  C   C36       1.0  0.24847  0.24391  0.49607  1.0000
  C   C37       1.0  0.13996  0.15940  0.46642  1.0000
  C   C38       1.0  0.07316  0.22789  0.39173  1.0000
  C   C39       1.0  0.30533  0.03214  0.46990  1.0000
  H   H23       1.0  0.14676  0.34217  0.20908  1.0000
  C   C40       1.0  0.30214  0.08157  0.21621  1.0000
  C   C41       1.0  0.21159  0.10064  0.31146  1.0000
  H   H24       1.0  0.04816  0.33550  0.44761  1.0000
  C   C42       1.0  0.18031  0.15339  0.40967  1.0000
  C   C43       1.0  0.17933  0.12743  0.43334  1.0000
  H   H25       1.0  0.27983  0.05008  0.31214  1.0000
  H   H26       1.0  0.19624  0.15136  0.38784  1.0000
  H   H27       1.0  0.19454  0.10520  0.42985  1.0000
  H   H28       1.0  0.32651  0.12623  0.19762  1.0000
  C   C44       1.0  0.02844  0.34835  0.33443  1.0000
  C   C45       1.0  0.36449  0.06334  0.24109  1.0000
  H   H29       1.0  0.16166  0.20185  0.39515  1.0000
  H   H30       1.0  0.18531  0.24067  0.43941  1.0000
  H   H31       1.0  0.24970  0.09015  0.34794  1.0000
  C   C46       1.0  0.07799  0.21288  0.42324  1.0000
  H   H32       1.0  0.43065  0.05842  0.44290  1.0000
  P   P1        1.0  0.49201  0.33627  0.29975  1.0000
  H   H33       1.0  0.45181  0.28832  0.26103  1.0000
  H   H34       1.0  0.22919  0.25257  0.47929  1.0000
  H   H35       1.0  0.50189  0.15481  0.22749  1.0000
  H   H36       1.0  0.31758  0.29024  0.49365  1.0000
  C   C47       1.0  0.32947  0.10257  0.21090  1.0000
  C   C48       1.0  0.49912  0.11153  0.30145  1.0000
  C   C49       1.0  0.42666  0.27961  0.35445  1.0000
  C   C50       1.0  0.36064  0.09350  0.22344  1.0000
  C   C51       1.0  0.18547  0.29287  0.42691  1.0000
  C   C52       1.0  0.02292  0.30538  0.48467  1.0000
  C   C53       1.0  0.16991  0.26239  0.43419  1.0000
  C   C54       1.0  0.24021  0.08452  0.32324  1.0000
  C   C55       1.0  0.25709  0.06158  0.30299  1.0000
  H   H37       1.0  0.34002  0.32649  0.30307  1.0000
  C   C56       1.0  0.24510  0.05405  0.27098  1.0000
  H   H38       1.0  0.21236  0.29410  0.42600  1.0000
  H   H39       1.0  0.02226  0.28334  0.46899  1.0000
  C   C57       1.0  0.11615  0.28965  0.42997  1.0000
  H   H40       1.0  0.17774  0.10658  0.27018  1.0000
  C   C58       1.0  0.49728  0.16439  0.08056  1.0000
  P   P2        1.0  0.11459  0.22199  0.44760  1.0000
  C   C59       1.0  0.43390  0.08298  0.39488  1.0000
  C   C60       1.0  0.38463  0.05239  0.32508  1.0000
  C   C61       1.0  0.49536  0.13524  0.24532  1.0000
  H   H41       1.0  0.12422  0.16116  0.48836  1.0000
  H   H42       1.0  0.15809  0.11014  0.47989  1.0000
  H   H43       1.0  0.47338  0.22777  0.35334  1.0000
  H   H44       1.0  0.11706  0.34249  0.41804  1.0000
  P   P3        1.0  0.26925  0.02703  0.24409  1.0000
  H   H45       1.0  0.48970  0.23563  0.23049  1.0000
  H   H46       1.0  0.38171  0.11007  0.21988  1.0000
  C   C62       1.0  0.02640  0.18203  0.41623  1.0000
  C   C63       1.0  0.05500  0.18897  0.43482  1.0000
  C   C64       1.0  0.46138  0.30532  0.31152  1.0000
  H   H47       1.0  0.30953  0.01976  0.44632  1.0000
  H   H48       1.0  0.46334  0.10921  0.21110  1.0000
  C   C65       1.0  0.44529  0.28603  0.28721  1.0000
  H   H49       1.0  0.13364  0.29973  0.50126  1.0000
  C   C66       1.0  0.27658  0.21308  0.04367  1.0000
  C   C67       1.0  0.04911  0.32802  0.35418  1.0000
  C   C68       1.0  0.49367  0.21099  0.35959  1.0000
  H   H50       1.0  0.09087  0.24575  0.38170  1.0000
  H   H51       1.0  0.09969  0.31250  0.36323  1.0000
  C   C69       1.0  0.45492  0.09609  0.37022  1.0000
  H   H52       1.0  0.40298  0.07025  0.31638  1.0000
  C   C70       1.0  0.30573  0.05145  0.23432  1.0000
  C   C71       1.0  0.41057  0.26074  0.33005  1.0000
  C   C72       1.0  0.42020  0.26361  0.29654  1.0000
  H   H53       1.0  0.39075  0.24368  0.33711  1.0000
  H   H54       1.0  0.40800  0.24855  0.27774  1.0000
  C   C73       1.0  0.13236  0.23300  0.51339  1.0000
  C   C74       1.0  0.47820  0.08525  0.29172  1.0000
  H   H55       1.0  0.25233  0.20651  0.03397  1.0000
  C   C75       1.0  0.29866  0.21125  0.50584  1.0000
  H   H56       1.0  0.04041  0.23359  0.34948  1.0000
  H   H57       1.0  0.34548  0.34054  0.15203  1.0000
  H   H58       1.0  0.33954  0.07209  0.45894  1.0000
  C   C76       1.0  0.13183  0.32014  0.42265  1.0000
  H   H59       1.0  0.38859  0.05648  0.25105  1.0000
  H   H60       1.0  0.41927  0.27702  0.38045  1.0000
  H   H61       1.0  0.15773  0.23183  0.50430  1.0000
  H   H62       1.0  0.08927  0.28889  0.43165  1.0000
  H   H63       1.0  0.27803  0.08901  0.20674  1.0000
  H   H64       1.0  0.21631  0.15964  0.48603  1.0000
  C   C77       1.0  0.35828  0.31607  0.05280  1.0000
  C   C78       1.0  0.28336  0.28724  0.12824  1.0000
  C   C79       1.0  0.25695  0.28127  0.10650  1.0000
  C   C80       1.0  0.22671  0.26949  0.11914  1.0000
  C   C81       1.0  0.22276  0.26426  0.15361  1.0000
  C   C82       1.0  0.24896  0.27112  0.17578  1.0000
  C   C83       1.0  0.27953  0.28199  0.16271  1.0000
  P   P4        1.0  0.24283  0.26497  0.22037  1.0000
  C   C84       1.0  0.20170  0.28032  0.23118  1.0000
  C   C85       1.0  0.24734  0.22115  0.23120  1.0000
  C   C86       1.0  0.25090  0.21162  0.26493  1.0000
  C   C87       1.0  0.25558  0.17796  0.27365  1.0000
  C   C88       1.0  0.25766  0.15362  0.24885  1.0000
  C   C89       1.0  0.25437  0.16287  0.21518  1.0000
  C   C90       1.0  0.24923  0.19651  0.20634  1.0000
  C   C91       1.0  0.18828  0.30809  0.21394  1.0000
  C   C92       1.0  0.15658  0.32024  0.22196  1.0000
  C   C93       1.0  0.13836  0.30542  0.24792  1.0000
  C   C94       1.0  0.15168  0.27812  0.26557  1.0000
  C   C95       1.0  0.18312  0.26546  0.25715  1.0000
  C   C96       1.0  0.27387  0.28621  0.24502  1.0000
  C   C97       1.0  0.30706  0.27501  0.24436  1.0000
  C   C98       1.0  0.33088  0.28977  0.26493  1.0000
  C   C99       1.0  0.32160  0.31514  0.28704  1.0000
  C   C100      1.0  0.28855  0.32604  0.28828  1.0000
  C   C101      1.0  0.26481  0.31178  0.26725  1.0000
  H   H65       1.0  0.30669  0.29664  0.11845  1.0000
  H   H66       1.0  0.26008  0.28584  0.07992  1.0000
  H   H67       1.0  0.20615  0.26483  0.10236  1.0000
  H   H68       1.0  0.19908  0.25539  0.16310  1.0000
  H   H69       1.0  0.30025  0.28740  0.17894  1.0000
  H   H70       1.0  0.25041  0.23024  0.28460  1.0000
  H   H71       1.0  0.25819  0.17093  0.29973  1.0000
  H   H72       1.0  0.26244  0.12779  0.25592  1.0000
  H   H73       1.0  0.25641  0.14419  0.19583  1.0000
  H   H74       1.0  0.24750  0.20317  0.18013  1.0000
  H   H75       1.0  0.20257  0.32089  0.19474  1.0000
  C   C102      1.0  0.16987  0.33889  0.50488  1.0000
  H   H76       1.0  0.11437  0.31579  0.25501  1.0000
  H   H77       1.0  0.13786  0.26717  0.28622  1.0000
  H   H78       1.0  0.19291  0.24456  0.27143  1.0000
  H   H79       1.0  0.31456  0.25475  0.22804  1.0000
  H   H80       1.0  0.35651  0.28149  0.26370  1.0000
  C   C103      1.0  0.07301  0.23302  0.50322  1.0000
  H   H81       1.0  0.39934  0.02016  0.39393  1.0000
  H   H82       1.0  0.23944  0.32056  0.26875  1.0000
  C   C104      1.0  0.14127  0.18582  0.44297  1.0000
  C   C105      1.0  0.50172  0.33266  0.25575  1.0000
  C   C106      1.0  0.48822  0.15864  0.04735  1.0000
  H   H83       1.0  0.05892  0.17608  0.45845  1.0000
  H   H84       1.0  0.18862  0.32445  0.49187  1.0000
  H   H85       1.0  0.19903  0.11898  0.32698  1.0000
  C   C107      1.0  0.13504  0.26037  0.43508  1.0000
  C   C108      1.0  0.19964  0.09361  0.27946  1.0000
  H   H86       1.0  0.17872  0.34512  0.41439  1.0000
  H   H87       1.0  0.05191  0.23147  0.48660  1.0000
  H   H88       1.0  0.40723  0.08485  0.39175  1.0000
  C   C109      1.0  0.33713  0.04246  0.24680  1.0000
  H   H89       1.0  0.46810  0.14156  0.04187  1.0000
  C   C110      1.0  0.48959  0.09384  0.37389  1.0000
  H   H90       1.0  0.35128  0.24665  0.02042  1.0000
  C   C111      1.0  0.25361  0.34266  0.47310  1.0000
  H   H91       1.0  0.46445  0.31618  0.36443  1.0000
  H   H92       1.0  0.48423  0.15187  0.10086  1.0000
  C   C112      1.0  0.38768  0.31127  0.03463  1.0000
  C   C113      1.0  0.30074  0.22737  0.02249  1.0000
  C   C114      1.0  0.38724  0.01863  0.31609  1.0000
  C   C115      1.0  0.48144  0.34907  0.23211  1.0000
  C   C116      1.0  0.49282  0.17788  0.34853  1.0000
  H   H93       1.0  0.28670  0.02936  0.17218  1.0000
  C   C117      1.0  0.27854  0.31840  0.46935  1.0000
  C   C118      1.0  0.08363  0.32907  0.34911  1.0000
  C   C119      1.0  0.29892  0.30976  0.49635  1.0000
  H   H94       1.0  0.32814  0.10243  0.51134  1.0000
  C   C120      1.0  0.33303  0.33685  0.03997  1.0000
  H   H95       1.0  0.49188  0.05628  0.45095  1.0000
  H   H96       1.0  0.25039  0.11061  0.50173  1.0000
  C   C121      1.0  0.28216  0.01919  0.49256  1.0000
  H   H97       1.0  0.23806  0.34890  0.45178  1.0000
  C   C122      1.0  0.50828  0.13600  0.27777  1.0000
  H   H98       1.0  0.31003  0.33983  0.05373  1.0000
  C   C123      1.0  0.13863  0.32461  0.51036  1.0000
  C   C124      1.0  0.48883  0.34727  0.19803  1.0000
  C   C125      1.0  0.50485  0.17524  0.02130  1.0000
  C   C126      1.0  0.02107  0.19815  0.38551  1.0000
  C   C127      1.0  0.26163  0.01988  0.17486  1.0000
  H   H99       1.0  0.28125  0.34570  0.30544  1.0000
  S   S16       1.0  0.39626  0.34843  0.20312  1.0000
  H   H100      1.0  0.41139  0.34523  0.09278  1.0000
  H   H101      1.0  0.34055  0.01980  0.26151  1.0000
  Fe  Fe9       1.0  0.15031  0.28805  0.64805  1.0000
  C   C128      1.0  0.29877  0.22204  0.53920  1.0000
  S   S17       1.0  0.09451  0.28825  0.65025  1.0000
  Fe  Fe10      1.0  0.21439  0.25221  0.66862  1.0000
  S   S18       1.0  0.24680  0.28810  0.63998  1.0000
  S   S19       1.0  0.23664  0.21082  0.70002  1.0000
  H   H102      1.0  0.02811  0.30112  0.67519  1.0000
  Fe  Fe11      1.0  0.20804  0.28373  0.59988  1.0000
  S   S20       1.0  0.21435  0.27800  0.54417  1.0000
  S   S21       1.0  0.18292  0.29168  0.69294  1.0000
  S   S22       1.0  0.17832  0.24436  0.62683  1.0000
  Fe  Fe12      1.0  0.41851  0.17562  0.72357  1.0000
  S   S23       1.0  0.39245  0.14333  0.76155  1.0000
  S   S24       1.0  0.39187  0.19564  0.67802  1.0000
  Fe  Fe13      1.0  0.48460  0.17019  0.75985  1.0000
  S   S25       1.0  0.46371  0.13813  0.80078  1.0000
  Fe  Fe14      1.0  0.43809  0.11104  0.75942  1.0000
  S   S26       1.0  0.44033  0.05469  0.75823  1.0000
  Fe  Fe15      1.0  0.42082  0.17393  0.79863  1.0000
  S   S27       1.0  0.39653  0.19391  0.84481  1.0000
  S   S28       1.0  0.46210  0.14054  0.71827  1.0000
  S   S29       1.0  0.44385  0.20867  0.76094  1.0000
  C   C129      1.0  0.41164  0.03865  0.72942  1.0000
  C   C130      1.0  0.39065  0.06035  0.71169  1.0000
  C   C131      1.0  0.36655  0.04738  0.69011  1.0000
  H   H103      1.0  0.41732  0.25372  0.91481  1.0000
  H   H104      1.0  0.39286  0.08715  0.71468  1.0000
  H   H105      1.0  0.34998  0.06399  0.67673  1.0000
  C   C132      1.0  0.51188  0.29105  0.93101  1.0000
  C   C133      1.0  0.40042  0.23792  0.84554  1.0000
  C   C134      1.0  0.43188  0.25295  0.84652  1.0000
  C   C135      1.0  0.43469  0.28774  0.85167  1.0000
  C   C136      1.0  0.40606  0.30772  0.85503  1.0000
  C   C137      1.0  0.37475  0.29286  0.85184  1.0000
  C   C138      1.0  0.37191  0.25803  0.84780  1.0000
  H   H106      1.0  0.45403  0.23757  0.84473  1.0000
  H   H107      1.0  0.45903  0.29896  0.85374  1.0000
  H   H108      1.0  0.35258  0.30810  0.85256  1.0000
  H   H109      1.0  0.34754  0.24668  0.84657  1.0000
  H   H110      1.0  0.30927  0.31756  0.54851  1.0000
  C   C139      1.0  0.21462  0.17958  0.53577  1.0000
  H   H111      1.0  0.07302  0.28882  0.75618  1.0000
  C   C140      1.0  0.01796  0.24789  0.62346  1.0000
  H   H112      1.0  0.50082  0.13442  0.90435  1.0000
  H   H113      1.0  0.24016  0.31085  0.72259  1.0000
  H   H114      1.0  0.12891  0.25357  0.92405  1.0000
  C   C141      1.0  0.46697  0.27244  0.96684  1.0000
  H   H115      1.0  0.19951  0.20097  0.52881  1.0000
  H   H116      1.0  0.47902  0.23588  0.00414  1.0000
  C   C142      1.0  0.28009  0.20999  0.69445  1.0000
  C   C143      1.0  0.30087  0.20256  0.72162  1.0000
  C   C144      1.0  0.33545  0.20024  0.71708  1.0000
  C   C145      1.0  0.34935  0.20417  0.68514  1.0000
  C   C146      1.0  0.32864  0.21245  0.65809  1.0000
  C   C147      1.0  0.29410  0.21557  0.66277  1.0000
  H   H117      1.0  0.29028  0.19886  0.74626  1.0000
  H   H118      1.0  0.35123  0.19507  0.73828  1.0000
  H   H119      1.0  0.33918  0.21560  0.63334  1.0000
  H   H120      1.0  0.27822  0.22090  0.64156  1.0000
  S   S30       1.0  0.24800  0.34061  0.84038  1.0000
  H   H121      1.0  0.25793  0.14935  0.60201  1.0000
  C   C148      1.0  0.27321  0.24289  0.55123  1.0000
  C   C149      1.0  0.22683  0.17692  0.56831  1.0000
  H   H122      1.0  0.21734  0.09822  0.60295  1.0000
  S   S31       1.0  0.40967  0.35067  0.86512  1.0000
  H   H123      1.0  0.27308  0.25051  0.57715  1.0000
  H   H124      1.0  0.33630  0.03860  0.77333  1.0000
  C   C150      1.0  0.31961  0.10678  0.58348  1.0000
  C   C151      1.0  0.21924  0.30525  0.99002  1.0000
  C   C152      1.0  0.21929  0.32167  0.95899  1.0000
  C   C153      1.0  0.24229  0.31247  0.93454  1.0000
  C   C154      1.0  0.26479  0.28634  0.94069  1.0000
  C   C155      1.0  0.26498  0.26960  0.97179  1.0000
  C   C156      1.0  0.24197  0.27929  0.99642  1.0000
  P   P5        1.0  0.29217  0.23383  0.97838  1.0000
  C   C157      1.0  0.14956  0.25440  0.77104  1.0000
  C   C158      1.0  0.27272  0.19719  0.96070  1.0000
  H   H125      1.0  0.45930  0.05613  0.65002  1.0000
  C   C159      1.0  0.26304  0.13697  0.96105  1.0000
  C   C160      1.0  0.24444  0.14002  0.93165  1.0000
  C   C161      1.0  0.24025  0.17146  0.91650  1.0000
  C   C162      1.0  0.25442  0.19991  0.93085  1.0000
  H   H126      1.0  0.22116  0.19631  0.58635  1.0000
  C   C163      1.0  0.33133  0.24030  0.95720  1.0000
  C   C164      1.0  0.34470  0.27265  0.95414  1.0000
  C   C165      1.0  0.37550  0.27745  0.93859  1.0000
  C   C166      1.0  0.39356  0.24994  0.92700  1.0000
  C   C167      1.0  0.11411  0.34220  0.52774  1.0000
  C   C168      1.0  0.24784  0.25359  0.52972  1.0000
  C   C169      1.0  0.48868  0.25044  0.98338  1.0000
  H   H127      1.0  0.29240  0.16235  0.99770  1.0000
  H   H128      1.0  0.24257  0.32553  0.91061  1.0000
  H   H129      1.0  0.28192  0.27920  0.92098  1.0000
  C   C170      1.0  0.29221  0.06613  0.52965  1.0000
  C   C171      1.0  0.17706  0.26248  0.90200  1.0000
  C   C172      1.0  0.09450  0.27246  0.75389  1.0000
  H   H130      1.0  0.23357  0.11798  0.92037  1.0000
  H   H131      1.0  0.22632  0.17380  0.89336  1.0000
  H   H132      1.0  0.25148  0.22380  0.91819  1.0000
  H   H133      1.0  0.24191  0.29835  0.78310  1.0000
  H   H134      1.0  0.12471  0.21294  0.70129  1.0000
  H   H135      1.0  0.33137  0.29421  0.96370  1.0000
  H   H136      1.0  0.38524  0.30257  0.93510  1.0000
  C   C173      1.0  0.04479  0.31932  0.68591  1.0000
  C   C174      1.0  0.38057  0.21766  0.93011  1.0000
  H   H137      1.0  0.05811  0.34514  0.58465  1.0000
  C   C175      1.0  0.27191  0.03258  0.60545  1.0000
  H   H138      1.0  0.31840  0.21406  0.55593  1.0000
  H   H139      1.0  0.14748  0.24530  0.56328  1.0000
  C   C176      1.0  0.22862  0.07460  0.60997  1.0000
  H   H140      1.0  0.49752  0.17073  0.99565  1.0000
  H   H141      1.0  0.25626  0.02652  0.53871  1.0000
  C   C177      1.0  0.27733  0.16537  0.97543  1.0000
  C   C178      1.0  0.24372  0.12856  0.52079  1.0000
  C   C179      1.0  0.12660  0.24092  0.54687  1.0000
  C   C180      1.0  0.24775  0.15030  0.57708  1.0000
  C   C181      1.0  0.25554  0.12529  0.55374  1.0000
  C   C182      1.0  0.01741  0.27903  0.60707  1.0000
  C   C183      1.0  0.34107  0.11709  0.82987  1.0000
  C   C184      1.0  0.36734  0.09407  0.82910  1.0000
  C   C185      1.0  0.36512  0.06544  0.80928  1.0000
  C   C186      1.0  0.33672  0.05996  0.78996  1.0000
  C   C187      1.0  0.30996  0.08278  0.79091  1.0000
  C   C188      1.0  0.31251  0.11157  0.81079  1.0000
  P   P6        1.0  0.27510  0.07744  0.76299  1.0000
  C   C189      1.0  0.28408  0.09767  0.72359  1.0000
  H   H142      1.0  0.38600  0.04820  0.80774  1.0000
  S   S32       1.0  0.17761  0.32718  0.61864  1.0000
  C   C190      1.0  0.35926  0.15262  0.58729  1.0000
  C   C191      1.0  0.24397  0.32402  0.77439  1.0000
  C   C192      1.0  0.25934  0.06429  0.59647  1.0000
  H   H143      1.0  0.04098  0.23857  0.63420  1.0000
  C   C193      1.0  0.25813  0.10445  0.70104  1.0000
  C   C194      1.0  0.26439  0.12237  0.67157  1.0000
  C   C195      1.0  0.29673  0.13254  0.66387  1.0000
  C   C196      1.0  0.32265  0.12548  0.68600  1.0000
  C   C197      1.0  0.31630  0.10860  0.71602  1.0000
  C   C198      1.0  0.23852  0.09853  0.77914  1.0000
  C   C199      1.0  0.23536  0.13348  0.77482  1.0000
  C   C200      1.0  0.20674  0.15025  0.78555  1.0000
  C   C201      1.0  0.18092  0.13235  0.80072  1.0000
  C   C202      1.0  0.18375  0.09761  0.80511  1.0000
  C   C203      1.0  0.21236  0.08068  0.79427  1.0000
  H   H144      1.0  0.34348  0.14001  0.84413  1.0000
  H   H145      1.0  0.38991  0.09926  0.84274  1.0000
  H   H146      1.0  0.18816  0.06252  0.64335  1.0000
  C   C204      1.0  0.07877  0.31861  0.67790  1.0000
  H   H147      1.0  0.29313  0.13043  0.81085  1.0000
  H   H148      1.0  0.39429  0.19658  0.92002  1.0000
  H   H149      1.0  0.26666  0.11251  0.97254  1.0000
  C   C205      1.0  0.12463  0.27520  0.87464  1.0000
  C   C206      1.0  0.33999  0.08744  0.60479  1.0000
  C   C207      1.0  0.21162  0.05415  0.63285  1.0000
  H   H150      1.0  0.23288  0.09699  0.70679  1.0000
  H   H151      1.0  0.24395  0.12941  0.65542  1.0000
  H   H152      1.0  0.30173  0.14707  0.64148  1.0000
  H   H153      1.0  0.34761  0.13402  0.68035  1.0000
  H   H154      1.0  0.33661  0.10436  0.73318  1.0000
  H   H155      1.0  0.25478  0.14789  0.76252  1.0000
  H   H156      1.0  0.20451  0.17713  0.78149  1.0000
  H   H157      1.0  0.15856  0.14539  0.80862  1.0000
  H   H158      1.0  0.16348  0.08371  0.81647  1.0000
  H   H159      1.0  0.21354  0.05377  0.79724  1.0000
  H   H160      1.0  0.33308  0.06234  0.61225  1.0000
  C   C208      1.0  0.17666  0.28744  0.84658  1.0000
  H   H161      1.0  0.40736  0.07675  0.93840  1.0000
  C   C209      1.0  0.14173  0.28742  0.84639  1.0000
  C   C210      1.0  0.26895  0.03289  0.75725  1.0000
  H   H162      1.0  0.12620  0.34209  0.68568  1.0000
  C   C211      1.0  0.09411  0.24438  0.55880  1.0000
  C   C212      1.0  0.37883  0.13365  0.60920  1.0000
  C   C213      1.0  0.36959  0.10085  0.61736  1.0000
  C   C214      1.0  0.15058  0.23192  0.74433  1.0000
  C   C215      1.0  0.09545  0.24964  0.72754  1.0000
  H   H163      1.0  0.40100  0.14454  0.62002  1.0000
  H   H164      1.0  0.38512  0.08617  0.63407  1.0000
  C   C216      1.0  0.44972  0.03060  0.86455  1.0000
  C   C217      1.0  0.19421  0.27480  0.87409  1.0000
  H   H165      1.0  0.41262  0.02506  0.62439  1.0000
  H   H166      1.0  0.43691  0.10934  0.89429  1.0000
  H   H167      1.0  0.46355  0.07971  0.84681  1.0000
  H   H168      1.0  0.26480  0.02202  0.81025  1.0000
  C   C218      1.0  0.33014  0.13908  0.57410  1.0000
  C   C219      1.0  0.41809  0.02870  0.91622  1.0000
  H   H169      1.0  0.33991  0.18756  0.94717  1.0000
  H   H170      1.0  0.07480  0.24848  0.71016  1.0000
  C   C220      1.0  0.47837  0.29235  0.94026  1.0000
  H   H171      1.0  0.20162  0.31271  0.00912  1.0000
  H   H172      1.0  0.31581  0.15404  0.55663  1.0000
  H   H173      1.0  0.06296  0.26140  0.82628  1.0000
  H   H174      1.0  0.51114  0.07569  0.73175  1.0000
  H   H175      1.0  0.17288  0.21729  0.73964  1.0000
  H   H176      1.0  0.17122  0.25644  0.78681  1.0000
  C   C221      1.0  0.03215  0.34372  0.70779  1.0000
  C   C222      1.0  0.12134  0.27466  0.77625  1.0000
  C   C223      1.0  0.45127  0.06552  0.86650  1.0000
  C   C224      1.0  0.43629  0.08215  0.89327  1.0000
  C   C225      1.0  0.41960  0.06376  0.91805  1.0000
  C   C226      1.0  0.12352  0.22954  0.72259  1.0000
  P   P7        1.0  0.28147  0.09015  0.56621  1.0000
  H   H177      1.0  0.36657  0.17797  0.58059  1.0000
  C   C227      1.0  0.05442  0.28720  0.82641  1.0000
  H   H178      1.0  0.44123  0.27393  0.97481  1.0000
  C   C228      1.0  0.24230  0.33116  0.74004  1.0000
  C   C229      1.0  0.14228  0.26274  0.90229  1.0000
  H   H179      1.0  0.41506  0.32520  0.99028  1.0000
  H   H180      1.0  0.08981  0.25075  0.58482  1.0000
  C   C230      1.0  0.45982  0.02894  0.64948  1.0000
  H   H181      1.0  0.04023  0.29302  0.60510  1.0000
  H   H182      1.0  0.09780  0.27559  0.87575  1.0000
  C   C231      1.0  0.34953  0.21277  0.94512  1.0000
  C   C232      1.0  0.39218  0.32822  0.00416  1.0000
  Fe  Fe16      1.0  0.21328  0.32729  0.66192  1.0000
  H   H183      1.0  0.22119  0.27526  0.87370  1.0000
  H   H184      1.0  0.46128  0.30887  0.92696  1.0000
  H   H185      1.0  0.46066  0.01817  0.84315  1.0000
  H   H186      1.0  0.19049  0.29765  0.82552  1.0000
  C   C233      1.0  0.07668  0.31352  0.81960  1.0000
  P   P8        1.0  0.11987  0.30421  0.81037  1.0000
  H   H187      1.0  0.19072  0.25321  0.92352  1.0000
  C   C234      1.0  0.15002  0.34859  0.76517  1.0000
  H   H188      1.0  0.50713  0.22444  0.80615  1.0000
  C   C235      1.0  0.02083  0.29397  0.83281  1.0000
  C   C236      1.0  0.06730  0.24031  0.53699  1.0000
  C   C237      1.0  0.14140  0.34218  0.79859  1.0000
  H   H189      1.0  0.20167  0.34169  0.95379  1.0000
  C   C238      1.0  0.10003  0.34232  0.69190  1.0000
  H   H190      1.0  0.27567  0.03394  0.70323  1.0000
  C   C239      1.0  0.06448  0.34660  0.81817  1.0000
  H   H191      1.0  0.09015  0.33061  0.53227  1.0000
  H   H192      1.0  0.04209  0.24330  0.54621  1.0000
  H   H193      1.0  0.14456  0.33060  0.74587  1.0000
  C   C240      1.0  0.27531  0.03628  0.52221  1.0000
  S   S33       1.0  0.32041  0.34303  0.90230  1.0000
  C   C241      1.0  0.36694  0.34892  0.99127  1.0000
  H   H194      1.0  0.50627  0.02527  0.67539  1.0000
  C   C242      1.0  0.24868  0.34988  0.79729  1.0000
  C   C243      1.0  0.22465  0.02288  0.64191  1.0000
  H   H195      1.0  0.29494  0.02344  0.59478  1.0000
  C   C244      1.0  0.26922  0.34931  0.53122  1.0000
  C   C245      1.0  0.29420  0.32514  0.52728  1.0000
  C   C246      1.0  0.27085  0.01863  0.72523  1.0000
  Fe  Fe17      1.0  0.15016  0.41016  0.28253  1.0000
  S   S34       1.0  0.17300  0.43501  0.32712  1.0000
  S   S35       1.0  0.09440  0.40268  0.27918  1.0000
  Fe  Fe18      1.0  0.21754  0.40175  0.24760  1.0000
  S   S36       1.0  0.24545  0.42552  0.28958  1.0000
  Fe  Fe19      1.0  0.21212  0.39487  0.32277  1.0000
  Fe  Fe20      1.0  0.20405  0.46326  0.28940  1.0000
  S   S37       1.0  0.21476  0.51868  0.29315  1.0000
  S   S38       1.0  0.17801  0.44174  0.24492  1.0000
  H   H196      1.0  0.12046  0.48867  0.30022  1.0000
  S   S39       1.0  0.32381  0.66628  0.20672  1.0000
  C   C247      1.0  0.16779  0.64994  0.34083  1.0000
  Fe  Fe21      1.0  0.32408  0.66359  0.10969  1.0000
  S   S40       1.0  0.36534  0.64197  0.14051  1.0000
  C   C248      1.0  0.43601  0.38436  0.06492  1.0000
  Fe  Fe22      1.0  0.32485  0.62143  0.17345  1.0000
  S   S41       1.0  0.32438  0.56696  0.18900  1.0000
  C   C249      1.0  0.09766  0.35176  0.32608  1.0000
  S   S42       1.0  0.28374  0.63941  0.14017  1.0000
  C   C250      1.0  0.41373  0.37199  0.08879  1.0000
  H   H197      1.0  0.39870  0.57659  0.11858  1.0000
  C   C251      1.0  0.04645  0.57484  0.34533  1.0000
  H   H198      1.0  0.04740  0.62309  0.32033  1.0000
  C   C252      1.0  0.28219  0.55916  0.09996  1.0000
  C   C253      1.0  0.27678  0.52466  0.10112  1.0000
  C   C254      1.0  0.11199  0.64598  0.19407  1.0000
  H   H199      1.0  0.21289  0.46174  0.38435  1.0000
  H   H200      1.0  0.26679  0.44760  0.41063  1.0000
  C   C255      1.0  0.48027  0.43834  0.29535  1.0000
  H   H201      1.0  0.26448  0.66097  0.24197  1.0000
  H   H202      1.0  0.26393  0.66081  0.30382  1.0000
  S   S43       1.0  0.23461  0.36657  0.36609  1.0000
  H   H203      1.0  0.20868  0.61515  0.33720  1.0000
  C   C256      1.0  0.30034  0.36039  0.17316  1.0000
  H   H204      1.0  0.28271  0.60367  0.06908  1.0000
  C   C257      1.0  0.29345  0.55440  0.21782  1.0000
  C   C258      1.0  0.28195  0.52124  0.21735  1.0000
  C   C259      1.0  0.25774  0.51033  0.24026  1.0000
  C   C260      1.0  0.24491  0.53247  0.26403  1.0000
  C   C261      1.0  0.25633  0.56573  0.26452  1.0000
  C   C262      1.0  0.28042  0.57673  0.24134  1.0000
  H   H205      1.0  0.29138  0.50391  0.19902  1.0000
  H   H206      1.0  0.24896  0.48474  0.23949  1.0000
  H   H207      1.0  0.24668  0.58303  0.28288  1.0000
  H   H208      1.0  0.28899  0.60240  0.24180  1.0000
  C   C263      1.0  0.38584  0.63975  0.25414  1.0000
  H   H209      1.0  0.02631  0.38630  0.29570  1.0000
  H   H210      1.0  0.29357  0.39447  0.25038  1.0000
  H   H211      1.0  0.22409  0.63879  0.02946  1.0000
  H   H212      1.0  0.40554  0.41970  0.33086  1.0000
  C   C264      1.0  0.43028  0.41590  0.32066  1.0000
  C   C265      1.0  0.04357  0.41293  0.38401  1.0000
  H   H213      1.0  0.45573  0.42857  0.04088  1.0000
  C   C266      1.0  0.21337  0.44864  0.40824  1.0000
  H   H214      1.0  0.40146  0.63051  0.23408  1.0000
  H   H215      1.0  0.31970  0.61657  0.30202  1.0000
  C   C267      1.0  0.44874  0.44335  0.30926  1.0000
  C   C268      1.0  0.03094  0.54347  0.34740  1.0000
  S   S44       1.0  0.24182  0.38207  0.20059  1.0000
  C   C269      1.0  0.04175  0.46101  0.34660  1.0000
  C   C270      1.0  0.19691  0.40669  0.02865  1.0000
  H   H216      1.0  0.32669  0.67375  0.32266  1.0000
  H   H217      1.0  0.04547  0.51028  0.22676  1.0000
  H   H218      1.0  0.21325  0.62726  0.08922  1.0000
  C   C271      1.0  0.25170  0.68074  0.25501  1.0000
  C   C272      1.0  0.06810  0.63172  0.23315  1.0000
  C   C273      1.0  0.06698  0.51812  0.24100  1.0000
  C   C274      1.0  0.35924  0.68211  0.03520  1.0000
  H   H219      1.0  0.18695  0.58742  0.28699  1.0000
  C   C275      1.0  0.09015  0.66750  0.17700  1.0000
  H   H220      1.0  0.03849  0.52615  0.36693  1.0000
  H   H221      1.0  0.28043  0.51113  0.12447  1.0000
  H   H222      1.0  0.05732  0.39245  0.39551  1.0000
  C   C276      1.0  0.03596  0.59847  0.32154  1.0000
  H   H223      1.0  0.29051  0.57180  0.12228  1.0000
  H   H224      1.0  0.26545  0.48064  0.07319  1.0000
  C   C277      1.0  0.07713  0.37278  0.30697  1.0000
  C   C278      1.0  0.21499  0.41371  0.46953  1.0000
  C   C279      1.0  0.09957  0.64075  0.43993  1.0000
  H   H225      1.0  0.35709  0.59432  0.25799  1.0000
  H   H226      1.0  0.05457  0.47761  0.32941  1.0000
  H   H227      1.0  0.07106  0.47123  0.26786  1.0000
  H   H228      1.0  0.07042  0.56566  0.21608  1.0000
  H   H229      1.0  0.43844  0.46847  0.31089  1.0000
  H   H230      1.0  0.09884  0.68172  0.15551  1.0000
  C   C280      1.0  0.18368  0.43892  0.42372  1.0000
  C   C281      1.0  0.27802  0.57690  0.06993  1.0000
  H   H231      1.0  0.09915  0.63982  0.38598  1.0000
  C   C282      1.0  0.34371  0.66482  0.30384  1.0000
  C   C283      1.0  0.09494  0.66037  0.46845  1.0000
  H   H232      1.0  0.09772  0.64884  0.49293  1.0000
  H   H233      1.0  0.49435  0.45959  0.28604  1.0000
  H   H234      1.0  0.45076  0.36696  0.05031  1.0000
  C   C284      1.0  0.33894  0.37542  0.22899  1.0000
  H   H235      1.0  0.05937  0.61861  0.25523  1.0000
  C   C285      1.0  0.08119  0.49616  0.26436  1.0000
  C   C286      1.0  0.28632  0.41005  0.08075  1.0000
  C   C287      1.0  0.26141  0.41478  0.10465  1.0000
  C   C288      1.0  0.26848  0.43199  0.13406  1.0000
  C   C289      1.0  0.30058  0.44388  0.14000  1.0000
  C   C290      1.0  0.32588  0.43932  0.11616  1.0000
  C   C291      1.0  0.31836  0.42240  0.08633  1.0000
  P   P9        1.0  0.36714  0.45634  0.12270  1.0000
  C   C292      1.0  0.36887  0.49795  0.10422  1.0000
  C   C293      1.0  0.37576  0.45799  0.16718  1.0000
  C   C294      1.0  0.36089  0.48313  0.18655  1.0000
  C   C295      1.0  0.36581  0.48416  0.22113  1.0000
  C   C296      1.0  0.38586  0.46007  0.23675  1.0000
  C   C297      1.0  0.40143  0.43533  0.21766  1.0000
  C   C298      1.0  0.39648  0.43427  0.18300  1.0000
  C   C299      1.0  0.38606  0.52409  0.11996  1.0000
  C   C300      1.0  0.38639  0.55628  0.10572  1.0000
  C   C301      1.0  0.37037  0.56248  0.07527  1.0000
  C   C302      1.0  0.35444  0.53629  0.05878  1.0000
  C   C303      1.0  0.35355  0.50424  0.07328  1.0000
  C   C304      1.0  0.39590  0.42872  0.10158  1.0000
  C   C305      1.0  0.41874  0.44117  0.07793  1.0000
  C   C306      1.0  0.30475  0.38295  0.22883  1.0000
  C   C307      1.0  0.36084  0.61942  0.26756  1.0000
  C   C308      1.0  0.39365  0.39398  0.10689  1.0000
  H   H236      1.0  0.28081  0.39676  0.05788  1.0000
  H   H237      1.0  0.23670  0.40487  0.10064  1.0000
  H   H238      1.0  0.24927  0.43532  0.15285  1.0000
  H   H239      1.0  0.30534  0.45610  0.16349  1.0000
  H   H240      1.0  0.33719  0.41845  0.06732  1.0000
  H   H241      1.0  0.34502  0.50172  0.17484  1.0000
  H   H242      1.0  0.35353  0.50343  0.23575  1.0000
  H   H243      1.0  0.38891  0.46031  0.26365  1.0000
  H   H244      1.0  0.41647  0.41619  0.22980  1.0000
  H   H245      1.0  0.40830  0.41441  0.16907  1.0000
  H   H246      1.0  0.39886  0.51998  0.14343  1.0000
  H   H247      1.0  0.16116  0.41384  0.46557  1.0000
  H   H248      1.0  0.26855  0.41722  0.46472  1.0000
  C   C309      1.0  0.43865  0.41898  0.05960  1.0000
  H   H249      1.0  0.34055  0.48447  0.06063  1.0000
  H   H250      1.0  0.42080  0.46784  0.07315  1.0000
  H   H251      1.0  0.37596  0.38390  0.12473  1.0000
  H   H252      1.0  0.10279  0.65523  0.28691  1.0000
  C   C310      1.0  0.24469  0.42349  0.45371  1.0000
  C   C311      1.0  0.04624  0.65292  0.21581  1.0000
  C   C312      1.0  0.10106  0.62770  0.22224  1.0000
  C   C313      1.0  0.04243  0.37040  0.31060  1.0000
  P   P10       1.0  0.12889  0.59978  0.24484  1.0000
  C   C314      1.0  0.10889  0.56004  0.25383  1.0000
  C   C315      1.0  0.16557  0.59197  0.21987  1.0000
  C   C316      1.0  0.17055  0.56100  0.20402  1.0000
  C   C317      1.0  0.19920  0.55548  0.18489  1.0000
  C   C318      1.0  0.22281  0.58088  0.18120  1.0000
  C   C319      1.0  0.21808  0.61165  0.19706  1.0000
  C   C320      1.0  0.18976  0.61712  0.21653  1.0000
  C   C321      1.0  0.12276  0.53785  0.27753  1.0000
  C   C322      1.0  0.10902  0.50603  0.28264  1.0000
  C   C323      1.0  0.08101  0.54974  0.23537  1.0000
  C   C324      1.0  0.14299  0.61881  0.28322  1.0000
  C   C325      1.0  0.12555  0.64561  0.29782  1.0000
  H   H253      1.0  0.37009  0.58765  0.06463  1.0000
  C   C326      1.0  0.26799  0.50762  0.07205  1.0000
  C   C327      1.0  0.18519  0.62328  0.32655  1.0000
  C   C328      1.0  0.17283  0.60773  0.29796  1.0000
  H   H254      1.0  0.12514  0.68214  0.33737  1.0000
  H   H255      1.0  0.13727  0.64394  0.18510  1.0000
  C   C329      1.0  0.33968  0.63203  0.29226  1.0000
  H   H256      1.0  0.15275  0.54086  0.20678  1.0000
  H   H257      1.0  0.20349  0.53124  0.17359  1.0000
  H   H258      1.0  0.24533  0.57635  0.16702  1.0000
  H   H259      1.0  0.16015  0.44445  0.41167  1.0000
  H   H260      1.0  0.18681  0.64103  0.22901  1.0000
  H   H261      1.0  0.14483  0.54452  0.29137  1.0000
  H   H262      1.0  0.08618  0.43269  0.35782  1.0000
  H   H263      1.0  0.10631  0.61451  0.44247  1.0000
  C   C330      1.0  0.18441  0.42150  0.45428  1.0000
  C   C331      1.0  0.26377  0.52516  0.04167  1.0000
  H   H264      1.0  0.42816  0.36266  0.32669  1.0000
  C   C332      1.0  0.21808  0.67880  0.10392  1.0000
  H   H265      1.0  0.02917  0.66635  0.49164  1.0000
  H   H266      1.0  0.23670  0.63110  0.19508  1.0000
  H   H267      1.0  0.04652  0.38715  0.48157  1.0000
  H   H268      1.0  0.06626  0.58103  0.36251  1.0000
  P   P11       1.0  0.21671  0.39026  0.50839  1.0000
  C   C333      1.0  0.24383  0.44084  0.42318  1.0000
  H   H269      1.0  0.24079  0.46025  0.51286  1.0000
  C   C334      1.0  0.28518  0.37489  0.20114  1.0000
  C   C335      1.0  0.05726  0.67092  0.18784  1.0000
  H   H270      1.0  0.17777  0.66251  0.36257  1.0000
  C   C336      1.0  0.05981  0.43565  0.36284  1.0000
  C   C337      1.0  0.49347  0.40591  0.29309  1.0000
  C   C338      1.0  0.44344  0.38344  0.31852  1.0000
  H   H271      1.0  0.35375  0.38133  0.25071  1.0000
  C   C339      1.0  0.22468  0.65931  0.04696  1.0000
  S   S45       1.0  0.18719  0.36811  0.28090  1.0000
  C   C340      1.0  0.35365  0.35916  0.20173  1.0000
  C   C341      1.0  0.09556  0.65496  0.40811  1.0000
  S   S46       1.0  0.32698  0.65852  0.05366  1.0000
  C   C342      1.0  0.26899  0.55995  0.04080  1.0000
  C   C343      1.0  0.13803  0.66103  0.32652  1.0000
  C   C344      1.0  0.47542  0.37820  0.30518  1.0000
  C   C345      1.0  0.18936  0.43680  0.04473  1.0000
  C   C346      1.0  0.21811  0.65268  0.08079  1.0000
  C   C347      1.0  0.03622  0.36407  0.49154  1.0000
  H   H272      1.0  0.01687  0.44550  0.28543  1.0000
  C   C348      1.0  0.25110  0.68049  0.29018  1.0000
  H   H273      1.0  0.34212  0.54103  0.03511  1.0000
  H   H274      1.0  0.02095  0.65612  0.22468  1.0000
  C   C349      1.0  0.38961  0.67270  0.26530  1.0000
  H   H275      1.0  0.21331  0.67369  0.13022  1.0000
  H   H276      1.0  0.45952  0.36289  0.23987  1.0000
  H   H277      1.0  0.18339  0.38405  0.03501  1.0000
  H   H278      1.0  0.30333  0.44803  0.01959  1.0000
  H   H279      1.0  0.16979  0.43757  0.06342  1.0000
  C   C350      1.0  0.20717  0.46591  0.03683  1.0000
  H   H280      1.0  0.26701  0.57386  0.01758  1.0000
  H   H281      1.0  0.47274  0.35975  0.18006  1.0000
  H   H282      1.0  0.20100  0.48907  0.04945  1.0000
  H   H283      1.0  0.28556  0.35513  0.15126  1.0000
  C   C351      1.0  0.24872  0.35841  0.50412  1.0000
  H   H284      1.0  0.12439  0.35297  0.32316  1.0000
  C   C352      1.0  0.33432  0.35210  0.17360  1.0000
  H   H285      1.0  0.06205  0.41689  0.66365  1.0000
  Fe  Fe23      1.0  0.20255  0.61277  0.77555  1.0000
  S   S47       1.0  0.17408  0.63798  0.81670  1.0000
  S   S48       1.0  0.20888  0.55646  0.77348  1.0000
  C   C353      1.0  0.22623  0.41734  0.54317  1.0000
  S   S49       1.0  0.03869  0.39932  0.74816  1.0000
  H   H286      1.0  0.17020  0.50085  0.79824  1.0000
  C   C354      1.0  0.29773  0.49246  0.98864  1.0000
  S   S50       1.0  0.24562  0.64802  0.77711  1.0000
  S   S51       1.0  0.17669  0.64101  0.73406  1.0000
  Fe  Fe24      1.0  0.21529  0.67592  0.81508  1.0000
  Fe  Fe25      1.0  0.31288  0.38612  0.93677  1.0000
  S   S52       1.0  0.35533  0.41568  0.91554  1.0000
  S   S53       1.0  0.30463  0.37669  0.99177  1.0000
  Fe  Fe26      1.0  0.28580  0.37061  0.86787  1.0000
  S   S54       1.0  0.32563  0.39920  0.84098  1.0000
  C   C355      1.0  0.02671  0.51375  0.72566  1.0000
  Fe  Fe27      1.0  0.35994  0.37424  0.87802  1.0000
  H   H287      1.0  0.37448  0.42808  0.79675  1.0000
  Fe  Fe28      1.0  0.31675  0.43765  0.88090  1.0000
  S   S55       1.0  0.31362  0.49392  0.87501  1.0000
  H   H288      1.0  0.25807  0.43394  0.97652  1.0000
  S   S56       1.0  0.27386  0.41081  0.90489  1.0000
  H   H289      1.0  0.11181  0.60306  0.75240  1.0000
  H   H290      1.0  0.13260  0.56420  0.79609  1.0000
  C   C356      1.0  0.36355  0.68219  0.00030  1.0000
  C   C357      1.0  0.10631  0.57033  0.79502  1.0000
  C   C358      1.0  0.23643  0.53865  0.80307  1.0000
  C   C359      1.0  0.24348  0.50410  0.80227  1.0000
  C   C360      1.0  0.26651  0.48977  0.82480  1.0000
  C   C361      1.0  0.28272  0.51003  0.84804  1.0000
  C   C362      1.0  0.27505  0.54428  0.84925  1.0000
  C   C363      1.0  0.25200  0.55865  0.82692  1.0000
  H   H291      1.0  0.23168  0.48846  0.78377  1.0000
  H   H292      1.0  0.27233  0.46328  0.82361  1.0000
  H   H293      1.0  0.28737  0.55975  0.86732  1.0000
  H   H294      1.0  0.24676  0.58527  0.82782  1.0000
  C   C364      1.0  0.05349  0.36742  0.72179  1.0000
  C   C365      1.0  0.08737  0.36657  0.71382  1.0000
  C   C366      1.0  0.04687  0.50238  0.69926  1.0000
  H   H295      1.0  0.10373  0.38495  0.72450  1.0000
  C   C367      1.0  0.14852  0.67974  0.58609  1.0000
  H   H296      1.0  0.49352  0.57017  0.74816  1.0000
  S   S57       1.0  0.09651  0.68156  0.77490  1.0000
  H   H297      1.0  0.09356  0.54046  0.83819  1.0000
  H   H298      1.0  0.25113  0.41584  0.74240  1.0000
  H   H299      1.0  0.37032  0.36134  0.96736  1.0000
  C   C368      1.0  0.05079  0.56672  0.81843  1.0000
  C   C369      1.0  0.06372  0.38193  0.62284  1.0000
  H   H300      1.0  0.08039  0.36734  0.81120  1.0000
  H   H301      1.0  0.18664  0.42482  0.77386  1.0000
  C   C370      1.0  0.12354  0.61265  0.67336  1.0000
  C   C371      1.0  0.08434  0.55721  0.81882  1.0000
  H   H302      1.0  0.07235  0.62648  0.68134  1.0000
  C   C372      1.0  0.24341  0.36433  0.72845  1.0000
  C   C373      1.0  0.22172  0.40557  0.57610  1.0000
  H   H303      1.0  0.04642  0.48141  0.64933  1.0000
  C   C374      1.0  0.25281  0.38286  0.78560  1.0000
  C   C375      1.0  0.23300  0.46491  0.01312  1.0000
  H   H304      1.0  0.25225  0.49533  0.93084  1.0000
  H   H305      1.0  0.50294  0.39259  0.89759  1.0000
  C   C376      1.0  0.34196  0.64039  0.72660  1.0000
  C   C377      1.0  0.04509  0.36161  0.60164  1.0000
  H   H306      1.0  0.17284  0.59189  0.66853  1.0000
  Fe  Fe29      1.0  0.21710  0.67923  0.73985  1.0000
  C   C378      1.0  0.47244  0.58163  0.76061  1.0000
  C   C379      1.0  0.26320  0.60759  0.93047  1.0000
  H   H307      1.0  0.02143  0.37869  0.82270  1.0000
  H   H308      1.0  0.05070  0.64146  0.83209  1.0000
  C   C380      1.0  0.37619  0.64627  0.72532  1.0000
  C   C381      1.0  0.24397  0.47108  0.56519  1.0000
  H   H309      1.0  0.25263  0.49648  0.56101  1.0000
  C   C382      1.0  0.23927  0.63025  0.91874  1.0000
  C   C383      1.0  0.24980  0.39015  0.75119  1.0000
  C   C384      1.0  0.22177  0.40591  0.00419  1.0000
  H   H310      1.0  0.33246  0.61517  0.72931  1.0000
  C   C385      1.0  0.03086  0.35322  0.82453  1.0000
  C   C386      1.0  0.16583  0.37854  0.75630  1.0000
  C   C387      1.0  0.23969  0.45900  0.59787  1.0000
  C   C388      1.0  0.09038  0.60613  0.68143  1.0000
  C   C389      1.0  0.22862  0.42624  0.60329  1.0000
  H   H311      1.0  0.17367  0.41276  0.83345  1.0000
  C   C390      1.0  0.15178  0.38910  0.53345  1.0000
  C   C391      1.0  0.12061  0.37456  0.53918  1.0000
  H   H312      1.0  0.22563  0.41672  0.62864  1.0000
  H   H313      1.0  0.25659  0.40294  0.80320  1.0000
  H   H314      1.0  0.29943  0.59714  0.96887  1.0000
  C   C392      1.0  0.23924  0.43504  0.99591  1.0000
  H   H315      1.0  0.09062  0.38048  0.62247  1.0000
  H   H316      1.0  0.39345  0.62547  0.72713  1.0000
  C   C393      1.0  0.36354  0.47947  0.96886  1.0000
  C   C394      1.0  0.34644  0.50708  0.95559  1.0000
  C   C395      1.0  0.31376  0.51377  0.96563  1.0000
  C   C396      1.0  0.23290  0.52473  0.97214  1.0000
  C   C397      1.0  0.23545  0.51527  0.93841  1.0000
  C   C398      1.0  0.21614  0.53138  0.91399  1.0000
  C   C399      1.0  0.19404  0.55689  0.92304  1.0000
  C   C400      1.0  0.19097  0.56608  0.95662  1.0000
  C   C401      1.0  0.21009  0.54985  0.98118  1.0000
  H   H317      1.0  0.38857  0.47389  0.96043  1.0000
  H   H318      1.0  0.35812  0.52272  0.93667  1.0000
  H   H319      1.0  0.30100  0.53525  0.95493  1.0000
  H   H320      1.0  0.21833  0.52400  0.88800  1.0000
  H   H321      1.0  0.17932  0.56949  0.90397  1.0000
  H   H322      1.0  0.17366  0.58574  0.96358  1.0000
  H   H323      1.0  0.44407  0.53603  0.76196  1.0000
  C   C402      1.0  0.43253  0.47394  0.83768  1.0000
  C   C403      1.0  0.41530  0.44580  0.82645  1.0000
  C   C404      1.0  0.38765  0.44992  0.80571  1.0000
  C   C405      1.0  0.37665  0.48207  0.79676  1.0000
  C   C406      1.0  0.39410  0.51050  0.80750  1.0000
  C   C407      1.0  0.42213  0.50617  0.82808  1.0000
  P   P12       1.0  0.38084  0.55218  0.79504  1.0000
  C   C408      1.0  0.41705  0.57704  0.78478  1.0000
  C   C409      1.0  0.35448  0.54907  0.75855  1.0000
  C   C410      1.0  0.36775  0.55200  0.72610  1.0000
  C   C411      1.0  0.34697  0.54949  0.69815  1.0000
  C   C412      1.0  0.31291  0.54385  0.70239  1.0000
  C   C413      1.0  0.29965  0.54038  0.73455  1.0000
  C   C414      1.0  0.32038  0.54269  0.76247  1.0000
  C   C415      1.0  0.41818  0.61126  0.79292  1.0000
  C   C416      1.0  0.44620  0.63042  0.78501  1.0000
  C   C417      1.0  0.14988  0.36560  0.82321  1.0000
  H   H324      1.0  0.48696  0.35740  0.84949  1.0000
  C   C418      1.0  0.44443  0.56235  0.76855  1.0000
  C   C419      1.0  0.35912  0.57296  0.82869  1.0000
  C   C420      1.0  0.36847  0.56734  0.86215  1.0000
  C   C421      1.0  0.35510  0.58711  0.88768  1.0000
  C   C422      1.0  0.33185  0.61211  0.88006  1.0000
  C   C423      1.0  0.32133  0.61677  0.84708  1.0000
  C   C424      1.0  0.33536  0.59789  0.82140  1.0000
  H   H325      1.0  0.41472  0.68294  0.72201  1.0000
  H   H326      1.0  0.42314  0.42074  0.83390  1.0000
  H   H327      1.0  0.49506  0.63060  0.76298  1.0000
  H   H328      1.0  0.35457  0.48442  0.78148  1.0000
  H   H329      1.0  0.43583  0.52774  0.83682  1.0000
  H   H330      1.0  0.39399  0.55628  0.72220  1.0000
  H   H331      1.0  0.35725  0.55194  0.67316  1.0000
  H   H332      1.0  0.29675  0.54200  0.68080  1.0000
  H   H333      1.0  0.27326  0.53580  0.73793  1.0000
  H   H334      1.0  0.30982  0.53939  0.78717  1.0000
  H   H335      1.0  0.39752  0.62353  0.80531  1.0000
  C   C425      1.0  0.31507  0.46474  0.00175  1.0000
  H   H336      1.0  0.16493  0.67067  0.60572  1.0000
  C   C426      1.0  0.02112  0.36362  0.52310  1.0000
  H   H337      1.0  0.34719  0.66752  0.98477  1.0000
  H   H338      1.0  0.38648  0.54822  0.86860  1.0000
  H   H339      1.0  0.36305  0.58338  0.91330  1.0000
  C   C427      1.0  0.03171  0.49021  0.67014  1.0000
  C   C428      1.0  0.17369  0.40200  0.78079  1.0000
  H   H340      1.0  0.32807  0.60344  0.79589  1.0000
  C   C429      1.0  0.14698  0.58665  0.67420  1.0000
  C   C430      1.0  0.13732  0.55412  0.68321  1.0000
  C   C431      1.0  0.10403  0.54727  0.69140  1.0000
  C   C432      1.0  0.08058  0.57360  0.69034  1.0000
  P   P13       1.0  0.09170  0.50499  0.70266  1.0000
  C   C433      1.0  0.31975  0.66727  0.72483  1.0000
  C   C434      1.0  0.11167  0.47623  0.67403  1.0000
  C   C435      1.0  0.11397  0.48421  0.63979  1.0000
  C   C436      1.0  0.12966  0.46211  0.61766  1.0000
  C   C437      1.0  0.14338  0.43204  0.62960  1.0000
  C   C438      1.0  0.14152  0.42408  0.66364  1.0000
  C   C439      1.0  0.12568  0.44600  0.68579  1.0000
  H   H341      1.0  0.22805  0.38273  0.99175  1.0000
  H   H342      1.0  0.22764  0.62643  0.89459  1.0000
  H   H343      1.0  0.03772  0.52384  0.74816  1.0000
  H   H344      1.0  0.05300  0.61950  0.75092  1.0000
  C   C440      1.0  0.24669  0.66430  0.96837  1.0000
  C   C441      1.0  0.10454  0.49396  0.74479  1.0000
  C   C442      1.0  0.13571  0.50371  0.75706  1.0000
  C   C443      1.0  0.14622  0.49308  0.78884  1.0000
  C   C444      1.0  0.12591  0.47246  0.80846  1.0000
  C   C445      1.0  0.09524  0.46199  0.79614  1.0000
  C   C446      1.0  0.08469  0.47260  0.76448  1.0000
  C   C447      1.0  0.09458  0.59212  0.77023  1.0000
  H   H345      1.0  0.15590  0.53436  0.68388  1.0000
  H   H346      1.0  0.05477  0.56944  0.69670  1.0000
  H   H347      1.0  0.10358  0.50750  0.63024  1.0000
  H   H348      1.0  0.13134  0.46837  0.59129  1.0000
  H   H349      1.0  0.15555  0.41484  0.61260  1.0000
  H   H350      1.0  0.15246  0.40087  0.67290  1.0000
  H   H351      1.0  0.12452  0.43920  0.71204  1.0000
  C   C448      1.0  0.27162  0.64210  0.97922  1.0000
  C   C449      1.0  0.06096  0.60117  0.76933  1.0000
  C   C450      1.0  0.38818  0.67906  0.72196  1.0000
  H   H352      1.0  0.15206  0.51944  0.74231  1.0000
  H   H353      1.0  0.13414  0.46423  0.83298  1.0000
  H   H354      1.0  0.07971  0.44513  0.81072  1.0000
  H   H355      1.0  0.06121  0.46351  0.75523  1.0000
  H   H356      1.0  0.14414  0.36074  0.84927  1.0000
  P   P14       1.0  0.25645  0.50227  0.00358  1.0000
  H   H357      1.0  0.26950  0.58572  0.91586  1.0000
  H   H358      1.0  0.13119  0.63801  0.66713  1.0000
  C   C451      1.0  0.27980  0.61381  0.96043  1.0000
  S   S58       1.0  0.23346  0.37369  0.68638  1.0000
  C   C452      1.0  0.03870  0.58867  0.79347  1.0000
  H   H359      1.0  0.32204  0.62803  0.89957  1.0000
  H   H360      1.0  0.45390  0.47071  0.85385  1.0000
  H   H361      1.0  0.17270  0.38318  0.73046  1.0000
  C   C453      1.0  0.16622  0.39527  0.81432  1.0000
  H   H362      1.0  0.30256  0.63537  0.84127  1.0000
  H   H363      1.0  0.24513  0.47487  0.61906  1.0000
  H   H364      1.0  0.15632  0.41433  0.54209  1.0000
  C   C454      1.0  0.23115  0.65863  0.93748  1.0000
  C   C455      1.0  0.34781  0.45821  0.99185  1.0000
  H   H365      1.0  0.29322  0.66289  0.72575  1.0000
  H   H366      1.0  0.44674  0.65679  0.79165  1.0000
  H   H367      1.0  0.20676  0.55670  0.00713  1.0000
  C   C456      1.0  0.03004  0.65855  0.82836  1.0000
  H   H368      1.0  0.21328  0.38016  0.58075  1.0000
  Fe  Fe30      1.0  0.15120  0.66891  0.77523  1.0000
  C   C457      1.0  0.47333  0.61565  0.76888  1.0000
  H   H369      1.0  0.28494  0.64692  0.00208  1.0000
  C   C458      1.0  0.33716  0.35285  0.00893  1.0000
  H   H370      1.0  0.03482  0.55796  0.83844  1.0000
  C   C459      1.0  0.04768  0.40237  0.64605  1.0000
  C   C460      1.0  0.23729  0.45036  0.53790  1.0000
  H   H371      1.0  0.10151  0.38831  0.55249  1.0000
  C   C461      1.0  0.51259  0.35758  0.85810  1.0000
  H   H372      1.0  0.26591  0.36025  0.55561  1.0000
  H   H373      1.0  0.21349  0.67648  0.92719  1.0000
  H   H374      1.0  0.36060  0.43612  0.00139  1.0000
  H   H375      1.0  0.17174  0.67383  0.98330  1.0000
  H   H376      1.0  0.01966  0.38665  0.53723  1.0000
  H   H377      1.0  0.18695  0.68073  0.54835  1.0000
  H   H378      1.0  0.10555  0.68266  0.61829  1.0000
  C   C462      1.0  0.17687  0.37106  0.51673  1.0000
  H   H379      1.0  0.37019  0.80095  0.30653  1.0000
  S   S59       1.0  0.32075  0.71221  0.13723  1.0000
  Fe  Fe31      1.0  0.21430  0.75041  0.37922  1.0000
  S   S60       1.0  0.19287  0.79577  0.35336  1.0000
  Fe  Fe32      1.0  0.20438  0.78016  0.44928  1.0000
  S   S61       1.0  0.18260  0.82770  0.42826  1.0000
  H   H380      1.0  0.48747  0.92282  0.48643  1.0000
  Fe  Fe33      1.0  0.15440  0.79370  0.39406  1.0000
  S   S62       1.0  0.09910  0.80011  0.38763  1.0000
  Fe  Fe34      1.0  0.22349  0.82472  0.38999  1.0000
  S   S63       1.0  0.25215  0.87091  0.37422  1.0000
  S   S64       1.0  0.17336  0.74611  0.41751  1.0000
  S   S65       1.0  0.24743  0.77954  0.41360  1.0000
  Fe  Fe35      1.0  0.42609  0.95082  0.28027  1.0000
  S   S66       1.0  0.46187  0.92019  0.31070  1.0000
  S   S67       1.0  0.42136  0.00595  0.29149  1.0000
  Fe  Fe36      1.0  0.40889  0.89192  0.23623  1.0000
  S   S68       1.0  0.44283  0.85644  0.26362  1.0000
  S   S69       1.0  0.37712  0.87316  0.19450  1.0000
  Fe  Fe37      1.0  0.42248  0.88085  0.30960  1.0000
  S   S70       1.0  0.40731  0.85069  0.35471  1.0000
  Fe  Fe38      1.0  0.47881  0.89910  0.26156  1.0000
  S   S71       1.0  0.38530  0.91278  0.28241  1.0000
  S   S72       1.0  0.44623  0.93321  0.23096  1.0000
  H   H381      1.0  0.31909  0.71990  0.25768  1.0000
  C   C463      1.0  0.04759  0.76397  0.36190  1.0000
  C   C464      1.0  0.08163  0.77114  0.35991  1.0000
  C   C465      1.0  0.10124  0.75537  0.33571  1.0000
  C   C466      1.0  0.32239  0.74631  0.26255  1.0000
  H   H382      1.0  0.12754  0.76077  0.33403  1.0000
  H   H383      1.0  0.26250  0.80954  0.47552  1.0000
  C   C467      1.0  0.29536  0.86493  0.36952  1.0000
  C   C468      1.0  0.31587  0.89272  0.36362  1.0000
  C   C469      1.0  0.35020  0.88844  0.35889  1.0000
  C   C470      1.0  0.36441  0.85641  0.36109  1.0000
  C   C471      1.0  0.34411  0.82874  0.36777  1.0000
  C   C472      1.0  0.30961  0.83289  0.37127  1.0000
  H   H384      1.0  0.30523  0.91760  0.36240  1.0000
  H   H385      1.0  0.36566  0.91004  0.35397  1.0000
  H   H386      1.0  0.35487  0.80392  0.36913  1.0000
  H   H387      1.0  0.29412  0.81116  0.37459  1.0000
  P   P15       1.0  0.37487  0.72813  0.30505  1.0000
  C   C473      1.0  0.37694  0.74222  0.40703  1.0000
  C   C474      1.0  0.05259  0.72594  0.31495  1.0000
  H   H388      1.0  0.39515  0.74815  0.42599  1.0000
  H   H389      1.0  0.17353  0.98105  0.18288  1.0000
  C   C475      1.0  0.08681  0.76311  0.49350  1.0000
  C   C476      1.0  0.40529  0.72092  0.04009  1.0000
  C   C477      1.0  0.28505  0.91425  0.46821  1.0000
  C   C478      1.0  0.21674  0.73031  0.28971  1.0000
  C   C479      1.0  0.21721  0.73048  0.25450  1.0000
  H   H390      1.0  0.20289  0.74929  0.30279  1.0000
  H   H391      1.0  0.20412  0.74999  0.24086  1.0000
  C   C480      1.0  0.39722  0.76059  0.18859  1.0000
  C   C481      1.0  0.42369  0.78307  0.19121  1.0000
  C   C482      1.0  0.41761  0.81772  0.19232  1.0000
  C   C483      1.0  0.38494  0.82995  0.19130  1.0000
  C   C484      1.0  0.35844  0.80746  0.18904  1.0000
  C   C485      1.0  0.36457  0.77280  0.18798  1.0000
  H   H392      1.0  0.44889  0.77361  0.19253  1.0000
  H   H393      1.0  0.43821  0.83498  0.19374  1.0000
  H   H394      1.0  0.33315  0.81677  0.18866  1.0000
  H   H395      1.0  0.34396  0.75559  0.18727  1.0000
  S   S73       1.0  0.23551  0.70554  0.35196  1.0000
  C   C486      1.0  0.36279  0.99597  0.32677  1.0000
  H   H396      1.0  0.40072  0.89916  0.42252  1.0000
  C   C487      1.0  0.32954  0.72943  0.35778  1.0000
  C   C488      1.0  0.38041  0.97894  0.51129  1.0000
  H   H397      1.0  0.36432  0.96993  0.31979  1.0000
  C   C489      1.0  0.30336  0.80363  0.25475  1.0000
  C   C490      1.0  0.48510  0.73804  0.12253  1.0000
  S   S74       1.0  0.03511  0.69795  0.28617  1.0000
  C   C491      1.0  0.34358  0.73791  0.41596  1.0000
  H   H398      1.0  0.26895  0.99631  0.48669  1.0000
  H   H399      1.0  0.03262  0.77570  0.38103  1.0000
  C   C492      1.0  0.30029  0.76941  0.24809  1.0000
  C   C493      1.0  0.36322  0.73196  0.34866  1.0000
  C   C494      1.0  0.21509  0.00217  0.20928  1.0000
  H   H400      1.0  0.05735  0.77163  0.24961  1.0000
  H   H401      1.0  0.29123  0.89775  0.48885  1.0000
  C   C495      1.0  0.46685  0.88483  0.45474  1.0000
  H   H402      1.0  0.35361  0.81204  0.43853  1.0000
  C   C496      1.0  0.50035  0.99459  0.34539  1.0000
  C   C497      1.0  0.38040  0.94792  0.43592  1.0000
  H   H403      1.0  0.31042  0.72595  0.33900  1.0000
  H   H404      1.0  0.08399  0.69988  0.38019  1.0000
  C   C498      1.0  0.36117  0.83048  0.45677  1.0000
  H   H405      1.0  0.36513  0.99979  0.44099  1.0000
  C   C499      1.0  0.01812  0.68596  0.50658  1.0000
  C   C500      1.0  0.38023  0.70147  0.05503  1.0000
  C   C501      1.0  0.36163  0.88836  0.47558  1.0000
  C   C502      1.0  0.35245  0.86416  0.45201  1.0000
  P   P16       1.0  0.35216  0.93203  0.46761  1.0000
  C   C503      1.0  0.30960  0.93410  0.45284  1.0000
  C   C504      1.0  0.44285  0.71775  0.31423  1.0000
  H   H406      1.0  0.31754  0.98938  0.35515  1.0000
  C   C505      1.0  0.24374  0.93526  0.42929  1.0000
  C   C506      1.0  0.26788  0.95524  0.41388  1.0000
  C   C507      1.0  0.30072  0.95435  0.42531  1.0000
  H   H407      1.0  0.33126  0.84139  0.28085  1.0000
  H   H408      1.0  0.29407  0.72800  0.39794  1.0000
  C   C508      1.0  0.29970  0.96441  0.24538  1.0000
  C   C509      1.0  0.08280  0.70865  0.43323  1.0000
  H   H409      1.0  0.02089  0.94338  0.32977  1.0000
  C   C510      1.0  0.42078  0.93779  0.39176  1.0000
  H   H410      1.0  0.37712  0.70160  0.08194  1.0000
  H   H411      1.0  0.32018  0.91433  0.24358  1.0000
  H   H412      1.0  0.26144  0.97059  0.39233  1.0000
  H   H413      1.0  0.31895  0.96907  0.41201  1.0000
  C   C511      1.0  0.23159  0.69220  0.03610  1.0000
  C   C512      1.0  0.08663  0.73315  0.31301  1.0000
  H   H414      1.0  0.43398  0.98050  0.36152  1.0000
  C   C513      1.0  0.47605  0.78668  0.08665  1.0000
  H   H415      1.0  0.47118  0.78679  0.14036  1.0000
  P   P17       1.0  0.46056  0.82899  0.08231  1.0000
  C   C514      1.0  0.41710  0.83028  0.09403  1.0000
  C   C515      1.0  0.48706  0.85446  0.10822  1.0000
  C   C516      1.0  0.47397  0.87577  0.13284  1.0000
  C   C517      1.0  0.49531  0.89514  0.15239  1.0000
  C   C518      1.0  0.06770  0.81308  0.28221  1.0000
  H   H416      1.0  0.43560  0.69733  0.33072  1.0000
  C   C519      1.0  0.08710  0.68884  0.40482  1.0000
  C   C520      1.0  0.39992  0.86103  0.09379  1.0000
  C   C521      1.0  0.36602  0.86221  0.10166  1.0000
  C   C522      1.0  0.34876  0.83260  0.10863  1.0000
  C   C523      1.0  0.36538  0.80180  0.10770  1.0000
  C   C524      1.0  0.39942  0.80059  0.10070  1.0000
  H   H417      1.0  0.39923  0.98326  0.49245  1.0000
  C   C525      1.0  0.42847  0.76297  0.27603  1.0000
  C   C526      1.0  0.05421  0.83736  0.30337  1.0000
  H   H418      1.0  0.28071  0.76072  0.23176  1.0000
  C   C527      1.0  0.46229  0.76866  0.27001  1.0000
  H   H419      1.0  0.23546  0.74399  0.05156  1.0000
  C   C528      1.0  0.27930  0.98695  0.26293  1.0000
  H   H420      1.0  0.44755  0.87690  0.13790  1.0000
  H   H421      1.0  0.48525  0.91101  0.17183  1.0000
  C   C529      1.0  0.23096  0.71835  0.05947  1.0000
  H   H422      1.0  0.25685  0.93513  0.32761  1.0000
  H   H423      1.0  0.41286  0.88413  0.08806  1.0000
  H   H424      1.0  0.35324  0.88610  0.10310  1.0000
  H   H425      1.0  0.32271  0.83351  0.11553  1.0000
  H   H426      1.0  0.35216  0.77884  0.11354  1.0000
  H   H427      1.0  0.41154  0.77634  0.10071  1.0000
  C   C530      1.0  0.35087  0.79188  0.29008  1.0000
  C   C531      1.0  0.38678  0.73929  0.37353  1.0000
  C   C532      1.0  0.34800  0.75746  0.28348  1.0000
  H   H428      1.0  0.22494  0.73163  0.11151  1.0000
  C   C533      1.0  0.30461  0.93173  0.25741  1.0000
  C   C534      1.0  0.38093  0.98229  0.42782  1.0000
  H   H429      1.0  0.42201  0.80922  0.02425  1.0000
  H   H430      1.0  0.19935  0.98837  0.12685  1.0000
  C   C535      1.0  0.09940  0.83041  0.47661  1.0000
  H   H431      1.0  0.46980  0.78786  0.25224  1.0000
  C   C536      1.0  0.33631  0.00701  0.34702  1.0000
  C   C537      1.0  0.48637  0.74927  0.28634  1.0000
  C   C538      1.0  0.24675  0.01670  0.20656  1.0000
  C   C539      1.0  0.48366  0.86768  0.02790  1.0000
  H   H432      1.0  0.30767  0.84301  0.49940  1.0000
  C   C540      1.0  0.26388  0.97627  0.29274  1.0000
  C   C541      1.0  0.03387  0.89601  0.35354  1.0000
  C   C542      1.0  0.41845  0.73780  0.29868  1.0000
  H   H433      1.0  0.03941  0.77124  0.46890  1.0000
  H   H434      1.0  0.41039  0.77775  0.26229  1.0000
  C   C543      1.0  0.48982  0.90968  0.46292  1.0000
  H   H435      1.0  0.05084  0.83016  0.45390  1.0000
  C   C544      1.0  0.26340  0.81342  0.50217  1.0000
  H   H436      1.0  0.25601  0.01244  0.12181  1.0000
  C   C545      1.0  0.06363  0.94831  0.36133  1.0000
  C   C546      1.0  0.08571  0.93213  0.38322  1.0000
  C   C547      1.0  0.08161  0.89810  0.39072  1.0000
  C   C548      1.0  0.05553  0.88026  0.37631  1.0000
  C   C549      1.0  0.23538  0.70618  0.23701  1.0000
  C   C550      1.0  0.08657  0.69453  0.46534  1.0000
  C   C551      1.0  0.47665  0.72372  0.30839  1.0000
  C   C552      1.0  0.32874  0.81489  0.27565  1.0000
  H   H437      1.0  0.33583  0.74008  0.44185  1.0000
  H   H438      1.0  0.10173  0.72174  0.29372  1.0000
  C   C553      1.0  0.46157  0.84272  0.03907  1.0000
  C   C554      1.0  0.37871  0.82063  0.48538  1.0000
  H   H439      1.0  0.09446  0.81024  0.28019  1.0000
  H   H440      1.0  0.07117  0.85329  0.31682  1.0000
  H   H441      1.0  0.43544  0.92022  0.37736  1.0000
  H   H442      1.0  0.49964  0.83995  0.21633  1.0000
  H   H443      1.0  0.42124  0.73589  0.05566  1.0000
  C   C555      1.0  0.28924  0.92131  0.28708  1.0000
  C   C556      1.0  0.06904  0.81585  0.46805  1.0000
  H   H444      1.0  0.21868  0.93466  0.41939  1.0000
  C   C557      1.0  0.01953  0.84020  0.30734  1.0000
  H   H445      1.0  0.06670  0.97476  0.35574  1.0000
  H   H446      1.0  0.10605  0.94588  0.39434  1.0000
  H   H447      1.0  0.09884  0.88522  0.40733  1.0000
  H   H448      1.0  0.05266  0.85385  0.38231  1.0000
  H   H449      1.0  0.49704  0.01306  0.29460  1.0000
  C   C558      1.0  0.03773  0.93036  0.34650  1.0000
  C   C559      1.0  0.46943  0.86823  0.42420  1.0000
  H   H450      1.0  0.48459  0.72667  0.14729  1.0000
  H   H451      1.0  0.50092  0.87926  0.04496  1.0000
  C   C560      1.0  0.03304  0.74131  0.33952  1.0000
  H   H452      1.0  0.28616  0.82142  0.24359  1.0000
  H   H453      1.0  0.50642  0.96953  0.39269  1.0000
  H   H454      1.0  0.41252  0.74374  0.36727  1.0000
  H   H455      1.0  0.20386  0.99813  0.23367  1.0000
  H   H456      1.0  0.40836  0.68835  0.25360  1.0000
  S   S75       1.0  0.40542  0.71743  0.18561  1.0000
  H   H457      1.0  0.31140  0.97187  0.22205  1.0000
  H   H458      1.0  0.45108  0.84957  0.41737  1.0000
  C   C561      1.0  0.25236  0.91469  0.45639  1.0000
  H   H459      1.0  0.29288  0.89589  0.29632  1.0000
  H   H460      1.0  0.23397  0.89822  0.46759  1.0000
  H   H461      1.0  0.48464  0.77826  0.03382  1.0000
  C   C562      1.0  0.49515  0.87617  0.40194  1.0000
  C   C563      1.0  0.23419  0.70567  0.30772  1.0000
  H   H462      1.0  0.48327  0.01327  0.35508  1.0000
  H   H463      1.0  0.07668  0.73491  0.42980  1.0000
  H   H464      1.0  0.24740  0.99271  0.30645  1.0000
  H   H465      1.0  0.33842  0.87133  0.42997  1.0000
  C   C564      1.0  0.40080  0.92586  0.41777  1.0000
  C   C565      1.0  0.42028  0.97175  0.38318  1.0000
  C   C566      1.0  0.26896  0.94357  0.30476  1.0000
  H   H466      1.0  0.29405  0.72437  0.03429  1.0000
  C   C567      1.0  0.31998  0.73141  0.39130  1.0000
  H   H467      1.0  0.44671  0.87872  0.47177  1.0000
  C   C568      1.0  0.06274  0.78234  0.47643  1.0000
  P   P18       1.0  0.07919  0.71926  0.50240  1.0000
  C   C569      1.0  0.47735  0.77204  0.11862  1.0000
  S   S76       1.0  0.23810  0.70868  0.19283  1.0000
  H   H468      1.0  0.10467  0.85607  0.46934  1.0000
  C   C570      1.0  0.40064  0.99405  0.40142  1.0000
  C   C571      1.0  0.21253  0.99635  0.14904  1.0000
  C   C572      1.0  0.48484  0.76750  0.05874  1.0000
  C   C573      1.0  0.24440  0.01000  0.14620  1.0000
  C   C574      1.0  0.03643  0.71450  0.51546  1.0000
  C   C575      1.0  0.35488  0.95548  0.50624  1.0000
  C   C576      1.0  0.12337  0.81153  0.49373  1.0000
  S   S77       1.0  0.20776  0.77420  0.50567  1.0000
  H   H469      1.0  0.49598  0.86329  0.37826  1.0000
  C   C577      1.0  0.49220  0.71859  0.09446  1.0000
  C   C578      1.0  0.04682  0.79140  0.26489  1.0000
  C   C579      1.0  0.49248  0.73344  0.06263  1.0000
  H   H470      1.0  0.14998  0.70200  0.50377  1.0000
  C   C580      1.0  0.19794  0.99231  0.18058  1.0000
  H   H471      1.0  0.49530  0.70831  0.32064  1.0000
  H   H472      1.0  0.49726  0.69202  0.09739  1.0000
  C   C581      1.0  0.22465  0.71157  0.09330  1.0000
  Fe  Fe39      1.0  0.35980  0.68907  0.17033  1.0000
  H   H473      1.0  0.04036  0.68779  0.17488  1.0000
  C   C582      1.0  0.50842  0.99490  0.31137  1.0000
  H   H474      1.0  0.38457  0.79439  0.48956  1.0000
  H   H475      1.0  0.49726  0.71842  0.04071  1.0000
  H   H476      1.0  0.14723  0.82250  0.49987  1.0000
  C   C583      1.0  0.37977  0.87841  0.50396  1.0000
  C   C584      1.0  0.38795  0.84457  0.50898  1.0000
  C   C585      1.0  0.11721  0.77799  0.50198  1.0000
  C   C586      1.0  0.28899  0.83266  0.51572  1.0000
  H   H477      1.0  0.51251  0.75377  0.28146  1.0000
  C   C587      1.0  0.51349  0.96970  0.36657  1.0000
  H   H478      1.0  0.34235  0.75997  0.02202  1.0000
  C   C588      1.0  0.36900  0.68543  0.29072  1.0000
  Fe  Fe40      1.0  0.28487  0.68562  0.17164  1.0000
  H   H479      1.0  0.13651  0.76387  0.51460  1.0000
  S   S78       1.0  0.18938  0.70924  0.77806  1.0000
  C   C589      1.0  0.03622  0.88400  0.69390  1.0000
  C   C590      1.0  0.38253  0.80030  0.62502  1.0000
  Fe  Fe41      1.0  0.42863  0.80308  0.87666  1.0000
  S   S79       1.0  0.44949  0.77041  0.83638  1.0000
  S   S80       1.0  0.40551  0.85287  0.86475  1.0000
  Fe  Fe42      1.0  0.44369  0.75300  0.93181  1.0000
  S   S81       1.0  0.46674  0.71595  0.89662  1.0000
  S   S82       1.0  0.44119  0.74639  0.98774  1.0000
  Fe  Fe43      1.0  0.49110  0.76085  0.87247  1.0000
  H   H480      1.0  0.17619  0.93353  0.73850  1.0000
  Fe  Fe44      1.0  0.42330  0.72902  0.86386  1.0000
  C   C591      1.0  0.35438  0.78866  0.60834  1.0000
  S   S83       1.0  0.47220  0.79692  0.91091  1.0000
  S   S84       1.0  0.39828  0.76265  0.90090  1.0000
  Fe  Fe45      1.0  0.36341  0.88012  0.68298  1.0000
  S   S85       1.0  0.32802  0.91457  0.70901  1.0000
  S   S86       1.0  0.41113  0.86331  0.70708  1.0000
  Fe  Fe46      1.0  0.32211  0.88005  0.61879  1.0000
  S   S87       1.0  0.28343  0.91468  0.63979  1.0000
  S   S88       1.0  0.32258  0.86450  0.56500  1.0000
  Fe  Fe47      1.0  0.32726  0.94249  0.66045  1.0000
  S   S89       1.0  0.33295  0.99819  0.65820  1.0000
  Fe  Fe48      1.0  0.28857  0.88269  0.68602  1.0000
  S   S90       1.0  0.24793  0.86200  0.71830  1.0000
  S   S91       1.0  0.36554  0.91056  0.63578  1.0000
  S   S92       1.0  0.32405  0.84600  0.66339  1.0000
  C   C592      1.0  0.40765  0.85829  0.82123  1.0000
  C   C593      1.0  0.37893  0.86632  0.80321  1.0000
  C   C594      1.0  0.37982  0.86746  0.76814  1.0000
  C   C595      1.0  0.40968  0.86200  0.75103  1.0000
  C   C596      1.0  0.43881  0.85549  0.76920  1.0000
  C   C597      1.0  0.43769  0.85313  0.80425  1.0000
  H   H481      1.0  0.35567  0.87027  0.81626  1.0000
  H   H482      1.0  0.35716  0.87170  0.75445  1.0000
  H   H483      1.0  0.46208  0.85158  0.75617  1.0000
  H   H484      1.0  0.46003  0.84727  0.81816  1.0000
  C   C598      1.0  0.35981  0.77153  0.74775  1.0000
  S   S93       1.0  0.03062  0.74182  0.64281  1.0000
  C   C599      1.0  0.26778  0.98393  0.72131  1.0000
  C   C600      1.0  0.13987  0.69751  0.52861  1.0000
  C   C601      1.0  0.04916  0.72575  0.67982  1.0000
  C   C602      1.0  0.08360  0.71958  0.68075  1.0000
  C   C603      1.0  0.02408  0.82749  0.67628  1.0000
  H   H485      1.0  0.09873  0.72555  0.65913  1.0000
  C   C604      1.0  0.24464  0.74867  0.70180  1.0000
  C   C605      1.0  0.24281  0.76182  0.73408  1.0000
  C   C606      1.0  0.24285  0.79659  0.73893  1.0000
  C   C607      1.0  0.24627  0.81847  0.71163  1.0000
  C   C608      1.0  0.24967  0.80538  0.67939  1.0000
  C   C609      1.0  0.24886  0.77052  0.67447  1.0000
  H   H486      1.0  0.24213  0.74524  0.75548  1.0000
  H   H487      1.0  0.24126  0.80647  0.76400  1.0000
  H   H488      1.0  0.25230  0.82214  0.65817  1.0000
  H   H489      1.0  0.25084  0.76058  0.64943  1.0000
  C   C610      1.0  0.42511  0.75172  0.71776  1.0000
  C   C611      1.0  0.29038  0.83883  0.55006  1.0000
  H   H490      1.0  0.27015  0.97304  0.69667  1.0000
  C   C612      1.0  0.33321  0.76581  0.62418  1.0000
  P   P19       1.0  0.23792  0.70166  0.99220  1.0000
  H   H491      1.0  0.39816  0.81910  0.61330  1.0000
  C   C613      1.0  0.49641  0.85402  0.68460  1.0000
  C   C614      1.0  0.34050  0.75397  0.65641  1.0000
  C   C615      1.0  0.43354  0.01150  0.63502  1.0000
  C   C616      1.0  0.07010  0.87584  0.69602  1.0000
  H   H492      1.0  0.26072  0.93618  0.74601  1.0000
  H   H493      1.0  0.38352  0.96427  0.69886  1.0000
  H   H494      1.0  0.35436  0.88420  0.93566  1.0000
  C   C617      1.0  0.26158  0.97703  0.78117  1.0000
  H   H495      1.0  0.42550  0.78641  0.75938  1.0000
  C   C618      1.0  0.26639  0.82461  0.57125  1.0000
  C   C619      1.0  0.02126  0.73934  0.53507  1.0000
  H   H496      1.0  0.34832  0.79816  0.58358  1.0000
  C   C620      1.0  0.09861  0.70598  0.70972  1.0000
  H   H497      1.0  0.22266  0.79323  0.57410  1.0000
  H   H498      1.0  0.26746  0.82899  0.59789  1.0000
  H   H499      1.0  0.08916  0.75558  0.78519  1.0000
  C   C621      1.0  0.38860  0.70187  0.98530  1.0000
  C   C622      1.0  0.05788  0.81940  0.67812  1.0000
  C   C623      1.0  0.29617  0.73579  0.00971  1.0000
  H   H500      1.0  0.49432  0.00846  0.73022  1.0000
  H   H501      1.0  0.27878  0.70444  0.80031  1.0000
  C   C624      1.0  0.32888  0.76871  0.97053  1.0000
  S   S94       1.0  0.23995  0.69702  0.86085  1.0000
  C   C625      1.0  0.16650  0.76848  0.96052  1.0000
  H   H502      1.0  0.20557  0.90745  0.63859  1.0000
  H   H503      1.0  0.26464  0.98764  0.63462  1.0000
  H   H504      1.0  0.41937  0.93210  0.76718  1.0000
  H   H505      1.0  0.31376  0.72053  0.72196  1.0000
  C   C626      1.0  0.09413  0.69923  0.56821  1.0000
  C   C627      1.0  0.30574  0.76222  0.94536  1.0000
  C   C628      1.0  0.27761  0.74281  0.95243  1.0000
  H   H506      1.0  0.47675  0.83807  0.69421  1.0000
  H   H507      1.0  0.50073  0.89705  0.98566  1.0000
  C   C629      1.0  0.19916  0.72025  0.97866  1.0000
  H   H508      1.0  0.40167  0.01515  0.54487  1.0000
  C   C630      1.0  0.17054  0.70026  0.97686  1.0000
  C   C631      1.0  0.13829  0.74825  0.95804  1.0000
  C   C632      1.0  0.23945  0.79900  0.52304  1.0000
  H   H509      1.0  0.41855  0.93483  0.00456  1.0000
  C   C633      1.0  0.48351  0.87801  0.99429  1.0000
  H   H510      1.0  0.48615  0.79050  0.76211  1.0000
  C   C634      1.0  0.14028  0.71418  0.96637  1.0000
  H   H511      1.0  0.31301  0.93056  0.52990  1.0000
  C   C635      1.0  0.40953  0.72129  0.00525  1.0000
  H   H512      1.0  0.41115  0.79892  0.67019  1.0000
  H   H513      1.0  0.21819  0.77085  0.97316  1.0000
  H   H514      1.0  0.31002  0.77140  0.92010  1.0000
  H   H515      1.0  0.26026  0.73739  0.93242  1.0000
  C   C636      1.0  0.50269  0.98782  0.74566  1.0000
  H   H516      1.0  0.49731  0.99418  0.90357  1.0000
  C   C637      1.0  0.47997  0.73853  0.69538  1.0000
  C   C638      1.0  0.32389  0.75581  0.00276  1.0000
  C   C639      1.0  0.25459  0.01200  0.62793  1.0000
  H   H517      1.0  0.06853  0.70481  0.57467  1.0000
  C   C640      1.0  0.43903  0.83908  0.98276  1.0000
  C   C641      1.0  0.03015  0.71943  0.70849  1.0000
  H   H518      1.0  0.41299  0.96310  0.62446  1.0000
  H   H519      1.0  0.51018  0.96811  0.82809  1.0000
  C   C642      1.0  0.33420  0.96702  0.56232  1.0000
  C   C643      1.0  0.27260  0.72943  0.98466  1.0000
  H   H520      1.0  0.36154  0.95307  0.76269  1.0000
  H   H521      1.0  0.11487  0.75898  0.94974  1.0000
  H   H522      1.0  0.14155  0.76180  0.81701  1.0000
  H   H523      1.0  0.36061  0.00443  0.59009  1.0000
  H   H524      1.0  0.37432  0.89313  0.99370  1.0000
  H   H525      1.0  0.37778  0.91672  0.88898  1.0000
  C   C644      1.0  0.33454  0.79488  0.74103  1.0000
  C   C645      1.0  0.32976  0.69842  0.81547  1.0000
  C   C646      1.0  0.36347  0.01288  0.68577  1.0000
  H   H526      1.0  0.16491  0.79493  0.95422  1.0000
  C   C647      1.0  0.40929  0.00399  0.72442  1.0000
  C   C648      1.0  0.35906  0.99092  0.56672  1.0000
  H   H527      1.0  0.45681  0.90005  0.87011  1.0000
  C   C649      1.0  0.16090  0.68532  0.55381  1.0000
  C   C650      1.0  0.04526  0.70681  0.73766  1.0000
  H   H528      1.0  0.33917  0.69791  0.79020  1.0000
  H   H529      1.0  0.36442  0.98446  0.86506  1.0000
  S   S95       1.0  0.24055  0.70521  0.69533  1.0000
  C   C651      1.0  0.08116  0.84331  0.68828  1.0000
  H   H530      1.0  0.38673  0.89645  0.52277  1.0000
  C   C652      1.0  0.33970  0.69726  0.87513  1.0000
  H   H531      1.0  0.35116  0.78292  0.96487  1.0000
  H   H532      1.0  0.44296  0.96743  0.95769  1.0000
  C   C653      1.0  0.50953  0.90122  0.87811  1.0000
  C   C654      1.0  0.24108  0.80440  0.55774  1.0000
  C   C655      1.0  0.31834  0.81122  0.76732  1.0000
  C   C656      1.0  0.30522  0.69832  0.88089  1.0000
  H   H533      1.0  0.05626  0.69944  0.85100  1.0000
  C   C657      1.0  0.10847  0.77213  0.77588  1.0000
  H   H534      1.0  0.03507  0.76118  0.54297  1.0000
  H   H535      1.0  0.46113  0.87144  0.94563  1.0000
  C   C658      1.0  0.07930  0.69925  0.73817  1.0000
  C   C659      1.0  0.36588  0.70622  0.71937  1.0000
  H   H536      1.0  0.32336  0.73658  0.66782  1.0000
  C   C660      1.0  0.33206  0.94943  0.53227  1.0000
  C   C661      1.0  0.38973  0.78879  0.65741  1.0000
  C   C662      1.0  0.35191  0.69635  0.84232  1.0000
  C   C663      1.0  0.36779  0.76389  0.78114  1.0000
  C   C664      1.0  0.35131  0.77991  0.80738  1.0000
  C   C665      1.0  0.32647  0.80350  0.80048  1.0000
  H   H537      1.0  0.42630  0.98723  0.73719  1.0000
  H   H538      1.0  0.38664  0.74527  0.78688  1.0000
  H   H539      1.0  0.35768  0.77378  0.83305  1.0000
  H   H540      1.0  0.31377  0.81599  0.82081  1.0000
  H   H541      1.0  0.02774  0.90904  0.70002  1.0000
  H   H542      1.0  0.16925  0.85826  0.64054  1.0000
  H   H543      1.0  0.29953  0.82997  0.76194  1.0000
  C   C666      1.0  0.36922  0.76490  0.67319  1.0000
  H   H544      1.0  0.47388  0.89924  0.70283  1.0000
  P   P20       1.0  0.38020  0.74898  0.71447  1.0000
  H   H545      1.0  0.29582  0.69598  0.90610  1.0000
  C   C667      1.0  0.15319  0.88937  0.71829  1.0000
  C   C668      1.0  0.15110  0.86763  0.69087  1.0000
  C   C669      1.0  0.48622  0.01133  0.66421  1.0000
  P   P21       1.0  0.12436  0.83122  0.69290  1.0000
  C   C670      1.0  0.13614  0.80285  0.65983  1.0000
  C   C671      1.0  0.12954  0.80972  0.73259  1.0000
  C   C672      1.0  0.15932  0.81277  0.75062  1.0000
  C   C673      1.0  0.16346  0.79586  0.78115  1.0000
  C   C674      1.0  0.13799  0.77564  0.79383  1.0000
  C   C675      1.0  0.45965  0.95872  0.65071  1.0000
  C   C676      1.0  0.44530  0.73555  0.69403  1.0000
  C   C677      1.0  0.16023  0.77782  0.66544  1.0000
  C   C678      1.0  0.17153  0.75806  0.63892  1.0000
  C   C679      1.0  0.15924  0.76346  0.60662  1.0000
  C   C680      1.0  0.13481  0.78783  0.60095  1.0000
  C   C681      1.0  0.12326  0.80747  0.62742  1.0000
  H   H546      1.0  0.31682  0.96169  0.58244  1.0000
  H   H547      1.0  0.49537  0.72584  0.67713  1.0000
  H   H548      1.0  0.08736  0.89490  0.70387  1.0000
  C   C682      1.0  0.44020  0.77208  0.74188  1.0000
  H   H549      1.0  0.49168  0.01456  0.79079  1.0000
  H   H550      1.0  0.13919  0.88422  0.74093  1.0000
  C   C683      1.0  0.38616  0.92198  0.91415  1.0000
  H   H551      1.0  0.17964  0.82769  0.74086  1.0000
  H   H552      1.0  0.18676  0.79771  0.79457  1.0000
  H   H553      1.0  0.08156  0.78485  0.73151  1.0000
  C   C684      1.0  0.10627  0.70447  0.53556  1.0000
  H   H554      1.0  0.21145  0.00699  0.65955  1.0000
  H   H555      1.0  0.17096  0.77390  0.69003  1.0000
  H   H556      1.0  0.19038  0.73901  0.64340  1.0000
  H   H557      1.0  0.16894  0.74910  0.58584  1.0000
  H   H558      1.0  0.12523  0.79184  0.57591  1.0000
  H   H559      1.0  0.10490  0.82680  0.62240  1.0000
  H   H560      1.0  0.06592  0.79426  0.67211  1.0000
  C   C685      1.0  0.10428  0.78889  0.74530  1.0000
  H   H561      1.0  0.25845  0.96074  0.80279  1.0000
  H   H562      1.0  0.32695  0.80012  0.71567  1.0000
  H   H563      1.0  0.12511  0.70110  0.71016  1.0000
  C   C686      1.0  0.43911  0.82872  0.01626  1.0000
  C   C687      1.0  0.26495  0.01171  0.78525  1.0000
  H   H564      1.0  0.51289  0.87515  0.87117  1.0000
  S   S96       1.0  0.39460  0.69151  0.83445  1.0000
  H   H565      1.0  0.39159  0.70210  0.95838  1.0000
  H   H566      1.0  0.20951  0.94520  0.68744  1.0000
  C   C688      1.0  0.03331  0.69159  0.83933  1.0000
  C   C689      1.0  0.19054  0.90279  0.66065  1.0000
  C   C690      1.0  0.19270  0.92408  0.68816  1.0000
  C   C691      1.0  0.49475  0.88875  0.68919  1.0000
  H   H567      1.0  0.40432  0.01502  0.93515  1.0000
  C   C692      1.0  0.16985  0.87469  0.66194  1.0000
  C   C693      1.0  0.43359  0.01188  0.88964  1.0000
  H   H568      1.0  0.31075  0.75768  0.61165  1.0000
  C   C694      1.0  0.47482  0.77493  0.74322  1.0000
  C   C695      1.0  0.46124  0.86366  0.97172  1.0000
  C   C696      1.0  0.37286  0.90324  0.94068  1.0000
  H   H569      1.0  0.40063  0.83684  0.53167  1.0000
  C   C697      1.0  0.49473  0.75807  0.72012  1.0000
  H   H570      1.0  0.35670  0.69520  0.89601  1.0000
  C   C698      1.0  0.50103  0.99137  0.78036  1.0000
  H   H571      1.0  0.45854  0.93163  0.65127  1.0000
  C   C699      1.0  0.29551  0.70153  0.82124  1.0000
  C   C700      1.0  0.17398  0.91743  0.71694  1.0000
  H   H572      1.0  0.44994  0.93687  0.81986  1.0000
  H   H573      1.0  0.33410  0.97919  0.81155  1.0000
  C   C701      1.0  0.28303  0.70016  0.85391  1.0000
  C   C702      1.0  0.19680  0.75463  0.97102  1.0000
  H   H574      1.0  0.42206  0.82753  0.96522  1.0000
  C   C703      1.0  0.43365  0.97647  0.63532  1.0000
  C   C704      1.0  0.26286  0.96314  0.74918  1.0000
  C   C705      1.0  0.38506  0.99103  0.70275  1.0000
  H   H575      1.0  0.50857  0.81045  0.81938  1.0000
  C   C706      1.0  0.35936  0.96993  0.81372  1.0000
  C   C707      1.0  0.37480  0.95529  0.78612  1.0000
  C   C708      1.0  0.40748  0.94355  0.78866  1.0000
  C   C709      1.0  0.42476  0.94619  0.81883  1.0000
  C   C710      1.0  0.40933  0.96058  0.84684  1.0000
  C   C711      1.0  0.37658  0.97272  0.84395  1.0000
  P   P22       1.0  0.43148  0.96689  0.88557  1.0000
  C   C712      1.0  0.41108  0.94580  0.92003  1.0000
  C   C713      1.0  0.47294  0.94929  0.88550  1.0000
  C   C714      1.0  0.47772  0.91545  0.87729  1.0000
  H   H576      1.0  0.03038  0.70246  0.75984  1.0000
  C   C715      1.0  0.48622  0.97605  0.66539  1.0000
  C   C716      1.0  0.38219  0.99685  0.54125  1.0000
  C   C717      1.0  0.50033  0.96834  0.89602  1.0000
  C   C718      1.0  0.42282  0.95019  0.95280  1.0000
  C   C719      1.0  0.40920  0.93166  0.97936  1.0000
  C   C720      1.0  0.38426  0.90815  0.97329  1.0000
  C   C721      1.0  0.33158  0.70002  0.72194  1.0000
  C   C722      1.0  0.11516  0.68668  0.59324  1.0000
  H   H577      1.0  0.49565  0.70290  0.97236  1.0000
  H   H578      1.0  0.11837  0.69853  0.96459  1.0000
  H   H579      1.0  0.43410  0.72084  0.67438  1.0000
  C   C723      1.0  0.51123  0.96517  0.80134  1.0000
  Fe  Fe49      1.0  0.69134  0.14288  0.30436  1.0000
  S   S97       1.0  0.66403  0.16819  0.34623  1.0000
  S   S98       1.0  0.70403  0.08777  0.30091  1.0000
  Fe  Fe50      1.0  0.69907  0.20888  0.26463  1.0000
  S   S99       1.0  0.67193  0.23858  0.30351  1.0000
  S   S100      1.0  0.71959  0.23394  0.21804  1.0000
  Fe  Fe51      1.0  0.70259  0.20861  0.33979  1.0000
  S   S101      1.0  0.72995  0.23278  0.38231  1.0000
  Fe  Fe52      1.0  0.63663  0.19546  0.30494  1.0000
  S   S102      1.0  0.58135  0.20558  0.30589  1.0000
  S   S103      1.0  0.73173  0.18099  0.30086  1.0000
  S   S104      1.0  0.66141  0.16733  0.26331  1.0000
  H   H580      1.0  0.60984  0.20858  0.23943  1.0000
  Fe  Fe53      1.0  0.97809  0.30137  0.39810  1.0000
  C   C724      1.0  0.67679  0.28117  0.11524  1.0000
  Fe  Fe54      1.0  0.91149  0.26743  0.38527  1.0000
  S   S105      1.0  0.88384  0.29987  0.42153  1.0000
  S   S106      1.0  0.88522  0.22817  0.35538  1.0000
  H   H581      1.0  0.00177  0.34761  0.33793  1.0000
  Fe  Fe55      1.0  0.92766  0.29061  0.45495  1.0000
  H   H582      1.0  0.00813  0.16448  0.42579  1.0000
  S   S107      1.0  0.93826  0.30985  0.35998  1.0000
  S   S108      1.0  0.95368  0.25538  0.41985  1.0000
  H   H583      1.0  0.85598  0.29318  0.49492  1.0000
  C   C725      1.0  0.60986  0.08135  0.22100  1.0000
  C   C726      1.0  0.59186  0.32585  0.11959  1.0000
  C   C727      1.0  0.75326  0.32875  0.07756  1.0000
  C   C728      1.0  0.55715  0.09313  0.33994  1.0000
  H   H584      1.0  0.85541  0.02904  0.49498  1.0000
  H   H585      1.0  0.68487  0.30112  0.09877  1.0000
  H   H586      1.0  0.74437  0.30987  0.09492  1.0000
  H   H587      1.0  0.54484  0.30003  0.26183  1.0000
  H   H588      1.0  0.55678  0.29641  0.20190  1.0000
  C   C729      1.0  0.53942  0.20362  0.06182  1.0000
  C   C730      1.0  0.71326  0.06312  0.33655  1.0000
  C   C731      1.0  0.70768  0.07452  0.36913  1.0000
  C   C732      1.0  0.71510  0.05351  0.39669  1.0000
  H   H589      1.0  0.74917  0.05757  0.24338  1.0000
  H   H590      1.0  0.52136  0.32625  0.16074  1.0000
  H   H591      1.0  0.69803  0.09956  0.37310  1.0000
  H   H592      1.0  0.71132  0.06263  0.42176  1.0000
  C   C733      1.0  0.64751  0.08838  0.51212  1.0000
  C   C734      1.0  0.72579  0.27768  0.22107  1.0000
  C   C735      1.0  0.72069  0.29420  0.25139  1.0000
  C   C736      1.0  0.72161  0.32932  0.25279  1.0000
  H   H593      1.0  0.74317  0.34609  0.17211  1.0000
  P   P23       1.0  0.51663  0.11268  0.34298  1.0000
  C   C737      1.0  0.73443  0.29655  0.19256  1.0000
  H   H594      1.0  0.71606  0.28005  0.27389  1.0000
  S   S109      1.0  0.95619  0.33574  0.43661  1.0000
  C   C738      1.0  0.73972  0.03440  0.23302  1.0000
  H   H595      1.0  0.73872  0.28401  0.16902  1.0000
  C   C739      1.0  0.77319  0.23392  0.37478  1.0000
  C   C740      1.0  0.78563  0.23227  0.34212  1.0000
  C   C741      1.0  0.81996  0.22982  0.33643  1.0000
  C   C742      1.0  0.84222  0.23087  0.36319  1.0000
  C   C743      1.0  0.82999  0.23410  0.39582  1.0000
  C   C744      1.0  0.79549  0.23530  0.40166  1.0000
  H   H596      1.0  0.76892  0.23372  0.32112  1.0000
  H   H597      1.0  0.82940  0.22792  0.31123  1.0000
  H   H598      1.0  0.84710  0.23495  0.41662  1.0000
  H   H599      1.0  0.78613  0.23695  0.42700  1.0000
  C   C745      1.0  0.56397  0.21489  0.26652  1.0000
  C   C746      1.0  0.52898  0.31362  0.24460  1.0000
  H   H600      1.0  0.71585  0.10109  0.49080  1.0000
  C   C747      1.0  0.53555  0.22817  0.20351  1.0000
  C   C748      1.0  0.56929  0.21999  0.20625  1.0000
  C   C749      1.0  0.58360  0.21393  0.23766  1.0000
  H   H601      1.0  0.73110  0.02205  0.30676  1.0000
  H   H602      1.0  0.58444  0.21848  0.18395  1.0000
  H   H603      1.0  0.99265  0.27498  0.29933  1.0000
  H   H604      1.0  0.61561  0.10463  0.20804  1.0000
  C   C750      1.0  0.65829  0.22840  0.15768  1.0000
  C   C751      1.0  0.64191  0.25932  0.15972  1.0000
  H   H605      1.0  0.80354  0.05070  0.38439  1.0000
  H   H606      1.0  0.95692  0.22429  0.29721  1.0000
  S   S110      1.0  0.51972  0.23813  0.16371  1.0000
  C   C752      1.0  0.80489  0.34082  0.31645  1.0000
  C   C753      1.0  0.54658  0.20025  0.38649  1.0000
  C   C754      1.0  0.84464  0.03402  0.47063  1.0000
  H   H607      1.0  0.65200  0.20835  0.17501  1.0000
  H   H608      1.0  0.62258  0.26261  0.17828  1.0000
  H   H609      1.0  0.86195  0.16850  0.19023  1.0000
  C   C755      1.0  0.59319  0.04429  0.34579  1.0000
  C   C756      1.0  0.67358  0.03561  0.49734  1.0000
  C   C757      1.0  0.88325  0.33145  0.14828  1.0000
  C   C758      1.0  0.63673  0.28432  0.03472  1.0000
  C   C759      1.0  0.63036  0.05323  0.21691  1.0000
  C   C760      1.0  0.80008  0.20320  0.23678  1.0000
  C   C761      1.0  0.81695  0.17963  0.21737  1.0000
  C   C762      1.0  0.84900  0.18652  0.20571  1.0000
  C   C763      1.0  0.86397  0.21717  0.21318  1.0000
  C   C764      1.0  0.84717  0.24093  0.23281  1.0000
  C   C765      1.0  0.81488  0.23391  0.24422  1.0000
  P   P24       1.0  0.86492  0.28209  0.23752  1.0000
  C   C766      1.0  0.84151  0.30569  0.26805  1.0000
  C   C767      1.0  0.90679  0.27880  0.25416  1.0000
  C   C768      1.0  0.92652  0.30758  0.25701  1.0000
  H   H610      1.0  0.81063  0.33244  0.23219  1.0000
  C   C769      1.0  0.53598  0.31150  0.21041  1.0000
  C   C770      1.0  0.95772  0.30598  0.27240  1.0000
  C   C771      1.0  0.91802  0.24872  0.26904  1.0000
  C   C772      1.0  0.81636  0.32824  0.25828  1.0000
  H   H611      1.0  0.64341  0.05011  0.32756  1.0000
  H   H612      1.0  0.55908  0.22093  0.06817  1.0000
  C   C773      1.0  0.82994  0.31854  0.32635  1.0000
  C   C774      1.0  0.84829  0.30121  0.30228  1.0000
  C   C775      1.0  0.86099  0.30046  0.19599  1.0000
  C   C776      1.0  0.83164  0.29491  0.17767  1.0000
  C   C777      1.0  0.82839  0.30710  0.14493  1.0000
  H   H613      1.0  0.97250  0.32851  0.27481  1.0000
  C   C778      1.0  0.54579  0.16701  0.37547  1.0000
  C   C779      1.0  0.88691  0.31861  0.18080  1.0000
  H   H614      1.0  0.77504  0.19816  0.24528  1.0000
  H   H615      1.0  0.88834  0.22281  0.20300  1.0000
  H   H616      1.0  0.80071  0.25229  0.25820  1.0000
  H   H617      1.0  0.66164  0.30453  0.20600  1.0000
  H   H618      1.0  0.71667  0.34181  0.27623  1.0000
  H   H619      1.0  0.90226  0.22682  0.27014  1.0000
  H   H620      1.0  0.99851  0.19353  0.37148  1.0000
  H   H621      1.0  0.55311  0.04835  0.27499  1.0000
  H   H622      1.0  0.54196  0.04508  0.36020  1.0000
  C   C780      1.0  0.59563  0.02173  0.25540  1.0000
  H   H623      1.0  0.86767  0.28419  0.31057  1.0000
  H   H624      1.0  0.81103  0.28129  0.18871  1.0000
  H   H625      1.0  0.80561  0.30283  0.13116  1.0000
  Fe  Fe56      1.0  0.91469  0.34145  0.39958  1.0000
  C   C781      1.0  0.72961  0.34826  0.22429  1.0000
  H   H626      1.0  0.83957  0.21277  0.48936  1.0000
  S   S111      1.0  0.72443  0.29097  0.02813  1.0000
  C   C782      1.0  0.63502  0.09149  0.47955  1.0000
  H   H627      1.0  0.56619  0.15038  0.38180  1.0000
  C   C783      1.0  0.72617  0.03084  0.33181  1.0000
  C   C784      1.0  0.54336  0.29575  0.09953  1.0000
  H   H628      1.0  0.90988  0.32331  0.19374  1.0000
  C   C785      1.0  0.57386  0.29590  0.11637  1.0000
  H   H629      1.0  0.58282  0.27266  0.12735  1.0000
  H   H630      1.0  0.65707  0.29964  0.04338  1.0000
  C   C786      1.0  0.66110  0.03884  0.46483  1.0000
  C   C787      1.0  0.85407  0.32562  0.13030  1.0000
  H   H631      1.0  0.65147  0.05491  0.20009  1.0000
  H   H632      1.0  0.52769  0.27464  0.31763  1.0000
  C   C788      1.0  0.52922  0.32858  0.32411  1.0000
  H   H633      1.0  0.56768  0.20911  0.40068  1.0000
  H   H634      1.0  0.58001  0.13606  0.31587  1.0000
  H   H635      1.0  0.63309  0.06958  0.43035  1.0000
  C   C789      1.0  0.70583  0.02713  0.23572  1.0000
  C   C790      1.0  0.64184  0.06673  0.45590  1.0000
  C   C791      1.0  0.52997  0.22257  0.26382  1.0000
  C   C792      1.0  0.58907  0.31591  0.35834  1.0000
  C   C793      1.0  0.57099  0.28938  0.34497  1.0000
  C   C794      1.0  0.54106  0.29559  0.32821  1.0000
  H   H636      1.0  0.69738  0.20030  0.13374  1.0000
  H   H637      1.0  0.83536  0.31479  0.35269  1.0000
  H   H638      1.0  0.71305  0.24689  0.09517  1.0000
  H   H639      1.0  0.59685  0.01848  0.35337  1.0000
  C   C795      1.0  0.58200  0.07955  0.24188  1.0000
  H   H640      1.0  0.61246  0.31098  0.37100  1.0000
  H   H641      1.0  0.58045  0.26394  0.34716  1.0000
  H   H642      1.0  0.53021  0.19078  0.11348  1.0000
  C   C796      1.0  0.64146  0.32164  0.21156  1.0000
  H   H643      1.0  0.91724  0.33158  0.24851  1.0000
  H   H644      1.0  0.80491  0.15627  0.21104  1.0000
  C   C797      1.0  0.73684  0.33174  0.19428  1.0000
  C   C798      1.0  0.56210  0.05960  0.34983  1.0000
  C   C799      1.0  0.57472  0.04966  0.25882  1.0000
  C   C800      1.0  0.61450  0.09518  0.32067  1.0000
  C   C801      1.0  0.69296  0.25017  0.11305  1.0000
  H   H645      1.0  0.56620  0.10140  0.24509  1.0000
  C   C802      1.0  0.61943  0.06209  0.33127  1.0000
  H   H646      1.0  0.68979  0.04457  0.24865  1.0000
  C   C803      1.0  0.96905  0.27579  0.28624  1.0000
  C   C804      1.0  0.74731  0.32539  0.04313  1.0000
  H   H647      1.0  0.63459  0.10868  0.30861  1.0000
  C   C805      1.0  0.94905  0.24724  0.28484  1.0000
  C   C806      1.0  0.65141  0.28619  0.13893  1.0000
  C   C807      1.0  0.53047  0.32543  0.08592  1.0000
  C   C808      1.0  0.81568  0.04668  0.40817  1.0000
  C   C809      1.0  0.83853  0.06706  0.46023  1.0000
  C   C810      1.0  0.82435  0.07373  0.42868  1.0000
  H   H648      1.0  0.85104  0.33598  0.10528  1.0000
  P   P25       1.0  0.81333  0.11635  0.41712  1.0000
  C   C811      1.0  0.77101  0.12392  0.43015  1.0000
  C   C812      1.0  0.84085  0.14450  0.43883  1.0000
  C   C813      1.0  0.82807  0.17084  0.45814  1.0000
  C   C814      1.0  0.84963  0.19231  0.47490  1.0000
  C   C815      1.0  0.88403  0.18807  0.47224  1.0000
  C   C816      1.0  0.89696  0.16183  0.45319  1.0000
  C   C817      1.0  0.87547  0.13989  0.43677  1.0000
  C   C818      1.0  0.75169  0.14850  0.41391  1.0000
  C   C819      1.0  0.71950  0.15556  0.42519  1.0000
  C   C820      1.0  0.70658  0.13862  0.45296  1.0000
  C   C821      1.0  0.72569  0.11418  0.46926  1.0000
  C   C822      1.0  0.75770  0.10669  0.45783  1.0000
  C   C823      1.0  0.81642  0.12326  0.37237  1.0000
  C   C824      1.0  0.79247  0.10941  0.35107  1.0000
  C   C825      1.0  0.79370  0.11544  0.31659  1.0000
  C   C826      1.0  0.81865  0.13573  0.30309  1.0000
  C   C827      1.0  0.84234  0.15002  0.32405  1.0000
  C   C828      1.0  0.84118  0.14400  0.35855  1.0000
  C   C829      1.0  0.68395  0.22388  0.13450  1.0000
  H   H649      1.0  0.84431  0.08732  0.47714  1.0000
  S   S112      1.0  0.92504  0.27359  0.50903  1.0000
  H   H650      1.0  0.80158  0.17539  0.46000  1.0000
  H   H651      1.0  0.52927  0.27266  0.09784  1.0000
  H   H652      1.0  0.90062  0.20542  0.48461  1.0000
  H   H653      1.0  0.92364  0.15890  0.45079  1.0000
  H   H654      1.0  0.88578  0.11980  0.42185  1.0000
  H   H655      1.0  0.76161  0.16270  0.39291  1.0000
  H   H656      1.0  0.70481  0.17473  0.41274  1.0000
  H   H657      1.0  0.68194  0.14477  0.46195  1.0000
  C   C830      1.0  0.52307  0.18657  0.08772  1.0000
  H   H658      1.0  0.77200  0.08763  0.47076  1.0000
  H   H659      1.0  0.77237  0.09456  0.36121  1.0000
  H   H660      1.0  0.77474  0.10506  0.30048  1.0000
  H   H661      1.0  0.81919  0.14101  0.27653  1.0000
  H   H662      1.0  0.86100  0.16684  0.31383  1.0000
  H   H663      1.0  0.85906  0.15668  0.37411  1.0000
  C   C831      1.0  0.72756  0.02092  0.39185  1.0000
  C   C832      1.0  0.58351  0.11063  0.32487  1.0000
  H   H664      1.0  0.62088  0.11358  0.47231  1.0000
  H   H665      1.0  0.66747  0.02029  0.44616  1.0000
  P   P26       1.0  0.63071  0.32644  0.14239  1.0000
  C   C833      1.0  0.53024  0.19822  0.02839  1.0000
  H   H666      1.0  0.66792  0.24112  0.02717  1.0000
  C   C834      1.0  0.64282  0.25119  0.02548  1.0000
  H   H667      1.0  0.59987  0.32291  0.04077  1.0000
  C   C835      1.0  0.62370  0.02330  0.23449  1.0000
  H   H668      1.0  0.52931  0.08034  0.40806  1.0000
  C   C836      1.0  0.60460  0.29753  0.03278  1.0000
  C   C837      1.0  0.85616  0.27535  0.51546  1.0000
  C   C838      1.0  0.79836  0.34593  0.28245  1.0000
  C   C839      1.0  0.57705  0.34873  0.35523  1.0000
  H   H669      1.0  0.52523  0.15586  0.28452  1.0000
  C   C840      1.0  0.63495  0.32932  0.24502  1.0000
  H   H670      1.0  0.64958  0.31752  0.26466  1.0000
  C   C841      1.0  0.62246  0.33631  0.18580  1.0000
  C   C842      1.0  0.51578  0.22938  0.23234  1.0000
  H   H671      1.0  0.90295  0.34630  0.13717  1.0000
  C   C843      1.0  0.00801  0.30477  0.51638  1.0000
  H   H672      1.0  0.55380  0.28856  0.01948  1.0000
  C   C844      1.0  0.57860  0.27791  0.02072  1.0000
  H   H673      1.0  0.64618  0.34892  0.07391  1.0000
  C   C845      1.0  0.51907  0.15576  0.35602  1.0000
  H   H674      1.0  0.52122  0.24799  0.38690  1.0000
  C   C846      1.0  0.52053  0.22224  0.37854  1.0000
  C   C847      1.0  0.75928  0.34984  0.02094  1.0000
  H   H675      1.0  0.51453  0.22306  0.28601  1.0000
  C   C848      1.0  0.51608  0.32843  0.18717  1.0000
  H   H676      1.0  0.87789  0.24931  0.79023  1.0000
  C   C849      1.0  0.59675  0.13512  0.95944  1.0000
  H   H677      1.0  0.55983  0.26967  0.94110  1.0000
  H   H678      1.0  0.52226  0.23652  0.61188  1.0000
  Fe  Fe57      1.0  0.77114  0.18985  0.69584  1.0000
  S   S113      1.0  0.80630  0.14731  0.70575  1.0000
  S   S114      1.0  0.73620  0.20877  0.73570  1.0000
  Fe  Fe58      1.0  0.79322  0.19741  0.62242  1.0000
  S   S115      1.0  0.82968  0.15493  0.62683  1.0000
  S   S116      1.0  0.78797  0.22757  0.57437  1.0000
  Fe  Fe59      1.0  0.78927  0.12858  0.65582  1.0000
  S   S117      1.0  0.77650  0.07447  0.64580  1.0000
  Fe  Fe60      1.0  0.84258  0.17834  0.67599  1.0000
  S   S118      1.0  0.89419  0.19041  0.69332  1.0000
  S   S119      1.0  0.75140  0.16921  0.64750  1.0000
  S   S120      1.0  0.80844  0.22248  0.66988  1.0000
  C   C850      1.0  0.53666  0.33831  0.84179  1.0000
  S   S121      1.0  0.77183  0.29227  0.94204  1.0000
  C   C851      1.0  0.83477  0.32211  0.77866  1.0000
  Fe  Fe61      1.0  0.67573  0.28070  0.90785  1.0000
  S   S122      1.0  0.70611  0.24407  0.94318  1.0000
  S   S123      1.0  0.59475  0.26612  0.87949  1.0000
  Fe  Fe62      1.0  0.72478  0.28823  0.97163  1.0000
  P   P27       1.0  0.59490  0.06557  0.82243  1.0000
  Fe  Fe63      1.0  0.75013  0.25182  0.91009  1.0000
  S   S124      1.0  0.77837  0.20864  0.88759  1.0000
  H   H679      1.0  0.52097  0.30639  0.91048  1.0000
  S   S125      1.0  0.72378  0.28680  0.87511  1.0000
  C   C852      1.0  0.82596  0.24182  0.55703  1.0000
  C   C853      1.0  0.85627  0.22913  0.56871  1.0000
  C   C854      1.0  0.88627  0.23918  0.55372  1.0000
  H   H680      1.0  0.93635  0.22757  0.61657  1.0000
  C   C855      1.0  0.53380  0.26965  0.94804  1.0000
  H   H681      1.0  0.61092  0.12294  0.90886  1.0000
  H   H682      1.0  0.85667  0.21111  0.58900  1.0000
  H   H683      1.0  0.90943  0.22845  0.56236  1.0000
  H   H684      1.0  0.66354  0.04330  0.80960  1.0000
  C   C856      1.0  0.74789  0.20382  0.77780  1.0000
  C   C857      1.0  0.78062  0.19607  0.78693  1.0000
  C   C858      1.0  0.78991  0.19628  0.82086  1.0000
  C   C859      1.0  0.76643  0.20425  0.84557  1.0000
  C   C860      1.0  0.73332  0.20980  0.83649  1.0000
  C   C861      1.0  0.72403  0.20946  0.80271  1.0000
  H   H685      1.0  0.79900  0.19097  0.76788  1.0000
  H   H686      1.0  0.81553  0.19167  0.82783  1.0000
  H   H687      1.0  0.71505  0.21454  0.85570  1.0000
  H   H688      1.0  0.69841  0.21391  0.79582  1.0000
  C   C862      1.0  0.52218  0.24813  0.97345  1.0000
  C   C863      1.0  0.75130  0.05491  0.67633  1.0000
  C   C864      1.0  0.73332  0.07359  0.69977  1.0000
  C   C865      1.0  0.71250  0.05716  0.72301  1.0000
  H   H689      1.0  0.73553  0.10063  0.69993  1.0000
  H   H690      1.0  0.69880  0.07164  0.74118  1.0000
  C   C866      1.0  0.78004  0.33633  0.69130  1.0000
  C   C867      1.0  0.54720  0.07045  0.77127  1.0000
  C   C868      1.0  0.53094  0.08980  0.89903  1.0000
  C   C869      1.0  0.56960  0.33826  0.85312  1.0000
  H   H691      1.0  0.60512  0.11051  0.66740  1.0000
  C   C870      1.0  0.54570  0.22312  0.61410  1.0000
  H   H692      1.0  0.55847  0.21555  0.92014  1.0000
  H   H693      1.0  0.62578  0.21301  0.83722  1.0000
  C   C871      1.0  0.55988  0.06363  0.71242  1.0000
  H   H694      1.0  0.86493  0.31000  0.87531  1.0000
  C   C872      1.0  0.89904  0.30479  0.68731  1.0000
  C   C873      1.0  0.91130  0.28780  0.71552  1.0000
  C   C874      1.0  0.91187  0.25252  0.71654  1.0000
  C   C875      1.0  0.89876  0.23417  0.68996  1.0000
  C   C876      1.0  0.88713  0.25111  0.66152  1.0000
  C   C877      1.0  0.88803  0.28622  0.65990  1.0000
  H   H695      1.0  0.91916  0.30160  0.73709  1.0000
  H   H696      1.0  0.92069  0.23955  0.73870  1.0000
  H   H697      1.0  0.87733  0.23712  0.64073  1.0000
  H   H698      1.0  0.87942  0.29891  0.63763  1.0000
  C   C878      1.0  0.57984  0.23963  0.84754  1.0000
  C   C879      1.0  0.54602  0.24171  0.83903  1.0000
  H   H699      1.0  0.98879  0.20580  0.64059  1.0000
  C   C880      1.0  0.55410  0.20078  0.79513  1.0000
  C   C881      1.0  0.58752  0.19786  0.80422  1.0000
  C   C882      1.0  0.60027  0.21682  0.83049  1.0000
  C   C883      1.0  0.78386  0.11386  0.54940  1.0000
  H   H700      1.0  0.60376  0.18102  0.79071  1.0000
  C   C884      1.0  0.98755  0.29222  0.59437  1.0000
  H   H701      1.0  0.62229  0.20576  0.00673  1.0000
  H   H702      1.0  0.92018  0.02786  0.54002  1.0000
  H   H703      1.0  0.69830  0.14052  0.73080  1.0000
  C   C885      1.0  0.72396  0.07901  0.55914  1.0000
  C   C886      1.0  0.69815  0.29434  0.77241  1.0000
  C   C887      1.0  0.63670  0.31306  0.89742  1.0000
  C   C888      1.0  0.63035  0.29111  0.92820  1.0000
  C   C889      1.0  0.63730  0.25374  0.92711  1.0000
  C   C890      1.0  0.65145  0.23806  0.89549  1.0000
  C   C891      1.0  0.65822  0.26001  0.86515  1.0000
  C   C892      1.0  0.65086  0.29725  0.86621  1.0000
  C   C893      1.0  0.56459  0.08683  0.84844  1.0000
  H   H704      1.0  0.52878  0.07540  0.79039  1.0000
  C   C894      1.0  0.58453  0.16993  0.91120  1.0000
  C   C895      1.0  0.53310  0.22223  0.81296  1.0000
  Fe  Fe64      1.0  0.74162  0.32656  0.90932  1.0000
  H   H705      1.0  0.58799  0.32366  0.83975  1.0000
  H   H706      1.0  0.55870  0.12904  0.81443  1.0000
  H   H707      1.0  0.80491  0.31630  0.88645  1.0000
  C   C896      1.0  0.75265  0.34929  0.67350  1.0000
  H   H708      1.0  0.61948  0.30147  0.95054  1.0000
  H   H709      1.0  0.63161  0.23798  0.94837  1.0000
  H   H710      1.0  0.65623  0.21134  0.89455  1.0000
  H   H711      1.0  0.66824  0.24933  0.84246  1.0000
  H   H712      1.0  0.65444  0.31208  0.84380  1.0000
  H   H713      1.0  0.58046  0.27279  0.77819  1.0000
  C   C897      1.0  0.58072  0.06432  0.77949  1.0000
  H   H714      1.0  0.73429  0.02268  0.60444  1.0000
  C   C898      1.0  0.58244  0.17833  0.59648  1.0000
  H   H715      1.0  0.64334  0.10854  0.52967  1.0000
  C   C899      1.0  0.52855  0.13494  0.85830  1.0000
  C   C900      1.0  0.70983  0.02204  0.72308  1.0000
  C   C901      1.0  0.88265  0.05738  0.56483  1.0000
  S   S126      1.0  0.69542  0.32470  0.94073  1.0000
  C   C902      1.0  0.56890  0.19341  0.93180  1.0000
  H   H716      1.0  0.63152  0.03837  0.87961  1.0000
  C   C903      1.0  0.55136  0.11790  0.83815  1.0000
  C   C904      1.0  0.82598  0.26520  0.53049  1.0000
  C   C905      1.0  0.85316  0.33430  0.87232  1.0000
  H   H717      1.0  0.66621  0.10366  0.67464  1.0000
  H   H718      1.0  0.58592  0.17450  0.88449  1.0000
  C   C906      1.0  0.60509  0.09028  0.61753  1.0000
  C   C907      1.0  0.81914  0.33795  0.87907  1.0000
  C   C908      1.0  0.61367  0.14201  0.73155  1.0000
  C   C909      1.0  0.64604  0.13160  0.73910  1.0000
  C   C910      1.0  0.67308  0.14839  0.72498  1.0000
  C   C911      1.0  0.66777  0.17571  0.70352  1.0000
  C   C912      1.0  0.63548  0.18761  0.69746  1.0000
  C   C913      1.0  0.60840  0.16981  0.71063  1.0000
  P   P28       1.0  0.62839  0.22584  0.67394  1.0000
  C   C914      1.0  0.61264  0.25895  0.70041  1.0000
  C   C915      1.0  0.66737  0.24083  0.65707  1.0000
  C   C916      1.0  0.67545  0.23754  0.62302  1.0000
  C   C917      1.0  0.70699  0.24687  0.61146  1.0000
  C   C918      1.0  0.73046  0.25959  0.63370  1.0000
  C   C919      1.0  0.72229  0.26381  0.66734  1.0000
  C   C920      1.0  0.69079  0.25474  0.67896  1.0000
  C   C921      1.0  0.61192  0.29210  0.68824  1.0000
  C   C922      1.0  0.59976  0.31806  0.70829  1.0000
  C   C923      1.0  0.58828  0.31112  0.74065  1.0000
  C   C924      1.0  0.58931  0.27828  0.75309  1.0000
  C   C925      1.0  0.60154  0.25232  0.73312  1.0000
  C   C926      1.0  0.59908  0.21524  0.64159  1.0000
  C   C927      1.0  0.56884  0.23270  0.63830  1.0000
  H   H719      1.0  0.58095  0.15418  0.00697  1.0000
  H   H720      1.0  0.87639  0.30809  0.80975  1.0000
  C   C928      1.0  0.60551  0.18767  0.62084  1.0000
  H   H721      1.0  0.59255  0.12929  0.74264  1.0000
  H   H722      1.0  0.65032  0.11058  0.75577  1.0000
  H   H723      1.0  0.61084  0.05102  0.70099  1.0000
  H   H724      1.0  0.68903  0.18763  0.69211  1.0000
  H   H725      1.0  0.58321  0.17814  0.70555  1.0000
  H   H726      1.0  0.65792  0.22742  0.60538  1.0000
  H   H727      1.0  0.71377  0.24351  0.58540  1.0000
  H   H728      1.0  0.75527  0.26551  0.62497  1.0000
  H   H729      1.0  0.74080  0.27287  0.68473  1.0000
  H   H730      1.0  0.68537  0.25702  0.70544  1.0000
  H   H731      1.0  0.62068  0.29782  0.66318  1.0000
  C   C929      1.0  0.89703  0.02734  0.55394  1.0000
  H   H732      1.0  0.81482  0.02610  0.60495  1.0000
  C   C930      1.0  0.77713  0.33116  0.62118  1.0000
  H   H733      1.0  0.60215  0.22724  0.74338  1.0000
  H   H734      1.0  0.56269  0.25333  0.65467  1.0000
  C   C931      1.0  0.81290  0.27806  0.74364  1.0000
  H   H735      1.0  0.62841  0.17345  0.62357  1.0000
  C   C932      1.0  0.53694  0.07036  0.73784  1.0000
  C   C933      1.0  0.85301  0.05673  0.58314  1.0000
  C   C934      1.0  0.56742  0.18820  0.96660  1.0000
  H   H736      1.0  0.60793  0.11274  0.97020  1.0000
  H   H737      1.0  0.69084  0.26922  0.77953  1.0000
  C   C935      1.0  0.67397  0.08423  0.62536  1.0000
  H   H738      1.0  0.84203  0.07987  0.59224  1.0000
  H   H739      1.0  0.89465  0.08116  0.55950  1.0000
  H   H740      1.0  0.58770  0.15729  0.58032  1.0000
  H   H741      1.0  0.82808  0.31205  0.68629  1.0000
  C   C936      1.0  0.72613  0.11328  0.56691  1.0000
  C   C937      1.0  0.75604  0.13054  0.56214  1.0000
  H   H742      1.0  0.80700  0.12740  0.54594  1.0000
  C   C938      1.0  0.78174  0.07992  0.54114  1.0000
  H   H743      1.0  0.62888  0.05018  0.75938  1.0000
  C   C939      1.0  0.58131  0.15866  0.98019  1.0000
  H   H744      1.0  0.55207  0.06398  0.68651  1.0000
  C   C940      1.0  0.55254  0.19606  0.59311  1.0000
  H   H745      1.0  0.57856  0.33112  0.75611  1.0000
  C   C941      1.0  0.85843  0.29967  0.79150  1.0000
  C   C942      1.0  0.95906  0.24185  0.61359  1.0000
  C   C943      1.0  0.73088  0.30048  0.76225  1.0000
  C   C944      1.0  0.81188  0.31152  0.75440  1.0000
  C   C945      1.0  0.63449  0.08734  0.82287  1.0000
  C   C946      1.0  0.63635  0.12182  0.82988  1.0000
  C   C947      1.0  0.66696  0.13845  0.82872  1.0000
  C   C948      1.0  0.69599  0.12091  0.82067  1.0000
  C   C949      1.0  0.69449  0.08660  0.81404  1.0000
  C   C950      1.0  0.66399  0.06985  0.81523  1.0000
  C   C951      1.0  0.60323  0.05632  0.75384  1.0000
  C   C952      1.0  0.95845  0.27294  0.59707  1.0000
  H   H746      1.0  0.61445  0.13622  0.83594  1.0000
  H   H747      1.0  0.66828  0.16510  0.83375  1.0000
  H   H748      1.0  0.71966  0.13396  0.81947  1.0000
  S   S127      1.0  0.53966  0.17759  0.76111  1.0000
  C   C953      1.0  0.88644  0.26223  0.52706  1.0000
  H   H749      1.0  0.61240  0.06871  0.56904  1.0000
  H   H750      1.0  0.52979  0.25878  0.85232  1.0000
  C   C954      1.0  0.59855  0.14086  0.92495  1.0000
  H   H751      1.0  0.99601  0.28202  0.52509  1.0000
  C   C955      1.0  0.00910  0.32699  0.83207  1.0000
  H   H752      1.0  0.53450  0.18875  0.57442  1.0000
  H   H753      1.0  0.74828  0.27972  0.76197  1.0000
  H   H754      1.0  0.00364  0.27365  0.83783  1.0000
  H   H755      1.0  0.93510  0.28185  0.58687  1.0000
  C   C956      1.0  0.98870  0.22947  0.62706  1.0000
  C   C957      1.0  0.85933  0.26654  0.78049  1.0000
  H   H756      1.0  0.93019  0.34015  0.62239  1.0000
  C   C958      1.0  0.67491  0.32041  0.77312  1.0000
  H   H757      1.0  0.57835  0.09238  0.61475  1.0000
  C   C959      1.0  0.65924  0.07503  0.59500  1.0000
  H   H758      1.0  0.64964  0.31544  0.78105  1.0000
  H   H759      1.0  0.83828  0.23042  0.74704  1.0000
  C   C960      1.0  0.55396  0.07274  0.87898  1.0000
  C   C961      1.0  0.83678  0.25583  0.75634  1.0000
  H   H760      1.0  0.79551  0.26922  0.72510  1.0000
  C   C962      1.0  0.58463  0.24479  0.01057  1.0000
  H   H761      1.0  0.70058  0.08144  0.62913  1.0000
  H   H762      1.0  0.71699  0.07298  0.80754  1.0000
  P   P29       1.0  0.68478  0.05720  0.56251  1.0000
  C   C963      1.0  0.59293  0.05641  0.72049  1.0000
  H   H763      1.0  0.56335  0.04870  0.88745  1.0000
  C   C964      1.0  0.74063  0.33290  0.75243  1.0000
  H   H764      1.0  0.70484  0.12684  0.57649  1.0000
  C   C965      1.0  0.75184  0.06263  0.54576  1.0000
  C   C966      1.0  0.65447  0.09687  0.65133  1.0000
  C   C967      1.0  0.00737  0.33382  0.53598  1.0000
  H   H765      1.0  0.75778  0.15695  0.56835  1.0000
  C   C968      1.0  0.62011  0.10036  0.64729  1.0000
  H   H766      1.0  0.52293  0.07896  0.92263  1.0000
  C   C969      1.0  0.62453  0.07728  0.59154  1.0000
  P   P30       1.0  0.55094  0.21991  0.99447  1.0000
  C   C970      1.0  0.92185  0.34777  0.59768  1.0000
  C   C971      1.0  0.61683  0.23130  0.01378  1.0000
  P   P31       1.0  0.98669  0.33400  0.57620  1.0000
  H   H767      1.0  0.82418  0.30575  0.62505  1.0000
  H   H768      1.0  0.52976  0.32315  0.82051  1.0000
  C   C972      1.0  0.80619  0.32130  0.67344  1.0000
  H   H769      1.0  0.51882  0.15912  0.85021  1.0000
  C   C973      1.0  0.60234  0.02311  0.83689  1.0000
  C   C974      1.0  0.80444  0.31830  0.63862  1.0000
  H   H770      1.0  0.98296  0.33222  0.83666  1.0000
  H   H771      1.0  0.77593  0.32856  0.59421  1.0000
  H   H772      1.0  0.75031  0.03661  0.53864  1.0000
  H   H773      1.0  0.80321  0.06707  0.53097  1.0000
  P   P32       1.0  0.78209  0.34064  0.73638  1.0000
  C   C975      1.0  0.66609  0.05990  0.52153  1.0000
  C   C976      1.0  0.83767  0.02613  0.59043  1.0000
  C   C977      1.0  0.51838  0.12097  0.88876  1.0000
  C   C978      1.0  0.74844  0.01995  0.67636  1.0000
  H   H774      1.0  0.58250  0.34935  0.95758  1.0000
  H   H775      1.0  0.00585  0.34441  0.71337  1.0000
  H   H776      1.0  0.80264  0.27507  0.52116  1.0000
  C   C979      1.0  0.94394  0.34749  0.57041  1.0000
  H   H777      1.0  0.75491  0.34753  0.99435  1.0000
  H   H778      1.0  0.59908  0.34353  0.69865  1.0000
  H   H779      1.0  0.83478  0.34760  0.78771  1.0000
  C   C980      1.0  0.75123  0.34669  0.63861  1.0000
  S   S128      1.0  0.89515  0.34893  0.68617  1.0000
  Fe  Fe65      1.0  0.77384  0.41631  0.20252  1.0000
  H   H780      1.0  0.59175  0.37917  0.10875  1.0000
  Fe  Fe66      1.0  0.81349  0.48011  0.18826  1.0000
  S   S129      1.0  0.85244  0.45194  0.15992  1.0000
  S   S130      1.0  0.81969  0.53602  0.19196  1.0000
  Fe  Fe67      1.0  0.80983  0.42392  0.13719  1.0000
  S   S131      1.0  0.80512  0.41611  0.08157  1.0000
  Fe  Fe68      1.0  0.84897  0.41472  0.20214  1.0000
  H   H781      1.0  0.69646  0.64698  0.20231  1.0000
  S   S132      1.0  0.77088  0.45553  0.16201  1.0000
  S   S133      1.0  0.81212  0.44456  0.23170  1.0000
  S   S134      1.0  0.88480  0.68151  0.29980  1.0000
  S   S135      1.0  0.89360  0.39128  0.38418  1.0000
  Fe  Fe69      1.0  0.92459  0.64232  0.30156  1.0000
  S   S136      1.0  0.95071  0.66011  0.25522  1.0000
  S   S137      1.0  0.91027  0.58847  0.30990  1.0000
  H   H782      1.0  0.91697  0.48728  0.22521  1.0000
  H   H783      1.0  0.79093  0.35450  0.33513  1.0000
  C   C981      1.0  0.75528  0.61389  0.26302  1.0000
  C   C982      1.0  0.86692  0.64809  0.39902  1.0000
  H   H784      1.0  0.00264  0.42263  0.23046  1.0000
  C   C983      1.0  0.89228  0.52366  0.09066  1.0000
  C   C984      1.0  0.89569  0.39554  0.26987  1.0000
  C   C985      1.0  0.86592  0.40001  0.28742  1.0000
  C   C986      1.0  0.86558  0.39977  0.32249  1.0000
  C   C987      1.0  0.89482  0.39343  0.34029  1.0000
  H   H785      1.0  0.80900  0.66328  0.32673  1.0000
  H   H786      1.0  0.94841  0.38683  0.27444  1.0000
  H   H787      1.0  0.84288  0.40236  0.27411  1.0000
  H   H788      1.0  0.84237  0.40313  0.33579  1.0000
  C   C988      1.0  0.84659  0.54899  0.22408  1.0000
  C   C989      1.0  0.86242  0.58012  0.22126  1.0000
  C   C990      1.0  0.88217  0.59215  0.24741  1.0000
  C   C991      1.0  0.88619  0.57314  0.27667  1.0000
  C   C992      1.0  0.87054  0.54190  0.27953  1.0000
  C   C993      1.0  0.85101  0.52971  0.25317  1.0000
  H   H789      1.0  0.85895  0.59528  0.19905  1.0000
  H   H790      1.0  0.89378  0.61643  0.24500  1.0000
  H   H791      1.0  0.87343  0.52713  0.30217  1.0000
  H   H792      1.0  0.83878  0.50581  0.25578  1.0000
  C   C994      1.0  0.70164  0.39925  0.13442  1.0000
  C   C995      1.0  0.72770  0.51771  0.06276  1.0000
  C   C996      1.0  0.57431  0.61323  0.02356  1.0000
  C   C997      1.0  0.77107  0.35643  0.08967  1.0000
  C   C998      1.0  0.85697  0.62518  0.37472  1.0000
  H   H793      1.0  0.60528  0.35841  0.27903  1.0000
  C   C999      1.0  0.77719  0.37738  0.03304  1.0000
  H   H794      1.0  0.61487  0.58840  0.27513  1.0000
  C   C1000     1.0  0.57020  0.59545  0.05378  1.0000
  C   C1001     1.0  0.55217  0.56549  0.05450  1.0000
  H   H795      1.0  0.94758  0.35412  0.51648  1.0000
  C   C1002     1.0  0.89015  0.61844  0.50654  1.0000
  C   C1003     1.0  0.00725  0.46407  0.35156  1.0000
  H   H796      1.0  0.58060  0.60467  0.07688  1.0000
  H   H797      1.0  0.54888  0.55203  0.07794  1.0000
  H   H798      1.0  0.95229  0.44285  0.20038  1.0000
  C   C1004     1.0  0.92523  0.39016  0.28777  1.0000
  H   H799      1.0  0.84737  0.67402  0.11554  1.0000
  H   H800      1.0  0.71791  0.41219  0.15145  1.0000
  C   C1005     1.0  0.76715  0.63622  0.14959  1.0000
  H   H801      1.0  0.89662  0.54943  0.09757  1.0000
  S   S138      1.0  0.95679  0.67135  0.33667  1.0000
  H   H802      1.0  0.86419  0.62889  0.34883  1.0000
  H   H803      1.0  0.88118  0.66986  0.39129  1.0000
  C   C1006     1.0  0.92473  0.38856  0.32292  1.0000
  H   H804      1.0  0.70180  0.51058  0.06451  1.0000
  C   C1007     1.0  0.71078  0.52286  0.23181  1.0000
  C   C1008     1.0  0.78993  0.61505  0.25963  1.0000
  C   C1009     1.0  0.83841  0.61536  0.44152  1.0000
  C   C1010     1.0  0.68489  0.38543  0.07814  1.0000
  C   C1011     1.0  0.78316  0.38078  0.06739  1.0000
  C   C1012     1.0  0.59192  0.36820  0.22756  1.0000
  H   H805      1.0  0.84609  0.62208  0.14973  1.0000
  C   C1013     1.0  0.90909  0.46528  0.09439  1.0000
  H   H806      1.0  0.67728  0.37306  0.17421  1.0000
  C   C1014     1.0  0.59806  0.36017  0.19404  1.0000
  C   C1015     1.0  0.84563  0.62045  0.12271  1.0000
  H   H807      1.0  0.80363  0.49301  0.09101  1.0000
  P   P33       1.0  0.73105  0.58986  0.23372  1.0000
  C   C1016     1.0  0.66100  0.36337  0.09102  1.0000
  C   C1017     1.0  0.75857  0.62889  0.18274  1.0000
  H   H808      1.0  0.84350  0.67064  0.05349  1.0000
  C   C1018     1.0  0.54811  0.35539  0.08914  1.0000
  C   C1019     1.0  0.73786  0.47735  0.26181  1.0000
  C   C1020     1.0  0.76458  0.61148  0.12521  1.0000
  H   H809      1.0  0.77958  0.36391  0.27479  1.0000
  C   C1021     1.0  0.95928  0.45393  0.22402  1.0000
  H   H810      1.0  0.87980  0.43069  0.06559  1.0000
  C   C1022     1.0  0.64637  0.64582  0.22033  1.0000
  C   C1023     1.0  0.98747  0.44241  0.24108  1.0000
  C   C1024     1.0  0.71283  0.48878  0.24033  1.0000
  C   C1025     1.0  0.93928  0.47887  0.23808  1.0000
  H   H811      1.0  0.72463  0.41945  0.08995  1.0000
  H   H812      1.0  0.93320  0.50543  0.12057  1.0000
  H   H813      1.0  0.99639  0.39714  0.40428  1.0000
  C   C1026     1.0  0.70516  0.40344  0.09987  1.0000
  H   H814      1.0  0.92510  0.44591  0.10475  1.0000
  H   H815      1.0  0.59818  0.63935  0.24303  1.0000
  H   H816      1.0  0.58361  0.37248  0.17471  1.0000
  C   C1027     1.0  0.91351  0.49878  0.10341  1.0000
  C   C1028     1.0  0.75384  0.57936  0.13418  1.0000
  C   C1029     1.0  0.76120  0.49982  0.27435  1.0000
  H   H817      1.0  0.84265  0.47421  0.04268  1.0000
  H   H818      1.0  0.77593  0.66109  0.14298  1.0000
  C   C1030     1.0  0.84410  0.64789  0.06857  1.0000
  H   H819      1.0  0.73966  0.45090  0.26816  1.0000
  H   H820      1.0  0.77845  0.55034  0.27506  1.0000
  H   H821      1.0  0.75298  0.55988  0.11566  1.0000
  H   H822      1.0  0.67235  0.56680  0.27139  1.0000
  S   S139      1.0  0.81055  0.38346  0.17638  1.0000
  C   C1031     1.0  0.67831  0.37679  0.14735  1.0000
  C   C1032     1.0  0.86236  0.48148  0.05961  1.0000
  C   C1033     1.0  0.53816  0.55307  0.02512  1.0000
  H   H823      1.0  0.77746  0.57661  0.02658  1.0000
  P   P34       1.0  0.59666  0.65249  0.02232  1.0000
  H   H824      1.0  0.83043  0.61161  0.46717  1.0000
  H   H825      1.0  0.93062  0.64767  0.42690  1.0000
  H   H826      1.0  0.77171  0.61700  0.09957  1.0000
  H   H827      1.0  0.74753  0.66225  0.33276  1.0000
  C   C1034     1.0  0.99503  0.55912  0.30120  1.0000
  C   C1035     1.0  0.62323  0.62945  0.24078  1.0000
  C   C1036     1.0  0.65793  0.35847  0.12577  1.0000
  H   H828      1.0  0.69539  0.47097  0.23000  1.0000
  H   H829      1.0  0.96443  0.44164  0.37633  1.0000
  H   H830      1.0  0.57277  0.38628  0.23376  1.0000
  C   C1037     1.0  0.75949  0.53379  0.26561  1.0000
  C   C1038     1.0  0.63265  0.60076  0.25883  1.0000
  H   H831      1.0  0.52400  0.52998  0.02576  1.0000
  C   C1039     1.0  0.66520  0.58840  0.25641  1.0000
  C   C1040     1.0  0.79504  0.53542  0.05760  1.0000
  C   C1041     1.0  0.75194  0.49877  0.07949  1.0000
  C   C1042     1.0  0.88363  0.45669  0.07235  1.0000
  H   H832      1.0  0.53783  0.37851  0.07905  1.0000
  H   H833      1.0  0.53853  0.38069  0.33628  1.0000
  H   H834      1.0  0.71331  0.63073  0.29274  1.0000
  C   C1043     1.0  0.78546  0.50780  0.07734  1.0000
  S   S140      1.0  0.89621  0.39531  0.22571  1.0000
  C   C1044     1.0  0.77050  0.55485  0.04149  1.0000
  H   H835      1.0  0.74498  0.47696  0.09418  1.0000
  H   H836      1.0  0.73678  0.54703  0.17352  1.0000
  H   H837      1.0  0.76067  0.64822  0.20134  1.0000
  H   H838      1.0  0.69134  0.53135  0.21502  1.0000
  C   C1045     1.0  0.67881  0.63337  0.21765  1.0000
  C   C1046     1.0  0.68843  0.60438  0.23543  1.0000
  H   H839      1.0  0.63951  0.66864  0.20703  1.0000
  H   H840      1.0  0.80195  0.60238  0.23905  1.0000
  C   C1047     1.0  0.59889  0.67025  0.06374  1.0000
  H   H841      1.0  0.64392  0.66393  0.13598  1.0000
  C   C1048     1.0  0.88080  0.65239  0.50447  1.0000
  C   C1049     1.0  0.80920  0.63230  0.28283  1.0000
  C   C1050     1.0  0.86596  0.51506  0.06930  1.0000
  P   P35       1.0  0.83817  0.54661  0.05233  1.0000
  C   C1051     1.0  0.84213  0.61664  0.05302  1.0000
  H   H842      1.0  0.78121  0.49073  0.29021  1.0000
  C   C1052     1.0  0.88793  0.48491  0.36211  1.0000
  C   C1053     1.0  0.88311  0.51339  0.38171  1.0000
  C   C1054     1.0  0.90873  0.53673  0.38510  1.0000
  C   C1055     1.0  0.93932  0.53145  0.36916  1.0000
  C   C1056     1.0  0.94420  0.50307  0.34910  1.0000
  C   C1057     1.0  0.91821  0.47995  0.34563  1.0000
  P   P36       1.0  0.98365  0.49552  0.32861  1.0000
  C   C1058     1.0  0.97519  0.48021  0.28699  1.0000
  H   H843      1.0  0.71828  0.56089  0.03121  1.0000
  H   H844      1.0  0.88884  0.36871  0.50879  1.0000
  H   H845      1.0  0.59104  0.36926  0.36582  1.0000
  S   S141      1.0  0.72909  0.39245  0.22665  1.0000
  C   C1059     1.0  0.84251  0.58695  0.07219  1.0000
  H   H846      1.0  0.83056  0.57960  0.36463  1.0000
  H   H847      1.0  0.81311  0.57122  0.42391  1.0000
  H   H848      1.0  0.84174  0.56672  0.12281  1.0000
  H   H849      1.0  0.68896  0.38736  0.05136  1.0000
  H   H850      1.0  0.94753  0.38402  0.33658  1.0000
  H   H851      1.0  0.00139  0.60921  0.28175  1.0000
  C   C1060     1.0  0.99540  0.45543  0.27246  1.0000
  H   H852      1.0  0.51761  0.40233  0.28153  1.0000
  C   C1061     1.0  0.74675  0.59704  0.19182  1.0000
  C   C1062     1.0  0.79398  0.64931  0.30920  1.0000
  C   C1063     1.0  0.54721  0.35510  0.33826  1.0000
  C   C1064     1.0  0.74003  0.63092  0.28966  1.0000
  H   H853      1.0  0.86830  0.46652  0.35957  1.0000
  H   H854      1.0  0.85948  0.51737  0.39409  1.0000
  H   H855      1.0  0.90478  0.55923  0.39960  1.0000
  H   H856      1.0  0.95868  0.54999  0.37184  1.0000
  H   H857      1.0  0.92139  0.45799  0.33019  1.0000
  H   H858      1.0  0.97449  0.55408  0.28454  1.0000
  H   H859      1.0  0.83595  0.63272  0.27999  1.0000
  C   C1065     1.0  0.01016  0.59063  0.29963  1.0000
  C   C1066     1.0  0.74469  0.57216  0.16725  1.0000
  C   C1067     1.0  0.84333  0.58914  0.10728  1.0000
  C   C1068     1.0  0.73403  0.54573  0.24452  1.0000
  C   C1069     1.0  0.83791  0.59733  0.38370  1.0000
  C   C1070     1.0  0.82835  0.59257  0.41706  1.0000
  H   H860      1.0  0.97068  0.66089  0.50955  1.0000
  H   H861      1.0  0.83962  0.61592  0.02607  1.0000
  C   C1071     1.0  0.85863  0.64276  0.43282  1.0000
  H   H862      1.0  0.93136  0.51112  0.27996  1.0000
  C   C1072     1.0  0.57866  0.35565  0.10595  1.0000
  C   C1073     1.0  0.62485  0.67238  0.11865  1.0000
  C   C1074     1.0  0.94733  0.49210  0.26930  1.0000
  C   C1075     1.0  0.84609  0.64981  0.10340  1.0000
  H   H863      1.0  0.89189  0.60330  0.48423  1.0000
  C   C1076     1.0  0.00543  0.53511  0.32494  1.0000
  C   C1077     1.0  0.00923  0.41550  0.38886  1.0000
  H   H864      1.0  0.77419  0.67741  0.05764  1.0000
  H   H865      1.0  0.77531  0.35898  0.11621  1.0000
  H   H866      1.0  0.63474  0.41356  0.02526  1.0000
  C   C1078     1.0  0.73696  0.54596  0.04401  1.0000
  H   H867      1.0  0.64046  0.63916  0.07963  1.0000
  P   P37       1.0  0.87213  0.67191  0.46443  1.0000
  C   C1079     1.0  0.75937  0.64872  0.31255  1.0000
  C   C1080     1.0  0.62296  0.65864  0.08661  1.0000
  C   C1081     1.0  0.93554  0.67286  0.43542  1.0000
  C   C1082     1.0  0.99111  0.44090  0.37273  1.0000
  H   H868      1.0  0.98496  0.67340  0.41429  1.0000
  C   C1083     1.0  0.61012  0.35249  0.25305  1.0000
  Fe  Fe70      1.0  0.98340  0.40012  0.75683  1.0000
  S   S142      1.0  0.94855  0.42196  0.71884  1.0000
  Fe  Fe71      1.0  0.92722  0.38239  0.80407  1.0000
  S   S143      1.0  0.88761  0.40208  0.76970  1.0000
  Fe  Fe72      1.0  0.91746  0.37654  0.72967  1.0000
  Fe  Fe73      1.0  0.92240  0.44548  0.76260  1.0000
  S   S144      1.0  0.90784  0.50042  0.76047  1.0000
  S   S145      1.0  0.96018  0.42747  0.80001  1.0000
  H   H869      1.0  0.72596  0.61084  0.66235  1.0000
  S   S146      1.0  0.80648  0.64908  0.83727  1.0000
  C   C1084     1.0  0.88891  0.65726  0.56456  1.0000
  C   C1085     1.0  0.89712  0.62322  0.56660  1.0000
  S   S147      1.0  0.76102  0.63488  0.90406  1.0000
  H   H870      1.0  0.58761  0.37545  0.01319  1.0000
  Fe  Fe74      1.0  0.80309  0.60926  0.87702  1.0000
  S   S148      1.0  0.80338  0.55353  0.86702  1.0000
  S   S149      1.0  0.95429  0.35320  0.76482  1.0000
  S   S150      1.0  0.84277  0.63082  0.90980  1.0000
  C   C1086     1.0  0.83435  0.53133  0.95108  1.0000
  S   S151      1.0  0.88780  0.67783  0.69272  1.0000
  C   C1087     1.0  0.62847  0.40818  0.84876  1.0000
  H   H871      1.0  0.87045  0.41420  0.84780  1.0000
  H   H872      1.0  0.00579  0.65226  0.73953  1.0000
  H   H873      1.0  0.97670  0.51899  0.74440  1.0000
  H   H874      1.0  0.87618  0.63103  0.74722  1.0000
  H   H875      1.0  0.87610  0.63830  0.80891  1.0000
  C   C1088     1.0  0.88076  0.51491  0.79209  1.0000
  C   C1089     1.0  0.86450  0.49255  0.81370  1.0000
  C   C1090     1.0  0.84099  0.50455  0.83690  1.0000
  C   C1091     1.0  0.83422  0.53904  0.83913  1.0000
  C   C1092     1.0  0.85148  0.56144  0.81847  1.0000
  C   C1093     1.0  0.87455  0.54943  0.79493  1.0000
  H   H876      1.0  0.86930  0.46591  0.81190  1.0000
  H   H877      1.0  0.82790  0.48704  0.85298  1.0000
  H   H878      1.0  0.84642  0.58799  0.82003  1.0000
  H   H879      1.0  0.88702  0.56701  0.77850  1.0000
  H   H880      1.0  0.84711  0.59148  0.69884  1.0000
  C   C1094     1.0  0.65536  0.41011  0.97566  1.0000
  Fe  Fe75      1.0  0.76871  0.67730  0.86738  1.0000
  C   C1095     1.0  0.68437  0.35279  0.76367  1.0000
  H   H881      1.0  0.52583  0.66446  0.01028  1.0000
  C   C1096     1.0  0.99424  0.38241  0.62671  1.0000
  H   H882      1.0  0.72257  0.59501  0.60273  1.0000
  C   C1097     1.0  0.74846  0.65910  0.65233  1.0000
  C   C1098     1.0  0.64438  0.38140  0.86546  1.0000
  C   C1099     1.0  0.80384  0.36940  0.87625  1.0000
  H   H883      1.0  0.87174  0.35673  0.61447  1.0000
  C   C1100     1.0  0.01011  0.36162  0.60327  1.0000
  H   H884      1.0  0.98767  0.53355  0.80430  1.0000
  H   H885      1.0  0.62770  0.59915  0.98111  1.0000
  P   P38       1.0  0.99712  0.60608  0.79620  1.0000
  C   C1101     1.0  0.87172  0.36171  0.86093  1.0000
  H   H886      1.0  0.56314  0.61378  0.97051  1.0000
  H   H887      1.0  0.72192  0.39075  0.83192  1.0000
  H   H888      1.0  0.97786  0.65796  0.68499  1.0000
  H   H889      1.0  0.77713  0.57955  0.77929  1.0000
  C   C1102     1.0  0.93719  0.58928  0.71491  1.0000
  C   C1103     1.0  0.77657  0.63652  0.71489  1.0000
  C   C1104     1.0  0.76620  0.61946  0.74402  1.0000
  C   C1105     1.0  0.98714  0.63421  0.73274  1.0000
  C   C1106     1.0  0.97723  0.49967  0.69445  1.0000
  C   C1107     1.0  0.60271  0.36661  0.96224  1.0000
  C   C1108     1.0  0.73488  0.62808  0.64326  1.0000
  C   C1109     1.0  0.88135  0.67191  0.53358  1.0000
  S   S152      1.0  0.91421  0.35640  0.85204  1.0000
  H   H890      1.0  0.95266  0.66439  0.79405  1.0000
  C   C1110     1.0  0.67826  0.37546  0.85929  1.0000
  H   H891      1.0  0.90834  0.52748  0.87561  1.0000
  C   C1111     1.0  0.88147  0.65531  0.75773  1.0000
  C   C1112     1.0  0.95278  0.58623  0.74602  1.0000
  H   H892      1.0  0.81075  0.42132  0.86267  1.0000
  H   H893      1.0  0.81484  0.63935  0.67666  1.0000
  H   H894      1.0  0.67633  0.42627  0.98098  1.0000
  Fe  Fe76      1.0  0.80110  0.65966  0.93412  1.0000
  H   H895      1.0  0.95032  0.49802  0.69308  1.0000
  C   C1113     1.0  0.65200  0.39634  0.94376  1.0000
  C   C1114     1.0  0.64610  0.42833  0.82607  1.0000
  C   C1115     1.0  0.67975  0.42200  0.81993  1.0000
  C   C1116     1.0  0.69571  0.39549  0.83640  1.0000
  H   H896      1.0  0.63379  0.44914  0.81356  1.0000
  H   H897      1.0  0.69367  0.43782  0.80277  1.0000
  C   C1117     1.0  0.79523  0.43043  0.78373  1.0000
  C   C1118     1.0  0.81155  0.44979  0.75949  1.0000
  C   C1119     1.0  0.81993  0.43574  0.72867  1.0000
  C   C1120     1.0  0.81142  0.40251  0.72175  1.0000
  C   C1121     1.0  0.79389  0.38329  0.74550  1.0000
  C   C1122     1.0  0.78666  0.39718  0.77693  1.0000
  H   H898      1.0  0.67065  0.40216  0.92499  1.0000
  C   C1123     1.0  0.78483  0.59241  0.75653  1.0000
  H   H899      1.0  0.93344  0.61817  0.66924  1.0000
  H   H900      1.0  0.72967  0.63032  0.97783  1.0000
  S   S153      1.0  0.76185  0.37454  0.88773  1.0000
  C   C1124     1.0  0.57484  0.68078  0.99435  1.0000
  H   H901      1.0  0.68819  0.67201  0.89781  1.0000
  C   C1125     1.0  0.70421  0.63438  0.98601  1.0000
  H   H902      1.0  0.86601  0.55123  0.91254  1.0000
  C   C1126     1.0  0.75895  0.67148  0.59354  1.0000
  H   H903      1.0  0.82750  0.56055  0.74910  1.0000
  H   H904      1.0  0.90320  0.61202  0.59065  1.0000
  C   C1127     1.0  0.94639  0.61496  0.69280  1.0000
  C   C1128     1.0  0.97098  0.54616  0.82142  1.0000
  C   C1129     1.0  0.92506  0.57755  0.86354  1.0000
  C   C1130     1.0  0.94707  0.59693  0.84442  1.0000
  C   C1131     1.0  0.94901  0.52689  0.84065  1.0000
  C   C1132     1.0  0.82235  0.39689  0.86470  1.0000
  H   H905      1.0  0.94452  0.56664  0.76283  1.0000
  H   H906      1.0  0.78991  0.44099  0.80809  1.0000
  H   H907      1.0  0.81863  0.47537  0.76494  1.0000
  H   H908      1.0  0.83400  0.45029  0.71056  1.0000
  H   H909      1.0  0.81916  0.39174  0.69816  1.0000
  H   H910      1.0  0.77494  0.38215  0.79635  1.0000
  C   C1133     1.0  0.97791  0.60871  0.75529  1.0000
  H   H911      1.0  0.66639  0.37306  0.76437  1.0000
  H   H912      1.0  0.94507  0.62397  0.84569  1.0000
  C   C1134     1.0  0.97139  0.63742  0.70171  1.0000
  P   P39       1.0  0.62161  0.35618  0.89560  1.0000
  C   C1135     1.0  0.71707  0.35906  0.75339  1.0000
  C   C1136     1.0  0.81352  0.58190  0.73980  1.0000
  C   C1137     1.0  0.64651  0.61709  0.98804  1.0000
  H   H913      1.0  0.91742  0.57213  0.70840  1.0000
  C   C1138     1.0  0.97042  0.58137  0.82331  1.0000
  H   H914      1.0  0.88870  0.67245  0.58697  1.0000
  C   C1139     1.0  0.92609  0.54255  0.86171  1.0000
  H   H915      1.0  0.90649  0.58976  0.87896  1.0000
  S   S154      1.0  0.79573  0.66253  0.99060  1.0000
  C   C1140     1.0  0.62557  0.37451  0.93673  1.0000
  C   C1141     1.0  0.97518  0.67165  0.80690  1.0000
  C   C1142     1.0  0.74500  0.64074  0.58470  1.0000
  H   H916      1.0  0.60255  0.41386  0.85350  1.0000
  C   C1143     1.0  0.69622  0.66268  0.00479  1.0000
  C   C1144     1.0  0.82744  0.53007  0.98535  1.0000
  C   C1145     1.0  0.99212  0.51171  0.72346  1.0000
  C   C1146     1.0  0.63210  0.40270  0.00064  1.0000
  C   C1147     1.0  0.82427  0.59901  0.71117  1.0000
  H   H917      1.0  0.90300  0.58084  0.95240  1.0000
  H   H918      1.0  0.81862  0.51817  0.93350  1.0000
  C   C1148     1.0  0.88126  0.65943  0.79266  1.0000
  H   H919      1.0  0.74378  0.62653  0.75712  1.0000
  H   H920      1.0  0.96756  0.38282  0.62940  1.0000
  C   C1149     1.0  0.85615  0.39292  0.85648  1.0000
  H   H921      1.0  0.98534  0.47935  0.64540  1.0000
  C   C1150     1.0  0.99699  0.48908  0.66772  1.0000
  C   C1151     1.0  0.73303  0.61902  0.60955  1.0000
  H   H922      1.0  0.72386  0.38426  0.74581  1.0000
  H   H923      1.0  0.56100  0.39334  0.91733  1.0000
  C   C1152     1.0  0.00094  0.64832  0.81193  1.0000
  C   C1153     1.0  0.67930  0.61168  0.97743  1.0000
  H   H924      1.0  0.94881  0.49980  0.83822  1.0000
  C   C1154     1.0  0.60569  0.38109  0.99388  1.0000
  C   C1155     1.0  0.76082  0.68063  0.62721  1.0000
  H   H925      1.0  0.68552  0.58999  0.96242  1.0000
  H   H926      1.0  0.00080  0.41704  0.66726  1.0000
  C   C1156     1.0  0.80594  0.62622  0.69877  1.0000
  C   C1157     1.0  0.55451  0.37703  0.89691  1.0000
  H   H927      1.0  0.90499  0.57762  0.53907  1.0000
  C   C1158     1.0  0.86139  0.54980  0.93923  1.0000
  H   H928      1.0  0.74370  0.63366  0.55860  1.0000
  C   C1159     1.0  0.88199  0.56659  0.96169  1.0000
  C   C1160     1.0  0.89799  0.60388  0.53756  1.0000
  C   C1161     1.0  0.56028  0.60047  0.99412  1.0000
  H   H929      1.0  0.80662  0.51513  0.99391  1.0000
  P   P40       1.0  0.75171  0.66958  0.69614  1.0000
  Fe  Fe77      1.0  0.84330  0.67247  0.87186  1.0000
  C   C1162     1.0  0.87656  0.36435  0.56117  1.0000
  H   H930      1.0  0.73244  0.36157  0.68643  1.0000
  H   H931      1.0  0.53130  0.56101  0.97215  1.0000
  C   C1163     1.0  0.88846  0.35661  0.59314  1.0000
  H   H932      1.0  0.85050  0.37024  0.55755  1.0000
  H   H933      1.0  0.72997  0.35651  0.62507  1.0000
  C   C1164     1.0  0.93174  0.35546  0.53833  1.0000
  C   C1165     1.0  0.89818  0.36369  0.53377  1.0000
  H   H934      1.0  0.69153  0.35578  0.87247  1.0000
  H   H935      1.0  0.68300  0.66624  0.66984  1.0000
  C   C1166     1.0  0.52160  0.37723  0.88540  1.0000
  C   C1167     1.0  0.53987  0.68112  0.99407  1.0000
  C   C1168     1.0  0.87516  0.56538  0.99605  1.0000
  C   C1169     1.0  0.54226  0.57053  0.99493  1.0000
  C   C1170     1.0  0.57858  0.35637  0.88172  1.0000
  H   H936      1.0  0.78654  0.39606  0.01564  1.0000
  C   C1171     1.0  0.71122  0.67429  0.71532  1.0000
  C   C1172     1.0  0.63848  0.64538  0.00730  1.0000
  C   C1173     1.0  0.68199  0.67192  0.69624  1.0000
  H   H937      1.0  0.62849  0.67616  0.69617  1.0000
  C   C1174     1.0  0.65093  0.67777  0.71102  1.0000
  C   C1175     1.0  0.84730  0.54783  0.00805  1.0000
  C   C1176     1.0  0.01304  0.40247  0.64807  1.0000
  C   C1177     1.0  0.88872  0.68254  0.73657  1.0000
  C   C1178     1.0  0.66359  0.66831  0.01527  1.0000
  H   H938      1.0  0.89134  0.57841  0.01321  1.0000
  C   C1179     1.0  0.70885  0.68328  0.74917  1.0000
  H   H939      1.0  0.71527  0.68062  0.01086  1.0000
  C   C1180     1.0  0.98497  0.68264  0.51678  1.0000
  Fe  Fe78      1.0  0.64309  0.78526  0.14741  1.0000
  S   S155      1.0  0.66944  0.82797  0.12207  1.0000
  S   S156      1.0  0.58698  0.78420  0.15041  1.0000
  Fe  Fe79      1.0  0.70770  0.75289  0.17028  1.0000
  S   S157      1.0  0.73910  0.79335  0.14805  1.0000
  C   C1181     1.0  0.93206  0.93573  0.26770  1.0000
  Fe  Fe80      1.0  0.70067  0.82845  0.16845  1.0000
  S   S158      1.0  0.71543  0.87568  0.19485  1.0000
  Fe  Fe81      1.0  0.70529  0.78854  0.10395  1.0000
  S   S159      1.0  0.72585  0.79108  0.05145  1.0000
  S   S160      1.0  0.67222  0.78810  0.19493  1.0000
  S   S161      1.0  0.67590  0.74536  0.12485  1.0000
  Fe  Fe82      1.0  0.75491  0.94168  0.41654  1.0000
  S   S162      1.0  0.72370  0.89781  0.43257  1.0000
  C   C1182     1.0  0.97401  0.71920  0.44035  1.0000
  Fe  Fe83      1.0  0.80906  0.89576  0.38889  1.0000
  S   S163      1.0  0.78186  0.84844  0.40234  1.0000
  S   S164      1.0  0.85686  0.89205  0.35983  1.0000
  Fe  Fe84      1.0  0.73717  0.87582  0.38279  1.0000
  S   S165      1.0  0.69871  0.85080  0.35074  1.0000
  Fe  Fe85      1.0  0.77152  0.87457  0.45072  1.0000
  H   H940      1.0  0.80837  0.76908  0.42134  1.0000
  S   S166      1.0  0.76502  0.92125  0.36547  1.0000
  S   S167      1.0  0.80200  0.92030  0.43889  1.0000
  S   S168      1.0  0.94436  0.73634  0.28530  1.0000
  S   S169      1.0  0.90122  0.74040  0.37464  1.0000
  H   H941      1.0  0.89365  0.92378  0.30362  1.0000
  C   C1183     1.0  0.91964  0.92076  0.29684  1.0000
  C   C1184     1.0  0.87061  0.85034  0.36347  1.0000
  C   C1185     1.0  0.88543  0.83394  0.33633  1.0000
  C   C1186     1.0  0.89455  0.79992  0.33918  1.0000
  C   C1187     1.0  0.88925  0.78255  0.36932  1.0000
  C   C1188     1.0  0.87517  0.79931  0.39654  1.0000
  C   C1189     1.0  0.86581  0.83305  0.39357  1.0000
  H   H942      1.0  0.88908  0.84723  0.31292  1.0000
  H   H943      1.0  0.90557  0.78725  0.31813  1.0000
  H   H944      1.0  0.87191  0.78634  0.42015  1.0000
  H   H945      1.0  0.85526  0.84594  0.41477  1.0000
  C   C1190     1.0  0.83387  0.81981  0.49020  1.0000
  C   C1191     1.0  0.82191  0.01368  0.41863  1.0000
  C   C1192     1.0  0.62364  0.76552  0.04358  1.0000
  H   H946      1.0  0.83073  0.82726  0.46436  1.0000
  C   C1193     1.0  0.59722  0.78696  0.05132  1.0000
  C   C1194     1.0  0.74877  0.75646  0.03649  1.0000
  H   H947      1.0  0.53240  0.83368  0.08750  1.0000
  C   C1195     1.0  0.75438  0.72786  0.05626  1.0000
  H   H948      1.0  0.63633  0.91403  0.47026  1.0000
  H   H949      1.0  0.74590  0.72723  0.08198  1.0000
  C   C1196     1.0  0.77385  0.71544  0.20322  1.0000
  C   C1197     1.0  0.79218  0.72642  0.17540  1.0000
  C   C1198     1.0  0.82714  0.72686  0.17666  1.0000
  C   C1199     1.0  0.84386  0.71646  0.20574  1.0000
  C   C1200     1.0  0.53802  0.81416  0.18848  1.0000
  H   H950      1.0  0.60437  0.70883  0.15275  1.0000
  H   H951      1.0  0.77955  0.73353  0.15258  1.0000
  H   H952      1.0  0.84122  0.73494  0.15498  1.0000
  H   H953      1.0  0.77178  0.77328  0.47115  1.0000
  S   S170      1.0  0.88777  0.71643  0.20657  1.0000
  C   C1201     1.0  0.71037  0.86986  0.23821  1.0000
  C   C1202     1.0  0.68225  0.85354  0.25084  1.0000
  C   C1203     1.0  0.67919  0.84725  0.28529  1.0000
  C   C1204     1.0  0.70409  0.85753  0.30738  1.0000
  C   C1205     1.0  0.73219  0.87401  0.29469  1.0000
  C   C1206     1.0  0.73505  0.88065  0.26023  1.0000
  H   H954      1.0  0.66251  0.84623  0.23418  1.0000
  H   H955      1.0  0.65731  0.83472  0.29479  1.0000
  H   H956      1.0  0.75204  0.88103  0.31121  1.0000
  H   H957      1.0  0.75682  0.89321  0.25050  1.0000
  C   C1207     1.0  0.57191  0.81319  0.17994  1.0000
  C   C1208     1.0  0.59360  0.83630  0.19418  1.0000
  C   C1209     1.0  0.58162  0.86059  0.21632  1.0000
  C   C1210     1.0  0.54770  0.86234  0.22417  1.0000
  C   C1211     1.0  0.01239  0.79415  0.26851  1.0000
  Fe  Fe86      1.0  0.91252  0.70136  0.25524  1.0000
  H   H958      1.0  0.61964  0.83591  0.18769  1.0000
  H   H959      1.0  0.59875  0.87836  0.22690  1.0000
  C   C1212     1.0  0.69309  0.99720  0.22282  1.0000
  C   C1213     1.0  0.63815  0.96187  0.39947  1.0000
  C   C1214     1.0  0.73312  0.00983  0.35924  1.0000
  C   C1215     1.0  0.57858  0.70916  0.10560  1.0000
  H   H960      1.0  0.74294  0.98513  0.35496  1.0000
  H   H961      1.0  0.67161  0.95607  0.44116  1.0000
  C   C1216     1.0  0.82535  0.70588  0.23348  1.0000
  H   H962      1.0  0.60924  0.91514  0.11288  1.0000
  H   H963      1.0  0.83763  0.69809  0.25597  1.0000
  H   H964      1.0  0.54618  0.90695  0.16417  1.0000
  C   C1217     1.0  0.55337  0.83650  0.31138  1.0000
  H   H965      1.0  0.55986  0.92761  0.30914  1.0000
  H   H966      1.0  0.56963  0.86718  0.12279  1.0000
  C   C1218     1.0  0.91111  0.69116  0.45278  1.0000
  C   C1219     1.0  0.98639  0.91170  0.27920  1.0000
  C   C1220     1.0  0.79054  0.70506  0.23214  1.0000
  C   C1221     1.0  0.56326  0.87532  0.35701  1.0000
  H   H967      1.0  0.96974  0.90075  0.39299  1.0000
  C   C1222     1.0  0.94059  0.90163  0.31741  1.0000
  H   H968      1.0  0.55841  0.70559  0.05632  1.0000
  H   H969      1.0  0.97187  0.82030  0.29203  1.0000
  H   H970      1.0  0.81469  0.99295  0.40284  1.0000
  C   C1223     1.0  0.96546  0.93126  0.25890  1.0000
  H   H971      1.0  0.97507  0.94271  0.23621  1.0000
  H   H972      1.0  0.77649  0.69651  0.25364  1.0000
  C   C1224     1.0  0.58345  0.82024  0.31821  1.0000
  H   H973      1.0  0.63145  0.74655  0.06151  1.0000
  H   H974      1.0  0.76566  0.96307  0.19444  1.0000
  S   S171      1.0  0.53356  0.89542  0.24958  1.0000
  C   C1225     1.0  0.54295  0.87073  0.12455  1.0000
  H   H975      1.0  0.62683  0.81865  0.34986  1.0000
  C   C1226     1.0  0.64799  0.94869  0.43041  1.0000
  H   H976      1.0  0.68995  0.98226  0.29000  1.0000
  H   H977      1.0  0.82106  0.97810  0.27455  1.0000
  C   C1227     1.0  0.59309  0.85816  0.36424  1.0000
  C   C1228     1.0  0.83954  0.70329  0.46679  1.0000
  H   H978      1.0  0.88048  0.79444  0.48157  1.0000
  S   S172      1.0  0.73022  0.71236  0.20183  1.0000
  H   H979      1.0  0.93356  0.81444  0.44624  1.0000
  H   H980      1.0  0.60204  0.96042  0.36009  1.0000
  C   C1229     1.0  0.86188  0.80094  0.49998  1.0000
  C   C1230     1.0  0.51875  0.90073  0.41013  1.0000
  H   H981      1.0  0.52038  0.87667  0.32419  1.0000
  H   H982      1.0  0.59169  0.79965  0.30265  1.0000
  C   C1231     1.0  0.76131  0.01155  0.21785  1.0000
  C   C1232     1.0  0.96709  0.87377  0.39482  1.0000
  C   C1233     1.0  0.78475  0.86466  0.13330  1.0000
  C   C1234     1.0  0.79762  0.84063  0.11146  1.0000
  C   C1235     1.0  0.82269  0.81878  0.12237  1.0000
  C   C1236     1.0  0.83521  0.82122  0.15492  1.0000
  C   C1237     1.0  0.82297  0.84583  0.17678  1.0000
  C   C1238     1.0  0.79711  0.86702  0.16590  1.0000
  P   P41       1.0  0.83764  0.84754  0.21954  1.0000
  C   C1239     1.0  0.81433  0.81750  0.24417  1.0000
  C   C1240     1.0  0.88165  0.83792  0.21958  1.0000
  C   C1241     1.0  0.89244  0.80444  0.21920  1.0000
  C   C1242     1.0  0.92630  0.79678  0.21640  1.0000
  C   C1243     1.0  0.94968  0.82249  0.21414  1.0000
  C   C1244     1.0  0.93929  0.85591  0.21524  1.0000
  C   C1245     1.0  0.90543  0.86366  0.21788  1.0000
  C   C1246     1.0  0.82877  0.80191  0.27225  1.0000
  C   C1247     1.0  0.81039  0.77942  0.29185  1.0000
  C   C1248     1.0  0.77737  0.77242  0.28358  1.0000
  C   C1249     1.0  0.76277  0.78790  0.25573  1.0000
  C   C1250     1.0  0.78110  0.81043  0.23613  1.0000
  C   C1251     1.0  0.83204  0.88896  0.23686  1.0000
  C   C1252     1.0  0.82471  0.89290  0.27098  1.0000
  C   C1253     1.0  0.82067  0.92498  0.28433  1.0000
  C   C1254     1.0  0.82436  0.95335  0.26397  1.0000
  C   C1255     1.0  0.83239  0.94970  0.23015  1.0000
  C   C1256     1.0  0.83625  0.91765  0.21662  1.0000
  H   H983      1.0  0.76408  0.88042  0.12555  1.0000
  H   H984      1.0  0.78705  0.83783  0.08667  1.0000
  H   H985      1.0  0.83168  0.79922  0.10594  1.0000
  H   H986      1.0  0.85378  0.80326  0.16311  1.0000
  H   H987      1.0  0.78565  0.88465  0.18290  1.0000
  H   H988      1.0  0.87455  0.78422  0.22027  1.0000
  H   H989      1.0  0.93424  0.77078  0.21543  1.0000
  H   H990      1.0  0.89800  0.88970  0.21810  1.0000
  H   H991      1.0  0.85418  0.80717  0.27912  1.0000
  H   H992      1.0  0.82178  0.76749  0.31348  1.0000
  H   H993      1.0  0.76309  0.75492  0.29862  1.0000
  H   H994      1.0  0.73720  0.78240  0.24922  1.0000
  H   H995      1.0  0.76911  0.82240  0.21494  1.0000
  H   H996      1.0  0.82191  0.87134  0.28745  1.0000
  H   H997      1.0  0.81485  0.92771  0.31064  1.0000
  C   C1257     1.0  0.79005  0.75323  0.46960  1.0000
  H   H998      1.0  0.83555  0.97167  0.21437  1.0000
  H   H999      1.0  0.84267  0.91520  0.19042  1.0000
  C   C1258     1.0  0.83643  0.00735  0.44980  1.0000
  H   H1000     1.0  0.78759  0.01713  0.21603  1.0000
  C   C1259     1.0  0.58816  0.81244  0.02887  1.0000
  H   H1001     1.0  0.84091  0.98173  0.45793  1.0000
  C   C1260     1.0  0.53021  0.97086  0.29863  1.0000
  H   H1002     1.0  0.98455  0.80139  0.35317  1.0000
  S   S173      1.0  0.77277  0.84932  0.50151  1.0000
  C   C1261     1.0  0.51557  0.91774  0.44066  1.0000
  C   C1262     1.0  0.53470  0.94479  0.35368  1.0000
  C   C1263     1.0  0.54365  0.94627  0.31977  1.0000
  P   P42       1.0  0.55125  0.91210  0.38073  1.0000
  H   H1003     1.0  0.91568  0.95059  0.25193  1.0000
  C   C1264     1.0  0.74899  0.98131  0.20554  1.0000
  H   H1004     1.0  0.56808  0.82944  0.03515  1.0000
  C   C1265     1.0  0.77051  0.69972  0.04246  1.0000
  Fe  Fe87      1.0  0.97959  0.69284  0.29012  1.0000
  H   H1005     1.0  0.95629  0.76128  0.46899  1.0000
  C   C1266     1.0  0.97561  0.81815  0.37231  1.0000
  C   C1267     1.0  0.58795  0.92795  0.40134  1.0000
  H   H1006     1.0  0.90094  0.73709  0.47927  1.0000
  H   H1007     1.0  0.93017  0.89022  0.33971  1.0000
  C   C1268     1.0  0.62805  0.92505  0.44681  1.0000
  C   C1269     1.0  0.59817  0.91462  0.43234  1.0000
  H   H1008     1.0  0.95748  0.87577  0.21352  1.0000
  H   H1009     1.0  0.52107  0.79637  0.17751  1.0000
  H   H1010     1.0  0.94025  0.87604  0.44154  1.0000
  C   C1270     1.0  0.99868  0.81867  0.28933  1.0000
  C   C1271     1.0  0.95981  0.80437  0.40032  1.0000
  C   C1272     1.0  0.95067  0.85990  0.42250  1.0000
  C   C1273     1.0  0.97419  0.89709  0.30885  1.0000
  H   H1011     1.0  0.65427  0.97938  0.38633  1.0000
  C   C1274     1.0  0.54334  0.86393  0.33060  1.0000
  C   C1275     1.0  0.81083  0.75103  0.44166  1.0000
  Fe  Fe88      1.0  0.91952  0.71280  0.32971  1.0000
  H   H1012     1.0  0.59510  0.97557  0.11834  1.0000
  H   H1013     1.0  0.61219  0.00671  0.16838  1.0000
  H   H1014     1.0  0.75308  0.98497  0.50169  1.0000
  H   H1015     1.0  0.58372  0.89526  0.44472  1.0000
  C   C1276     1.0  0.94708  0.82517  0.42528  1.0000
  C   C1277     1.0  0.97942  0.85299  0.36936  1.0000
  C   C1278     1.0  0.95035  0.73691  0.45892  1.0000
  H   H1016     1.0  0.60925  0.86599  0.38430  1.0000
  C   C1279     1.0  0.60837  0.95136  0.38486  1.0000
  C   C1280     1.0  0.63340  0.91214  0.16079  1.0000
  C   C1281     1.0  0.61622  0.92868  0.13516  1.0000
  C   C1282     1.0  0.60839  0.96271  0.13823  1.0000
  C   C1283     1.0  0.61808  0.98029  0.16678  1.0000
  C   C1284     1.0  0.63529  0.96376  0.19271  1.0000
  C   C1285     1.0  0.64285  0.92952  0.18942  1.0000
  P   P43       1.0  0.64976  0.98661  0.22877  1.0000
  C   C1286     1.0  0.52589  0.83873  0.21060  1.0000
  C   C1287     1.0  0.64729  0.96019  0.26559  1.0000
  C   C1288     1.0  0.67082  0.96335  0.29131  1.0000
  C   C1289     1.0  0.67047  0.94127  0.31864  1.0000
  C   C1290     1.0  0.64673  0.91586  0.32037  1.0000
  C   C1291     1.0  0.62321  0.91260  0.29497  1.0000
  C   C1292     1.0  0.62284  0.93526  0.26814  1.0000
  H   H1017     1.0  0.95627  0.77752  0.40186  1.0000
  H   H1018     1.0  0.58434  0.78427  0.07508  1.0000
  H   H1019     1.0  0.85126  0.72482  0.41851  1.0000
  C   C1293     1.0  0.60320  0.83095  0.34477  1.0000
  H   H1020     1.0  0.56170  0.72908  0.11294  1.0000
  C   C1294     1.0  0.60262  0.69762  0.12815  1.0000
  C   C1295     1.0  0.96661  0.68715  0.42864  1.0000
  S   S174      1.0  0.73563  0.99445  0.42674  1.0000
  C   C1296     1.0  0.71506  0.97411  0.20809  1.0000
  H   H1021     1.0  0.63986  0.88587  0.15849  1.0000
  H   H1022     1.0  0.53273  0.93751  0.44714  1.0000
  H   H1023     1.0  0.58985  0.99897  0.26904  1.0000
  H   H1024     1.0  0.65642  0.91618  0.20883  1.0000
  C   C1297     1.0  0.83538  0.72613  0.44025  1.0000
  H   H1025     1.0  0.68933  0.94300  0.33791  1.0000
  H   H1026     1.0  0.64720  0.89814  0.34102  1.0000
  H   H1027     1.0  0.60565  0.89205  0.29563  1.0000
  H   H1028     1.0  0.60402  0.93268  0.24898  1.0000
  H   H1029     1.0  0.97581  0.81649  0.21124  1.0000
  H   H1030     1.0  0.53561  0.97027  0.27204  1.0000
  C   C1298     1.0  0.91895  0.72308  0.46485  1.0000
  H   H1031     1.0  0.53818  0.82850  0.29053  1.0000
  H   H1032     1.0  0.99648  0.77662  0.25568  1.0000
  H   H1033     1.0  0.00673  0.73590  0.34116  1.0000
  H   H1034     1.0  0.70637  0.95015  0.19918  1.0000
  H   H1035     1.0  0.99812  0.73018  0.43522  1.0000
  C   C1299     1.0  0.80930  0.82784  0.51361  1.0000
  P   P44       1.0  0.00143  0.87151  0.33447  1.0000
  H   H1036     1.0  0.72184  0.93182  0.50774  1.0000
  C   C1300     1.0  0.52174  0.85151  0.10482  1.0000
  H   H1037     1.0  0.01211  0.90797  0.27191  1.0000
  C   C1301     1.0  0.81755  0.70473  0.49417  1.0000
  C   C1302     1.0  0.79332  0.73001  0.49578  1.0000
  C   C1303     1.0  0.57677  0.69569  0.07348  1.0000
  H   H1038     1.0  0.65809  0.69059  0.02966  1.0000
  C   C1304     1.0  0.52974  0.89288  0.14803  1.0000
  H   H1039     1.0  0.68973  0.01453  0.50321  1.0000
  H   H1040     1.0  0.81907  0.68667  0.51440  1.0000
  H   H1041     1.0  0.72727  0.87419  0.01763  1.0000
  H   H1042     1.0  0.78262  0.72903  0.96326  1.0000
  H   H1043     1.0  0.89364  0.97358  0.55336  1.0000
  Fe  Fe89      1.0  0.97514  0.75261  0.64394  1.0000
  S   S175      1.0  0.94097  0.71565  0.61997  1.0000
  C   C1305     1.0  0.54005  0.72508  0.95196  1.0000
  Fe  Fe90      1.0  0.91648  0.79786  0.66427  1.0000
  S   S176      1.0  0.87834  0.76355  0.64250  1.0000
  S   S177      1.0  0.89916  0.84412  0.69136  1.0000
  Fe  Fe91      1.0  0.90929  0.72261  0.66566  1.0000
  Fe  Fe92      1.0  0.91387  0.76078  0.59933  1.0000
  S   S178      1.0  0.90094  0.76625  0.54458  1.0000
  S   S179      1.0  0.94512  0.75718  0.69078  1.0000
  S   S180      1.0  0.95057  0.79756  0.61974  1.0000
  Fe  Fe93      1.0  0.70476  0.88204  0.79252  1.0000
  S   S181      1.0  0.68805  0.84703  0.75233  1.0000
  S   S182      1.0  0.72443  0.86249  0.84150  1.0000
  Fe  Fe94      1.0  0.68715  0.94496  0.75224  1.0000
  S   S183      1.0  0.66821  0.91473  0.70924  1.0000
  S   S184      1.0  0.54550  0.76091  0.85809  1.0000
  Fe  Fe95      1.0  0.64430  0.88185  0.74841  1.0000
  S   S185      1.0  0.59022  0.86672  0.74719  1.0000
  Fe  Fe96      1.0  0.71395  0.88309  0.71764  1.0000
  S   S186      1.0  0.74371  0.86611  0.67284  1.0000
  S   S187      1.0  0.65949  0.91474  0.79081  1.0000
  S   S188      1.0  0.73448  0.91554  0.75834  1.0000
  C   C1306     1.0  0.52495  0.93177  0.75300  1.0000
  C   C1307     1.0  0.72770  0.00350  0.69953  1.0000
  C   C1308     1.0  0.69935  0.70899  0.93505  1.0000
  H   H1044     1.0  0.72569  0.97646  0.69932  1.0000
  C   C1309     1.0  0.71574  0.00458  0.59689  1.0000
  C   C1310     1.0  0.57789  0.83650  0.77722  1.0000
  C   C1311     1.0  0.60107  0.81467  0.79190  1.0000
  C   C1312     1.0  0.59084  0.79101  0.81610  1.0000
  C   C1313     1.0  0.55741  0.78938  0.82617  1.0000
  C   C1314     1.0  0.54437  0.83452  0.78689  1.0000
  H   H1045     1.0  0.62688  0.81582  0.78442  1.0000
  H   H1046     1.0  0.60901  0.77437  0.82746  1.0000
  C   C1315     1.0  0.86581  0.79053  0.53338  1.0000
  C   C1316     1.0  0.80496  0.71256  0.70912  1.0000
  C   C1317     1.0  0.84159  0.79925  0.55699  1.0000
  H   H1047     1.0  0.78718  0.89993  0.58624  1.0000
  H   H1048     1.0  0.84434  0.79149  0.58279  1.0000
  C   C1318     1.0  0.78692  0.86034  0.67837  1.0000
  C   C1319     1.0  0.80236  0.86725  0.70892  1.0000
  C   C1320     1.0  0.83695  0.86337  0.71230  1.0000
  C   C1321     1.0  0.85616  0.85120  0.68572  1.0000
  C   C1322     1.0  0.84067  0.84391  0.65528  1.0000
  C   C1323     1.0  0.80625  0.84889  0.65150  1.0000
  H   H1049     1.0  0.78776  0.87574  0.72992  1.0000
  H   H1050     1.0  0.84870  0.86891  0.73582  1.0000
  H   H1051     1.0  0.85518  0.83462  0.63450  1.0000
  H   H1052     1.0  0.79454  0.84343  0.62780  1.0000
  C   C1324     1.0  0.72467  0.74771  0.84325  1.0000
  C   C1325     1.0  0.75006  0.76574  0.85873  1.0000
  C   C1326     1.0  0.74955  0.80092  0.85859  1.0000
  C   C1327     1.0  0.72359  0.81839  0.84300  1.0000
  C   C1328     1.0  0.69758  0.80052  0.82840  1.0000
  C   C1329     1.0  0.69812  0.76526  0.82848  1.0000
  H   H1053     1.0  0.77075  0.75277  0.86968  1.0000
  H   H1054     1.0  0.76981  0.81458  0.86968  1.0000
  H   H1055     1.0  0.67697  0.81385  0.81716  1.0000
  H   H1056     1.0  0.67810  0.75168  0.81678  1.0000
  C   C1330     1.0  0.89632  0.71763  0.78536  1.0000
  H   H1057     1.0  0.90188  0.74183  0.79588  1.0000
  H   H1058     1.0  0.90027  0.73516  0.73493  1.0000
  C   C1331     1.0  0.85082  0.84784  0.93039  1.0000
  H   H1059     1.0  0.67508  0.84434  0.00642  1.0000
  C   C1332     1.0  0.74938  0.83633  0.94489  1.0000
  C   C1333     1.0  0.77533  0.72868  0.98926  1.0000
  H   H1060     1.0  0.81437  0.79680  0.70202  1.0000
  H   H1061     1.0  0.56838  0.91009  0.65225  1.0000
  C   C1334     1.0  0.79605  0.95031  0.56728  1.0000
  H   H1062     1.0  0.96589  0.79006  0.84687  1.0000
  C   C1335     1.0  0.98806  0.73607  0.54487  1.0000
  H   H1063     1.0  0.52524  0.81283  0.66546  1.0000
  C   C1336     1.0  0.76897  0.77036  0.69183  1.0000
  C   C1337     1.0  0.59018  0.99552  0.81903  1.0000
  H   H1064     1.0  0.95805  0.72213  0.81503  1.0000
  C   C1338     1.0  0.75148  0.91376  0.54893  1.0000
  C   C1339     1.0  0.72501  0.85936  0.99516  1.0000
  C   C1340     1.0  0.78637  0.97396  0.54278  1.0000
  H   H1065     1.0  0.81938  0.69074  0.71626  1.0000
  C   C1341     1.0  0.95450  0.79681  0.79457  1.0000
  H   H1066     1.0  0.57095  0.84912  0.64466  1.0000
  C   C1342     1.0  0.80237  0.77271  0.70096  1.0000
  H   H1067     1.0  0.84605  0.74607  0.71669  1.0000
  H   H1068     1.0  0.64437  0.98044  0.89810  1.0000
  H   H1069     1.0  0.58928  0.94161  0.81508  1.0000
  H   H1070     1.0  0.79999  0.99700  0.53916  1.0000
  C   C1343     1.0  0.59755  0.96281  0.82969  1.0000
  H   H1071     1.0  0.52623  0.85116  0.77553  1.0000
  C   C1344     1.0  0.84064  0.81754  0.94487  1.0000
  H   H1072     1.0  0.72768  0.73760  0.68376  1.0000
  C   C1345     1.0  0.74204  0.93735  0.52470  1.0000
  C   C1346     1.0  0.97829  0.70450  0.81848  1.0000
  C   C1347     1.0  0.53215  0.95401  0.89693  1.0000
  H   H1073     1.0  0.97894  0.78910  0.78599  1.0000
  C   C1348     1.0  0.94717  0.79744  0.82879  1.0000
  C   C1349     1.0  0.69541  0.84219  0.98879  1.0000
  C   C1350     1.0  0.88150  0.87901  0.54617  1.0000
  H   H1074     1.0  0.55331  0.96883  0.90464  1.0000
  H   H1075     1.0  0.64866  0.93910  0.57336  1.0000
  H   H1076     1.0  0.85257  0.99823  0.70682  1.0000
  C   C1351     1.0  0.59751  0.85454  0.86699  1.0000
  H   H1077     1.0  0.63822  0.98247  0.70266  1.0000
  C   C1352     1.0  0.57474  0.72517  0.95235  1.0000
  H   H1078     1.0  0.00991  0.74008  0.84307  1.0000
  C   C1353     1.0  0.62872  0.98470  0.87639  1.0000
  C   C1354     1.0  0.96993  0.70779  0.53572  1.0000
  H   H1079     1.0  0.94411  0.70560  0.54311  1.0000
  H   H1080     1.0  0.66176  0.75301  0.00847  1.0000
  H   H1081     1.0  0.58417  0.95983  0.72086  1.0000
  H   H1082     1.0  0.64428  0.99725  0.55174  1.0000
  H   H1083     1.0  0.62874  0.76120  0.89376  1.0000
  C   C1355     1.0  0.63182  0.82329  0.92001  1.0000
  C   C1356     1.0  0.58017  0.83532  0.89060  1.0000
  C   C1357     1.0  0.78013  0.69971  0.00860  1.0000
  H   H1084     1.0  0.58456  0.86536  0.84570  1.0000
  C   C1358     1.0  0.54932  0.86027  0.65643  1.0000
  P   P45       1.0  0.51963  0.95397  0.68675  1.0000
  C   C1359     1.0  0.64896  0.84283  0.89621  1.0000
  H   H1085     1.0  0.67569  0.84539  0.89700  1.0000
  H   H1086     1.0  0.93556  0.80524  0.74476  1.0000
  H   H1087     1.0  0.71850  0.80270  0.91718  1.0000
  C   C1360     1.0  0.89596  0.71367  0.75064  1.0000
  C   C1361     1.0  0.64800  0.74676  0.90621  1.0000
  H   H1088     1.0  0.73863  0.88994  0.55069  1.0000
  C   C1362     1.0  0.81329  0.81762  0.54705  1.0000
  C   C1363     1.0  0.53426  0.81134  0.81159  1.0000
  C   C1364     1.0  0.55900  0.97203  0.67429  1.0000
  C   C1365     1.0  0.56318  0.98533  0.64187  1.0000
  C   C1366     1.0  0.01317  0.85976  0.68419  1.0000
  C   C1367     1.0  0.62118  0.99677  0.65358  1.0000
  C   C1368     1.0  0.61723  0.98331  0.68571  1.0000
  C   C1369     1.0  0.58636  0.97087  0.69607  1.0000
  C   C1370     1.0  0.54768  0.89503  0.66079  1.0000
  H   H1089     1.0  0.83848  0.81508  0.97184  1.0000
  C   C1371     1.0  0.82028  0.74392  0.70953  1.0000
  H   H1090     1.0  0.75661  0.77935  0.98821  1.0000
  H   H1091     1.0  0.98685  0.86585  0.68287  1.0000
  C   C1372     1.0  0.72006  0.81865  0.93886  1.0000
  H   H1092     1.0  0.59892  0.83720  0.98235  1.0000
  H   H1093     1.0  0.57591  0.99904  0.79631  1.0000
  H   H1094     1.0  0.79440  0.82384  0.56532  1.0000
  C   C1373     1.0  0.66514  0.75941  0.93402  1.0000
  C   C1374     1.0  0.79109  0.94443  0.68522  1.0000
  C   C1375     1.0  0.81053  0.96502  0.70528  1.0000
  C   C1376     1.0  0.83744  0.98218  0.69131  1.0000
  C   C1377     1.0  0.84456  0.97905  0.65720  1.0000
  C   C1378     1.0  0.82433  0.95923  0.63655  1.0000
  C   C1379     1.0  0.79818  0.94111  0.65118  1.0000
  P   P46       1.0  0.83313  0.95656  0.59214  1.0000
  C   C1380     1.0  0.89823  0.81480  0.78208  1.0000
  H   H1095     1.0  0.86183  0.87442  0.88484  1.0000
  H   H1096     1.0  0.75512  0.79288  0.68534  1.0000
  C   C1381     1.0  0.63190  0.85817  0.86978  1.0000
  H   H1097     1.0  0.58358  0.80291  0.93338  1.0000
  C   C1382     1.0  0.69094  0.74027  0.94817  1.0000
  H   H1098     1.0  0.64575  0.87171  0.85074  1.0000
  C   C1383     1.0  0.86047  0.92147  0.58419  1.0000
  H   H1099     1.0  0.53050  0.91458  0.80380  1.0000
  C   C1384     1.0  0.88070  0.90811  0.60967  1.0000
  H   H1100     1.0  0.77031  0.93099  0.69600  1.0000
  H   H1101     1.0  0.80455  0.96774  0.73155  1.0000
  C   C1385     1.0  0.59726  0.81935  0.91669  1.0000
  H   H1102     1.0  0.77014  0.83407  0.92775  1.0000
  H   H1103     1.0  0.78289  0.92449  0.63671  1.0000
  H   H1104     1.0  0.91603  0.86963  0.62333  1.0000
  H   H1105     1.0  0.79407  0.87121  0.84737  1.0000
  H   H1106     1.0  0.73102  0.68602  0.76431  1.0000
  H   H1107     1.0  0.62484  0.69110  0.75631  1.0000
  H   H1108     1.0  0.58791  0.74206  0.93582  1.0000
  S   S189      1.0  0.88869  0.69659  0.84996  1.0000
  H   H1109     1.0  0.88027  0.91843  0.63466  1.0000
  C   C1386     1.0  0.77883  0.91977  0.56951  1.0000
  S   S190      1.0  0.80595  0.70369  0.89937  1.0000
  H   H1110     1.0  0.70495  0.74984  0.96898  1.0000
  C   C1387     1.0  0.85219  0.99582  0.58003  1.0000
  C   C1388     1.0  0.93005  0.80567  0.77128  1.0000
  H   H1111     1.0  0.62351  0.93208  0.86582  1.0000
  H   H1112     1.0  0.88126  0.86727  0.52181  1.0000
  H   H1113     1.0  0.77234  0.70430  0.63333  1.0000
  H   H1114     1.0  0.76286  0.00562  0.65867  1.0000
  C   C1389     1.0  0.71766  0.97174  0.60937  1.0000
  C   C1390     1.0  0.69359  0.94818  0.60086  1.0000
  C   C1391     1.0  0.66739  0.95742  0.57977  1.0000
  C   C1392     1.0  0.66521  0.99030  0.56735  1.0000
  C   C1393     1.0  0.61691  0.95741  0.85825  1.0000
  C   C1394     1.0  0.64882  0.68625  0.74484  1.0000
  H   H1115     1.0  0.76860  0.68821  0.57436  1.0000
  C   C1395     1.0  0.69275  0.82169  0.96053  1.0000
  S   S191      1.0  0.68418  0.00172  0.75274  1.0000
  S   S192      1.0  0.72631  0.70352  0.84067  1.0000
  H   H1116     1.0  0.77731  0.73201  0.51751  1.0000
  C   C1396     1.0  0.75194  0.85654  0.97316  1.0000
  C   C1397     1.0  0.90131  0.86564  0.57170  1.0000
  H   H1117     1.0  0.54270  0.98552  0.62430  1.0000
  H   H1118     1.0  0.73767  0.96447  0.62594  1.0000
  H   H1119     1.0  0.69535  0.92277  0.61075  1.0000
  C   C1398     1.0  0.77152  0.70986  0.69961  1.0000
  C   C1399     1.0  0.75353  0.73904  0.69118  1.0000
  C   C1400     1.0  0.90111  0.88036  0.60333  1.0000
  P   P47       1.0  0.65456  0.79980  0.95153  1.0000
  H   H1120     1.0  0.87937  0.82080  0.76358  1.0000
  C   C1401     1.0  0.65581  0.71502  0.89376  1.0000
  C   C1402     1.0  0.88189  0.99660  0.56152  1.0000
  H   H1121     1.0  0.85674  0.86897  0.94615  1.0000
  H   H1122     1.0  0.67622  0.69566  0.79006  1.0000
  C   C1403     1.0  0.59415  0.99778  0.63165  1.0000
  H   H1123     1.0  0.55376  0.83100  0.88756  1.0000
  C   C1404     1.0  0.83340  0.79022  0.92454  1.0000
  C   C1405     1.0  0.83602  0.79316  0.88972  1.0000
  C   C1406     1.0  0.84554  0.82371  0.87483  1.0000
  C   C1407     1.0  0.85354  0.85085  0.89556  1.0000
  P   P48       1.0  0.84963  0.82807  0.82979  1.0000
  C   C1408     1.0  0.89088  0.81620  0.81640  1.0000
  C   C1409     1.0  0.82118  0.80047  0.80842  1.0000
  C   C1410     1.0  0.82693  0.76570  0.80904  1.0000
  C   C1411     1.0  0.80435  0.74378  0.79430  1.0000
  C   C1412     1.0  0.77605  0.75647  0.77838  1.0000
  C   C1413     1.0  0.77091  0.79107  0.77616  1.0000
  C   C1414     1.0  0.79344  0.81307  0.79090  1.0000
  C   C1415     1.0  0.91550  0.80716  0.83973  1.0000
  C   C1416     1.0  0.84002  0.87126  0.81920  1.0000
  C   C1417     1.0  0.86133  0.89077  0.79915  1.0000
  C   C1418     1.0  0.85259  0.92376  0.79054  1.0000
  C   C1419     1.0  0.82284  0.93765  0.80232  1.0000
  C   C1420     1.0  0.80192  0.91863  0.82292  1.0000
  C   C1421     1.0  0.81063  0.88573  0.83156  1.0000
  H   H1124     1.0  0.82587  0.76660  0.93580  1.0000
  H   H1125     1.0  0.83047  0.77151  0.87476  1.0000
  C   C1422     1.0  0.63135  0.79427  0.99014  1.0000
  H   H1126     1.0  0.84849  0.75537  0.82166  1.0000
  H   H1127     1.0  0.80859  0.71693  0.79564  1.0000
  H   H1128     1.0  0.75806  0.73954  0.76779  1.0000
  H   H1129     1.0  0.74906  0.80084  0.76356  1.0000
  H   H1130     1.0  0.78842  0.83964  0.78904  1.0000
  H   H1131     1.0  0.91024  0.80707  0.86630  1.0000
  H   H1132     1.0  0.88441  0.88063  0.78960  1.0000
  H   H1133     1.0  0.86875  0.93842  0.77441  1.0000
  H   H1134     1.0  0.81592  0.96309  0.79547  1.0000
  H   H1135     1.0  0.77863  0.92909  0.83185  1.0000
  C   C1423     1.0  0.68131  0.69604  0.90834  1.0000
  H   H1136     1.0  0.91628  0.84346  0.56707  1.0000
  C   C1424     1.0  0.67777  0.68892  0.76387  1.0000
  H   H1137     1.0  0.72030  0.69508  0.94516  1.0000
  C   C1425     1.0  0.75963  0.96733  0.52144  1.0000
  C   C1426     1.0  0.86114  0.90679  0.55232  1.0000
  C   C1427     1.0  0.52280  0.93519  0.78769  1.0000
  H   H1138     1.0  0.53469  0.90860  0.74302  1.0000
  C   C1428     1.0  0.53674  0.92051  0.88792  1.0000
  H   H1139     1.0  0.52672  0.74199  0.93529  1.0000
  H   H1140     1.0  0.00639  0.80851  0.66892  1.0000
  H   H1141     1.0  0.87620  0.69862  0.53238  1.0000
  H   H1142     1.0  0.56137  0.90949  0.88882  1.0000
  C   C1429     1.0  0.60544  0.81643  0.99865  1.0000
  H   H1143     1.0  0.59735  0.00777  0.60660  1.0000
  H   H1144     1.0  0.64292  0.70561  0.87199  1.0000
  H   H1145     1.0  0.00375  0.72407  0.70832  1.0000
  H   H1146     1.0  0.97629  0.75550  0.55962  1.0000
  C   C1430     1.0  0.59223  0.70324  0.97351  1.0000
  C   C1431     1.0  0.51495  0.95805  0.73160  1.0000
  H   H1147     1.0  0.64532  0.00616  0.64576  1.0000
  C   C1432     1.0  0.76039  0.75714  0.00340  1.0000
  H   H1148     1.0  0.77489  0.86968  0.97822  1.0000
  C   C1433     1.0  0.88866  0.69070  0.80647  1.0000
  H   H1149     1.0  0.86568  0.99247  0.64702  1.0000
  C   C1434     1.0  0.68961  0.01402  0.57554  1.0000
  H   H1150     1.0  0.84546  0.91626  0.53231  1.0000
  C   C1435     1.0  0.52371  0.83978  0.66833  1.0000
  H   H1151     1.0  0.61914  0.70380  0.97320  1.0000
  C   C1436     1.0  0.52029  0.90961  0.67720  1.0000
  C   C1437     1.0  0.64068  0.76917  0.01322  1.0000
  C   C1438     1.0  0.00739  0.71454  0.83452  1.0000
  C   C1439     1.0  0.52261  0.70303  0.97279  1.0000
  H   H1152     1.0  0.52157  0.76051  0.72134  1.0000
  C   C1440     1.0  0.62145  0.01744  0.86580  1.0000
