data_image0
_chemical_formula_structural       FeS2FeSCFeSFeS3FeS2FeS2FeCFeS3HC5HCH2C2HC8HC3H2CH2CHC6H5C5H3C4H4C4HCH3PC4HCHC4H2C10HCFePC3HC2H2C2HCH5CPCH2CH3C3H8SHCHSC2SC2HC8H3CPHC2HCHPH3C2HPH3CH2CH4CHCH2CH2C3H3C3HCHC2H2C8HC2HCH2PHCH2CH4CSC2HCH3C2HC5H3C3PC4H2CHC8H2CHCHC2HCSH2C2HCHCH2FeS2FeS2FeSFeS3FeS2FeS2FeCFeS3CHC4HCH4C7H3C6HCH2C6H4CHC4H3C4HC2HCHC2HC2SH2C4HC8H2C2HCHFeHCH4C3H2C5HC2H3CH2C2H4C2PH2C6PCHC2HCHC5HCHPHC3H3C3HCHCH4CH3C3SH5C2H3C3PC2HC11H2CHCHCH4PH2C2H2CH4CHPCHC3HC7HCHCH2CHCHSCH3CHCH2C3H2CH2CH3SC3HCH2C3HC3HC6H4C4HC3H3CHC2H2CH6CHCH2CHCH3CH3C2HCH2C4HC3HCH3C2H2C4H4C5HCH2C2H8C2H2C2HCHC4HCH3CH4CH3CFeS2FeSHFeS2FeSFeSCFeSCFeS2FeSFeHSHFeCFeS2FeSFeSC13H4CHC6H2SHC2SC2HCHC4H3C9H4CHSCHC2HCHC3FeS3H2SCSH4CSCHCH2C3H5CH3CHCHC2H2CH5CHC3H3SC3HC2H3CH4CHC6PC15H15CHC2HC2HPHC8HC3HCHSC4H2PHCH2C3HCH2CHSC2HCH2PH3CH2CH3C2FeS2FeSHFeSCFeSCSCFeSCFeSCFeSFeS2C2SFeS2FeSFeS3HCHCHC6H4C7H3CHC3H4C2HC2H2C2H2C6H5C2HSCFeHCHC2SCH3C2H3S2HC2HSHCH2CH3C4PCHCFeCHPHC4HC5H3C2HCHCH4CFeHC5HC3HCH2C2H4CH3CHC2H3CH5FeH3C3HC2FeHCH2C6PC9H2CH2SHCHSHCH2C2HCSHCHPCS2H3SCSFeSHFeS2FeCFeS3CSC2FeCFeS2HC6H2CHFeC5H3CS2HSCHC3H2C2HC6H4SHCHCH2CH4PCSH2SCH2CH2CH3CH3C2FeC2HC4PC18H2CH8C2H8C2H3CH2FeHSC3HC2H3FeH5SHSC4HCHC2FeCSH2C4HCH2C2H2CHC2HC3HFeH3SC4FeH2C2HFeHCHCPC14HC4HCH10SC2H4C2HC8SC4H6FeH2CS2Fe2CHS2C3HCHC5HSH3CH2CH2SC4PC3HC4HCH4CHCHCH2CH2CH3CH2CH2CS2CH2CH2SHFeS2FeSFeS3CSPH2CFeSH2C6H5C5H3CSHCH2SHCHCHC2HC5H3C2SHC6PC16H6CH3CH13C2SCS2C2HC2SC2HCSHCH2CH2C3HC2HPC11SC3FeH9C2FeH3C2HCH2CH3C8PC19H14CH4C13FeH3SC2H2CHSH2CSH2CH2C2H2C2HFeC2FeHCH2C3H2CH3C3H2C2HSC4HC3PCHFeHC2HFeHFeSCHCHC2H3FeC3H3C2H2CH3C2H2C2HC5SC2HC2SCH2C2H3C3H2C2HFeHCH2CH2C2H4C2HC2HCH3C3FeC2HSH2SHS2FeSCSFeS2FeCFe2S2FeSCFeSFeSFeS2HC6HCH2C6H4C6H3C6H3C2H3SH3C5HC6H4SHCHC3PCH2C4SC4PC5HC2HC10H2C2HCH11C6H2SH6C2HFeHC2HCH2CHCH2C3H3C2HCFeC2H2C10HFeCH4CHC2H3CSCSH4CSC2HC7HCHCHCHSHCH5C2FeH2CHCH3C2HC3PC13HC2PH3C2H14CHCHSCH2SH2FeCH2C3H3CSC7HC2H3CHCH2PCHCH2C7SCHCHCH2PHC3HC3SPHCH3SC4H2C2HCHC2HPSCSCHSHFeSCHSFeSHSFeS2FeHFeHS2FeS2FeSFeSFeS2C7H4C6H3PC6H3C6H4CHCHCH2C4HC8H3CSC2HCHCH2CHCH2SFeCPH3C3HC3HC2HSC2FeC6HC4HC3H3C3SH3SC2H2C2HC6H5CH3C4HC4HCH2CHC3HC3H3CHSC3HC2FeHC2S2C3HCHC2HC4H6CPC7PC18H19C6PC18H6CH17SCHPHCHC4HFeHCFeCH2CH2C2HCH2PC2HC4H3CHCHCH2CH2SCHSC3HCSC2H2C2FeH3CH2CH3FeSHCSCSFeSC2FeS2FeS2FeSFeS3CSCHSC3FeC4HCHSC2H2C2HCPC2H2C6H2C8H4C2HC2HC6H4C6H5CHCH2CH2C2HC4H3CH4CHCSCH2CHCHCH2C4H3C3HC4HFeH3CH2C2H6C3HCH3C3H2CHFeC3HC4H3CHC3HCH6C5HCH2C2H3CH3C3H2C2SH2CPC3HC2H3SC2H2CHC2HC3HCHCHC7PC10HC7H11CH2C4HC4H4C2PC3PC2H2C2H2C3HCHPCHC3H2C3HC3HC3HCPC2H5CH2C2HPHC7HC2H3CHFeC2HC2HCH2CHCH2SCHCHCHCPHC3H2C2H2C2HCH3SCH3CH2CH2C2SHCH2C2HSC2SHCSHSFeS2HFeS2FeS2FeSFeS3HSH2CH4C3SCHC3HCHCHSCHC10H4C6HCH2CH2C2HC6H4C6H4PH2C2H4C3HC7H2SHC3HPH3SCH5C5HCHC2H2CHC3H2CHCH2CH4C4HC2HC3HCH2C2HC3PC4SC5HC7H4CHC2H3CHC2H9FeHC2H2C4HC2HCHCHCPCH2CHC7HC3H5CFeC3HCHCHCHC3HSH5CH2CPC2HC2HCH5C6PCH2CHC3H2CFeSC5H6C3H2CSCH3CHC11HC5H4CH2C2FeCHC2HCHCH3CHC2HC3HC2H2CHCHCHSHCH2C2PCH2CHS2C5HSCHC2HCS2HCFeCSFeS2FeSFeHS2C4FeC3HC4HSCH2C2H3CFeH2CHCHSC2FeC2HCH2C2H3C6PC18H20C3H2SPC4HC5SHC6SCSC2H2C2H3CHCH6C5HC2HCHC5HSFeH2CHSFeH2C2H2C2H5CHCH4CSC2SHCH2CFeSH3SCFePHCSHCHCH4FePH2CFeC2FeH3C2H5S2C2HCHC2HC2HCH2C4HCHCSHFeH2C3H2CPCH2C3HCH2FeHSH3C2SC2HC2HCSCHFeS2FeS2FeSFeCS2C3SC3HCHC3H2CH2C7HFeHCH3C2HFeCH2CHCHC2SH2C3HPC9SHC2HPC3SCH2CH5C2H2C3H3CHC2SC2H4CFeCFe2CHCHC2H2CHC5HCFe2SHSCHC8PC15HC2H11CH4CH3CHC2HCH3CHCHCSHC5HCH2FeSHPHCH2SCHC3SFe2C2HC8HSCH2SPCHCH2C2HC2HSCH2CSCHCH2C2H2SCHCH5C2H5C5HCHCHCHCHC2H2C2HCH2CHC2H2C2H2CH2CH5C3HCHC3HC3HC2HCHC2HCHCHC4HCH4CH2CSH2CH3CH2CHC3HC2H6SH2C2H3C2FeSFeS2C2S4H2CHC2HCFeCHC6H4C6HC2H2C7FeHC3H2CH2FeCHC4S2PS2CH5C2H2C4H2CH2CH2FeC2H2CHSC3FeSCH2C3HCHSCHC3HC2HCFeCHCHCHCH3C2HSCHCHCHSHC4PC18HCH15CH2CSC3HCH2C2HC3HC7HCH2PCH7C3HC4H2C5HC2HC3H3CHC3HCHCH2CH2C3HCH2C2HC2HCHPCHCHCH3CPCH2C2HCHC3HCH4CH5CHC2H4CPHFeSFeS2CFeS4H2C3FeHC10H4C6H6C6H3CHCPC7HC6H3CHPCHCH4C3H3PC2HCH3CHCHC2H3SHCHC3H2CH2C3HC7PC3H2C13H6C2H4C2H6CH3C5H2C3HCHC2H2FeCS2HC2H2C4HCHC2HCH2CFeC2HC4SHC4SPHPCHC2H3C2H2C5H4CH2C5HCSC5HSC2FeCHFeHC2SH2CSCHCSC2H3C3H3CH7CHC2SH3PHC2H2C2H5SFeS2FePFeS3C3HSFeS2FeS2FeSFeS3HC8H4CH2C3HC6H4C6H4C2H2SC3H2C7H3CH2CHCHC12H6CH2CH2C2HC3PC7H2CHC2HCHC3H2CH5C3H3C3HC4HCHC7H2CH7C3PC3HC4SHC2HCH3CH3CH3C6PH2CH2CH3CHCHC6PC13H2C3H19C3H2PHCHC4H2C2HCH2CHC2HC2H3CPC3H2FeSH2CHCH2CHCH2C4HCHCHCH4CHSCHC2H2CHC6HC2HC2H2C9H5C2H5CHC2HC3HCHCHC3HC3HC2H2CHCHPC2HCHC3HCH2C2H2SFeS2FeCFeS3CH3CFeS2FeS2FeSFeS3CSPC6H4C2H2C2SC6H4C6H4CHC2HC2H3C6H6C2H2CH2C2H2C3HCH4FeHCH3C4PC4HC7HSCH2CHC4HCH8SC3H3CH2C4H4C6HC4HCHCH3C2H2CH2CHC11H12CH2PC2FeH2C16PHC3H2CHCH5C2H3CHC5HPC9PHC3SC2H10C3PHC2H3C2H2CH2C3SCHCH2CH3C4HCHC4HC2HCH3CH2C3HCHCH2CH2C7HCH3C5HCHC2H2CHCHCHC2H2CHCHC4HC2H2C2HSHCH4CPC2HC4H5CSHCH3C2H2CHCS2FeSFeSFeSCFeSFeHS2FeS5FeCFeS3CHCH2C3HCSHC4H2C6H4C4H3CHC4HSHSPC2H4CHC7PC18H20C6PCH2C2H3CH3CSC2H5CHC2H3PCFeCHC2FeH2CH3SHC6PC15H2CH11CH3C2H2SFeSC2FeSH2C2HC5H3CHC5S2HC6H2C2H2CSCH3CSHCHCH2C13HCFeH2C3H6CHFeS2HCHC2H4CFeHC2HSHC2H2C3PC2H2FeH2C8H2CHCHSHCHCH6CH3C8SHC4HCH3C5H4C5S2FeSFeSHSHFeSFeSHCFeS2H2SFeHFeS3H2CHSC2H2C6H3C6HCH2C4H2C4FeH4CH3C4H2CH2SHSC2FeCS2CHSHCSC6PC15H14C2H2C2PC2HSFeH3CFeCH2C4HCH2C2HCHCHC2HC2HCHCHFeCH2FeHC2H2SCHC2SPCHC7HCSC2H3CH3PH3FeHCFeC5HCH2C5H2C3H2C3PCH4C2HCH2C7PC17H19C2S2HCHCH3C2H2SC4HC3HC3HC2H3SH4CHCHC4HCHC4H2C2HC2SHC2HC6HCFeHC2H3C2HSC2HCHCHCHCSHFeSHFeSFeS3FeHCFeCSFeSHSH3C2H2CS2Fe2SFeCHSHFeS2FeSFeS3C6HC4H3C6H4CH2C2HC2H2C6H5C7H3C3HC2HCH2CSC7PC18H20C6PC15H17C3H3C11PC2H3C3HFeHC2H2C2H5CH2CH4C2H2C2HPC4HCS2HCSHSHC3HCH3CHCHCH6CHC2H2C2HC2SC7H2C2H2C3H8SPC3HC6H3C3SH4C3H2C4FeHCH2C3H2SPC3HC3PCHC2HCHCHCSCHC3SH2C2H3C4HCPCSCHCH2C3HCSFeHCHCH4C5H3C2HC4HCFeHCHCH2FeH2C4H3FeSHFeSHFeSFeS3FeCSFeHSFeSHSHCHCHC2HSHFe2SFeSCSHFeS2FeSFeS3C6HC5H2C6H4C2SC2H5C6H5C6H2CHC2HC3H2CHPSHCH2CHPC3HC6SCHCHCH6SC6PC18H20CHCHCH4CHFeC2HC2H2SHC6PC3H3C5PCH2CH2C3H3CH9CHC7PC18H11C7H2CHCFeCHC2HCHC2HCHC2HC3HC2HCHCHC6H3C3HSHCHC2HCH2C2H2SC3H2C3HCH2CHC3H3CH3C3SH2CHCHSC3HCSH2C3HCH2C3H3C3H2SHCHPHC2H2CH3C2HCHCH2SHCH2C2FeHCHC3H5CH2CHC2H2C2H
_chemical_formula_sum              "Fe256 S512 C3840 H3072 P128"
_cell_length_a       62.7894
_cell_length_b       62.9552
_cell_length_c       48.8082
_cell_angle_alpha    90.4157
_cell_angle_beta     90.458
_cell_angle_gamma    85.0946

_space_group_name_H-M_alt    "P 1"
_space_group_IT_number       1

loop_
  _space_group_symop_operation_xyz
  'x, y, z'

loop_
  _atom_site_type_symbol
  _atom_site_label
  _atom_site_symmetry_multiplicity
  _atom_site_fract_x
  _atom_site_fract_y
  _atom_site_fract_z
  _atom_site_occupancy
  Fe  Fe1       1.0  0.11633  0.24849  0.33204  1.0000
  S   S1        1.0  0.10362  0.21615  0.33404  1.0000
  S   S2        1.0  0.15136  0.25470  0.32851  1.0000
  Fe  Fe2       1.0  0.07149  0.27232  0.33260  1.0000
  S   S3        1.0  0.05573  0.24187  0.33546  1.0000
  C   C1        1.0  0.13970  0.14203  0.48111  1.0000
  Fe  Fe3       1.0  0.08156  0.23157  0.36610  1.0000
  S   S4        1.0  0.07129  0.21481  0.40434  1.0000
  Fe  Fe4       1.0  0.07909  0.22930  0.30323  1.0000
  S   S5        1.0  0.06479  0.21260  0.26677  1.0000
  S   S6        1.0  0.09569  0.26310  0.36582  1.0000
  S   S7        1.0  0.09345  0.26054  0.29858  1.0000
  Fe  Fe5       1.0  0.06955  0.22078  0.08502  1.0000
  S   S8        1.0  0.08963  0.18963  0.08696  1.0000
  S   S9        1.0  0.03330  0.22151  0.08116  1.0000
  Fe  Fe6       1.0  0.10934  0.24626  0.08828  1.0000
  S   S10       1.0  0.13148  0.21645  0.08971  1.0000
  S   S11       1.0  0.12542  0.27719  0.08929  1.0000
  Fe  Fe7       1.0  0.11031  0.20468  0.05660  1.0000
  C   C2        1.0  0.03297  0.27893  0.10690  1.0000
  Fe  Fe8       1.0  0.10799  0.20530  0.11985  1.0000
  S   S12       1.0  0.11913  0.18953  0.15963  1.0000
  S   S13       1.0  0.08953  0.23520  0.05303  1.0000
  S   S14       1.0  0.08678  0.23577  0.12007  1.0000
  H   H1        1.0  0.17756  0.11662  0.01819  1.0000
  C   C3        1.0  0.13198  0.10507  0.48377  1.0000
  C   C4        1.0  0.14827  0.27522  0.11081  1.0000
  C   C5        1.0  0.15057  0.25949  0.13088  1.0000
  C   C6        1.0  0.16835  0.25824  0.14850  1.0000
  C   C7        1.0  0.18430  0.27234  0.14605  1.0000
  H   H2        1.0  0.21649  0.20188  0.49040  1.0000
  C   C8        1.0  0.16407  0.28963  0.10841  1.0000
  H   H3        1.0  0.13837  0.24855  0.13337  1.0000
  H   H4        1.0  0.16971  0.24619  0.16412  1.0000
  C   C9        1.0  0.06528  0.29392  0.12204  1.0000
  C   C10       1.0  0.12459  0.30850  0.17418  1.0000
  H   H5        1.0  0.06305  0.27440  0.08585  1.0000
  C   C11       1.0  0.05293  0.28653  0.24415  1.0000
  C   C12       1.0  0.04584  0.16744  0.41982  1.0000
  C   C13       1.0  0.01211  0.18807  0.22992  1.0000
  C   C14       1.0  0.00492  0.19313  0.25641  1.0000
  C   C15       1.0  0.02049  0.29960  0.29729  1.0000
  C   C16       1.0  0.22767  0.19434  0.32057  1.0000
  C   C17       1.0  0.18394  0.13083  0.02638  1.0000
  C   C18       1.0  0.03001  0.25996  0.22811  1.0000
  H   H6        1.0  0.02702  0.28319  0.29562  1.0000
  C   C19       1.0  0.08426  0.21539  0.43671  1.0000
  C   C20       1.0  0.10474  0.22231  0.43975  1.0000
  C   C21       1.0  0.11530  0.22059  0.46532  1.0000
  H   H7        1.0  0.20237  0.12460  0.48103  1.0000
  H   H8        1.0  0.13484  0.30022  0.32883  1.0000
  C   C22       1.0  0.07416  0.20761  0.45973  1.0000
  H   H9        1.0  0.11265  0.22847  0.42225  1.0000
  H   H10       1.0  0.13126  0.22558  0.46731  1.0000
  C   C23       1.0  0.21159  0.13250  0.46615  1.0000
  H   H11       1.0  0.05832  0.20228  0.45766  1.0000
  C   C24       1.0  0.08030  0.20706  0.23713  1.0000
  C   C25       1.0  0.10069  0.19634  0.23897  1.0000
  C   C26       1.0  0.11215  0.19052  0.21500  1.0000
  C   C27       1.0  0.10366  0.19604  0.18910  1.0000
  C   C28       1.0  0.08316  0.20661  0.18725  1.0000
  C   C29       1.0  0.07143  0.21184  0.21117  1.0000
  H   H12       1.0  0.10725  0.19199  0.25889  1.0000
  H   H13       1.0  0.12771  0.18182  0.21645  1.0000
  H   H14       1.0  0.07619  0.21040  0.16740  1.0000
  H   H15       1.0  0.05550  0.21970  0.20956  1.0000
  H   H16       1.0  0.22395  0.21868  0.10698  1.0000
  C   C30       1.0  0.20863  0.23963  0.36576  1.0000
  C   C31       1.0  0.19210  0.24925  0.34928  1.0000
  C   C32       1.0  0.17151  0.24215  0.34985  1.0000
  C   C33       1.0  0.16766  0.22506  0.36677  1.0000
  C   C34       1.0  0.18430  0.21522  0.38300  1.0000
  H   H17       1.0  0.19523  0.26239  0.33614  1.0000
  H   H18       1.0  0.15186  0.21945  0.36729  1.0000
  H   H19       1.0  0.18121  0.20201  0.39592  1.0000
  C   C35       1.0  0.02480  0.16015  0.05921  1.0000
  C   C36       1.0  0.03407  0.17845  0.06838  1.0000
  C   C37       1.0  0.02154  0.19760  0.07253  1.0000
  C   C38       1.0  0.14182  0.17704  0.41929  1.0000
  H   H20       1.0  0.16944  0.18354  0.03633  1.0000
  H   H21       1.0  0.03488  0.14565  0.05530  1.0000
  H   H22       1.0  0.05104  0.17771  0.07142  1.0000
  H   H23       1.0  0.06875  0.19323  0.03104  1.0000
  C   C39       1.0  0.19967  0.21397  0.04238  1.0000
  C   C40       1.0  0.18899  0.23188  0.05524  1.0000
  C   C41       1.0  0.17951  0.24867  0.03962  1.0000
  C   C42       1.0  0.15780  0.13614  0.46511  1.0000
  H   H24       1.0  0.16584  0.15469  0.35089  1.0000
  C   C43       1.0  0.19125  0.30556  0.00971  1.0000
  H   H25       1.0  0.18727  0.23289  0.07723  1.0000
  H   H26       1.0  0.17074  0.26204  0.04975  1.0000
  H   H27       1.0  0.16365  0.18063  0.14148  1.0000
  P   P1        1.0  0.23059  0.21471  0.26993  1.0000
  C   C44       1.0  0.12648  0.30573  0.31033  1.0000
  C   C45       1.0  0.18454  0.27186  0.45182  1.0000
  C   C46       1.0  0.20209  0.25762  0.44546  1.0000
  C   C47       1.0  0.08457  0.20627  0.48540  1.0000
  H   H28       1.0  0.18091  0.20608  0.17153  1.0000
  C   C48       1.0  0.20478  0.22264  0.38280  1.0000
  H   H29       1.0  0.17442  0.27874  0.43550  1.0000
  C   C49       1.0  0.03660  0.16402  0.17614  1.0000
  C   C50       1.0  0.23679  0.26492  0.01104  1.0000
  C   C51       1.0  0.21427  0.15902  0.43092  1.0000
  C   C52       1.0  0.14019  0.17422  0.36982  1.0000
  H   H30       1.0  0.21112  0.22503  0.15420  1.0000
  H   H31       1.0  0.22337  0.30530  0.27616  1.0000
  C   C53       1.0  0.04549  0.26636  0.24639  1.0000
  C   C54       1.0  0.17756  0.18679  0.24225  1.0000
  C   C55       1.0  0.16152  0.19628  0.25912  1.0000
  C   C56       1.0  0.16617  0.21213  0.27778  1.0000
  C   C57       1.0  0.18700  0.21813  0.28021  1.0000
  C   C58       1.0  0.20345  0.20813  0.26413  1.0000
  C   C59       1.0  0.19849  0.19269  0.24468  1.0000
  C   C60       1.0  0.17331  0.21629  0.48442  1.0000
  C   C61       1.0  0.22936  0.24340  0.27175  1.0000
  C   C62       1.0  0.03020  0.31353  0.31493  1.0000
  H   H32       1.0  0.99511  0.24294  0.35732  1.0000
  C   C63       1.0  0.17313  0.19934  0.46587  1.0000
  Fe  Fe9       1.0  0.23817  0.28179  0.16356  1.0000
  P   P2        1.0  0.17354  0.15634  0.45191  1.0000
  C   C64       1.0  0.99854  0.23717  0.00536  1.0000
  C   C65       1.0  0.05452  0.28191  0.10310  1.0000
  C   C66       1.0  0.23815  0.25831  0.06771  1.0000
  H   H33       1.0  0.03548  0.21216  0.01448  1.0000
  C   C67       1.0  0.22896  0.27755  0.05722  1.0000
  C   C68       1.0  0.22199  0.25551  0.24900  1.0000
  H   H34       1.0  0.15272  0.29560  0.28419  1.0000
  H   H35       1.0  0.22437  0.24538  0.36522  1.0000
  C   C69       1.0  0.02894  0.29431  0.20553  1.0000
  C   C70       1.0  0.03255  0.30094  0.14811  1.0000
  H   H36       1.0  0.02111  0.19671  0.48060  1.0000
  C   C71       1.0  0.12581  0.31012  0.26087  1.0000
  H   H37       1.0  0.17374  0.17483  0.22734  1.0000
  H   H38       1.0  0.14540  0.19158  0.25760  1.0000
  H   H39       1.0  0.15359  0.21979  0.29043  1.0000
  H   H40       1.0  0.19030  0.23036  0.29502  1.0000
  H   H41       1.0  0.21055  0.18518  0.23134  1.0000
  C   C72       1.0  0.18225  0.28801  0.12575  1.0000
  P   P3        1.0  0.13916  0.30619  0.22836  1.0000
  C   C73       1.0  0.18017  0.27732  0.47913  1.0000
  H   H42       1.0  0.02813  0.21071  0.42421  1.0000
  H   H43       1.0  0.13275  0.29278  0.17122  1.0000
  C   C74       1.0  0.15529  0.30425  0.02741  1.0000
  H   H44       1.0  0.17270  0.20269  0.44415  1.0000
  H   H45       1.0  0.22831  0.14671  0.05807  1.0000
  H   H46       1.0  0.21786  0.24779  0.22999  1.0000
  C   C75       1.0  0.04481  0.30045  0.22371  1.0000
  C   C76       1.0  0.00416  0.19609  0.48410  1.0000
  C   C77       1.0  0.00244  0.19649  0.15891  1.0000
  H   H47       1.0  0.13526  0.15865  0.48615  1.0000
  H   H48       1.0  0.05098  0.31592  0.22224  1.0000
  H   H49       1.0  0.17326  0.26073  0.99895  1.0000
  H   H50       1.0  0.09811  0.22215  0.99335  1.0000
  H   H51       1.0  0.02493  0.26889  0.09268  1.0000
  H   H52       1.0  0.02506  0.24212  0.14329  1.0000
  H   H53       1.0  0.17222  0.30511  0.18708  1.0000
  H   H54       1.0  0.14446  0.30432  0.04465  1.0000
  S   S15       1.0  0.12338  0.18607  0.01977  1.0000
  H   H55       1.0  0.04014  0.17298  0.13368  1.0000
  C   C78       1.0  0.99320  0.23517  0.13143  1.0000
  H   H56       1.0  0.02446  0.24420  0.22993  1.0000
  S   S16       1.0  0.22520  0.21074  0.40434  1.0000
  C   C79       1.0  0.17745  0.31436  0.20430  1.0000
  C   C80       1.0  0.05749  0.14755  0.46942  1.0000
  S   S17       1.0  0.05363  0.30541  0.33391  1.0000
  C   C81       1.0  0.18696  0.20278  0.15107  1.0000
  C   C82       1.0  0.19151  0.23037  0.99810  1.0000
  H   H57       1.0  0.03296  0.20864  0.16833  1.0000
  C   C83       1.0  0.99622  0.23012  0.37211  1.0000
  C   C84       1.0  0.99929  0.19784  0.06890  1.0000
  C   C85       1.0  0.06911  0.14858  0.19815  1.0000
  C   C86       1.0  0.08052  0.15146  0.17420  1.0000
  C   C87       1.0  0.06996  0.16010  0.15103  1.0000
  C   C88       1.0  0.04805  0.16626  0.15188  1.0000
  C   C89       1.0  0.17711  0.30606  0.03188  1.0000
  C   C90       1.0  0.04714  0.15447  0.19899  1.0000
  H   H58       1.0  0.20556  0.25356  0.42428  1.0000
  H   H59       1.0  0.20727  0.19923  0.00290  1.0000
  H   H60       1.0  0.02788  0.19212  0.22409  1.0000
  C   C91       1.0  0.01494  0.21168  0.40971  1.0000
  P   P4        1.0  0.21042  0.19130  0.06232  1.0000
  H   H61       1.0  0.16216  0.30211  0.09333  1.0000
  C   C92       1.0  0.20164  0.14804  0.44869  1.0000
  C   C93       1.0  0.01293  0.23093  0.14462  1.0000
  H   H62       1.0  0.22591  0.17831  0.35919  1.0000
  C   C94       1.0  0.23938  0.18799  0.06006  1.0000
  H   H63       1.0  0.13465  0.18308  0.43824  1.0000
  P   P5        1.0  0.21946  0.30723  0.01589  1.0000
  H   H64       1.0  0.17579  0.10994  0.44451  1.0000
  H   H65       1.0  0.19427  0.29924  0.12398  1.0000
  H   H66       1.0  0.06478  0.29141  0.25864  1.0000
  C   C95       1.0  0.07312  0.15088  0.45003  1.0000
  C   C96       1.0  0.00274  0.16056  0.05458  1.0000
  H   H67       1.0  0.08344  0.15995  0.00854  1.0000
  P   P6        1.0  0.00268  0.17474  0.43391  1.0000
  H   H68       1.0  0.07735  0.14199  0.21615  1.0000
  H   H69       1.0  0.09763  0.14733  0.17366  1.0000
  H   H70       1.0  0.07890  0.16233  0.13256  1.0000
  C   C97       1.0  0.01752  0.21171  0.15843  1.0000
  H   H71       1.0  0.03853  0.15177  0.21759  1.0000
  H   H72       1.0  0.18387  0.14484  0.39461  1.0000
  C   C98       1.0  0.99907  0.17787  0.21132  1.0000
  H   H73       1.0  0.23566  0.28404  0.31684  1.0000
  H   H74       1.0  0.09746  0.31617  0.33147  1.0000
  H   H75       1.0  0.16670  0.28870  0.48360  1.0000
  H   H76       1.0  0.15330  0.08258  0.46161  1.0000
  C   C99       1.0  0.06052  0.18704  0.01355  1.0000
  H   H77       1.0  0.99515  0.29606  0.26794  1.0000
  C   C100      1.0  0.22913  0.28138  0.02887  1.0000
  H   H78       1.0  0.05160  0.25579  0.26255  1.0000
  H   H79       1.0  0.17645  0.17367  0.09455  1.0000
  C   C101      1.0  0.16951  0.15562  0.39485  1.0000
  H   H80       1.0  0.17238  0.23243  0.47684  1.0000
  H   H81       1.0  0.01319  0.24339  0.99868  1.0000
  C   C102      1.0  0.02204  0.28826  0.12941  1.0000
  C   C103      1.0  0.21533  0.24887  0.46635  1.0000
  C   C104      1.0  0.17152  0.15031  0.02569  1.0000
  H   H82       1.0  0.22223  0.28957  0.07139  1.0000
  H   H83       1.0  0.22911  0.23809  0.46120  1.0000
  H   H84       1.0  0.08220  0.29547  0.11940  1.0000
  C   C105      1.0  0.16120  0.16413  0.41961  1.0000
  C   C106      1.0  0.23422  0.25385  0.29624  1.0000
  C   C107      1.0  0.03606  0.15436  0.46414  1.0000
  H   H85       1.0  0.04173  0.17514  0.40049  1.0000
  C   C108      1.0  0.02183  0.27383  0.20759  1.0000
  H   H86       1.0  0.08978  0.14610  0.45431  1.0000
  C   C109      1.0  0.22488  0.28807  0.27496  1.0000
  C   C110      1.0  0.17331  0.17840  0.47549  1.0000
  H   H87       1.0  0.07934  0.16354  0.41022  1.0000
  H   H88       1.0  0.21054  0.19536  0.31771  1.0000
  C   C111      1.0  0.20025  0.16770  0.04779  1.0000
  C   C112      1.0  0.20178  0.19503  0.09746  1.0000
  C   C113      1.0  0.14173  0.27780  0.22284  1.0000
  C   C114      1.0  0.16171  0.26601  0.22406  1.0000
  C   C115      1.0  0.16331  0.24409  0.21874  1.0000
  C   C116      1.0  0.14502  0.23388  0.21207  1.0000
  C   C117      1.0  0.12503  0.24545  0.21168  1.0000
  C   C118      1.0  0.12334  0.26729  0.21729  1.0000
  H   H89       1.0  0.02535  0.23962  0.39049  1.0000
  C   C119      1.0  0.20045  0.21324  0.01360  1.0000
  C   C120      1.0  0.17726  0.18840  0.13413  1.0000
  H   H90       1.0  0.06196  0.13995  0.48870  1.0000
  C   C121      1.0  0.03019  0.16495  0.43966  1.0000
  H   H91       1.0  0.10770  0.27602  0.21690  1.0000
  H   H92       1.0  0.99841  0.16208  0.11957  1.0000
  P   P7        1.0  0.00828  0.17180  0.17696  1.0000
  H   H93       1.0  0.20710  0.17185  0.41833  1.0000
  C   C122      1.0  0.18460  0.18450  0.10743  1.0000
  H   H94       1.0  0.00559  0.28507  0.13246  1.0000
  H   H95       1.0  0.21394  0.11449  0.03886  1.0000
  C   C123      1.0  0.21125  0.20972  0.11453  1.0000
  H   H96       1.0  0.17608  0.27365  0.22877  1.0000
  H   H97       1.0  0.17881  0.23514  0.21913  1.0000
  H   H98       1.0  0.14630  0.21704  0.20707  1.0000
  H   H99       1.0  0.11082  0.23756  0.20686  1.0000
  C   C124      1.0  0.00234  0.30692  0.28177  1.0000
  S   S18       1.0  0.20528  0.27083  0.17051  1.0000
  C   C125      1.0  0.01325  0.22829  0.39078  1.0000
  C   C126      1.0  0.13143  0.18216  0.39445  1.0000
  H   H100      1.0  0.18300  0.30753  0.05266  1.0000
  C   C127      1.0  0.20441  0.12965  0.03802  1.0000
  H   H101      1.0  0.01002  0.26857  0.19335  1.0000
  H   H102      1.0  0.23896  0.25583  0.08966  1.0000
  H   H103      1.0  0.21470  0.28693  0.23270  1.0000
  C   C128      1.0  0.14964  0.09917  0.46725  1.0000
  C   C129      1.0  0.11460  0.31877  0.15163  1.0000
  H   H104      1.0  0.99919  0.06303  0.06961  1.0000
  C   C130      1.0  0.22003  0.27776  0.25053  1.0000
  C   C131      1.0  0.20397  0.21342  0.14129  1.0000
  C   C132      1.0  0.18085  0.24794  0.01109  1.0000
  C   C133      1.0  0.21252  0.14799  0.04884  1.0000
  C   C134      1.0  0.06725  0.16062  0.42514  1.0000
  H   H105      1.0  0.15550  0.15119  0.01707  1.0000
  H   H106      1.0  0.11654  0.19227  0.39428  1.0000
  H   H107      1.0  0.13219  0.17828  0.35059  1.0000
  C   C135      1.0  0.15919  0.16094  0.37002  1.0000
  C   C136      1.0  0.17954  0.16867  0.03651  1.0000
  C   C137      1.0  0.04163  0.19784  0.00387  1.0000
  P   P8        1.0  0.01901  0.31177  0.17832  1.0000
  C   C138      1.0  0.13658  0.30322  0.28497  1.0000
  C   C139      1.0  0.06884  0.16828  0.00076  1.0000
  C   C140      1.0  0.99289  0.14965  0.13230  1.0000
  C   C141      1.0  0.99998  0.19635  0.40963  1.0000
  H   H108      1.0  0.00939  0.04087  0.11032  1.0000
  H   H109      1.0  0.02407  0.15164  0.47929  1.0000
  C   C142      1.0  0.16244  0.11466  0.45777  1.0000
  H   H110      1.0  0.01530  0.20065  0.27074  1.0000
  C   C143      1.0  0.14747  0.30183  0.00078  1.0000
  C   C144      1.0  0.05441  0.30330  0.14460  1.0000
  C   C145      1.0  0.10537  0.21238  0.48819  1.0000
  C   C146      1.0  0.23374  0.12747  0.46502  1.0000
  C   C147      1.0  0.16478  0.31722  0.22780  1.0000
  C   C148      1.0  0.23182  0.27610  0.29785  1.0000
  C   C149      1.0  0.12462  0.31875  0.19987  1.0000
  C   C150      1.0  0.23635  0.15392  0.42975  1.0000
  H   H111      1.0  0.11511  0.31086  0.13180  1.0000
  H   H112      1.0  0.99616  0.15584  0.37963  1.0000
  C   C151      1.0  0.23637  0.18445  0.34415  1.0000
  H   H113      1.0  0.24060  0.19177  0.01592  1.0000
  C   C152      1.0  0.99549  0.15023  0.16091  1.0000
  H   H114      1.0  0.12205  0.09307  0.49107  1.0000
  C   C153      1.0  0.99267  0.04481  0.10542  1.0000
  C   C154      1.0  0.12699  0.12650  0.49062  1.0000
  H   H115      1.0  0.23966  0.24496  0.31425  1.0000
  C   C155      1.0  0.24108  0.20291  0.30138  1.0000
  S   S19       1.0  0.99230  0.13721  0.04165  1.0000
  H   H116      1.0  0.99189  0.26249  0.03473  1.0000
  H   H117      1.0  0.99172  0.13294  0.19856  1.0000
  C   C156      1.0  0.10537  0.31459  0.31180  1.0000
  C   C157      1.0  0.10423  0.31808  0.26239  1.0000
  H   H118      1.0  0.06314  0.31204  0.15953  1.0000
  C   C158      1.0  0.99192  0.21825  0.99392  1.0000
  H   H119      1.0  0.20677  0.32071  0.18465  1.0000
  C   C159      1.0  0.09417  0.32055  0.28783  1.0000
  H   H120      1.0  0.09495  0.32196  0.24410  1.0000
  H   H121      1.0  0.13059  0.30020  0.99741  1.0000
  Fe  Fe10      1.0  0.12106  0.24993  0.83868  1.0000
  S   S20       1.0  0.11132  0.21669  0.83203  1.0000
  S   S21       1.0  0.15567  0.25652  0.83176  1.0000
  Fe  Fe11      1.0  0.07496  0.26800  0.84825  1.0000
  S   S22       1.0  0.06221  0.23614  0.84299  1.0000
  S   S23       1.0  0.05215  0.29715  0.85644  1.0000
  Fe  Fe12      1.0  0.09036  0.22377  0.86871  1.0000
  S   S24       1.0  0.08673  0.19681  0.89840  1.0000
  Fe  Fe13      1.0  0.08425  0.23215  0.80702  1.0000
  S   S25       1.0  0.06873  0.22149  0.76789  1.0000
  S   S26       1.0  0.10169  0.25609  0.87706  1.0000
  S   S27       1.0  0.09535  0.26491  0.81074  1.0000
  Fe  Fe14      1.0  0.06256  0.21618  0.59245  1.0000
  S   S28       1.0  0.08771  0.18899  0.58629  1.0000
  S   S29       1.0  0.02729  0.21071  0.59582  1.0000
  Fe  Fe15      1.0  0.09673  0.24848  0.60162  1.0000
  S   S30       1.0  0.12342  0.22332  0.59552  1.0000
  S   S31       1.0  0.10377  0.28175  0.61447  1.0000
  Fe  Fe16      1.0  0.10354  0.21260  0.56020  1.0000
  C   C160      1.0  0.14514  0.26766  0.52651  1.0000
  Fe  Fe17      1.0  0.10426  0.20337  0.62233  1.0000
  S   S32       1.0  0.11889  0.18841  0.66099  1.0000
  S   S33       1.0  0.07760  0.23919  0.56477  1.0000
  S   S34       1.0  0.07829  0.22917  0.62971  1.0000
  C   C161      1.0  0.00632  0.01975  0.67115  1.0000
  H   H122      1.0  0.00156  0.00602  0.59774  1.0000
  C   C162      1.0  0.12972  0.28819  0.62447  1.0000
  C   C163      1.0  0.14780  0.27336  0.62480  1.0000
  C   C164      1.0  0.16818  0.27991  0.63197  1.0000
  C   C165      1.0  0.17043  0.30131  0.63877  1.0000
  H   H123      1.0  0.09746  0.31241  0.70792  1.0000
  C   C166      1.0  0.13219  0.30940  0.63161  1.0000
  H   H124      1.0  0.14613  0.25693  0.61944  1.0000
  H   H125      1.0  0.18210  0.26855  0.63177  1.0000
  H   H126      1.0  0.13587  0.30060  0.70362  1.0000
  H   H127      1.0  0.16044  0.30847  0.56650  1.0000
  C   C167      1.0  0.02982  0.30193  0.83432  1.0000
  C   C168      1.0  0.00646  0.21844  0.79560  1.0000
  C   C169      1.0  0.19213  0.22993  0.59469  1.0000
  C   C170      1.0  0.01522  0.31979  0.83882  1.0000
  C   C171      1.0  0.21102  0.25426  0.49372  1.0000
  C   C172      1.0  0.02682  0.28866  0.81175  1.0000
  C   C173      1.0  0.20530  0.30497  0.57060  1.0000
  H   H128      1.0  0.02123  0.21536  0.80698  1.0000
  H   H129      1.0  0.22911  0.28872  0.86743  1.0000
  H   H130      1.0  0.03809  0.27500  0.80790  1.0000
  C   C174      1.0  0.09716  0.19540  0.93215  1.0000
  C   C175      1.0  0.10802  0.17616  0.94046  1.0000
  C   C176      1.0  0.11596  0.17374  0.96725  1.0000
  C   C177      1.0  0.06683  0.31466  0.65144  1.0000
  C   C178      1.0  0.04005  0.17169  0.96743  1.0000
  C   C179      1.0  0.09359  0.21206  0.95130  1.0000
  H   H131      1.0  0.11050  0.16314  0.92596  1.0000
  C   C180      1.0  0.00597  0.07937  0.62357  1.0000
  H   H132      1.0  0.00778  0.28351  0.77572  1.0000
  H   H133      1.0  0.08493  0.22687  0.94522  1.0000
  C   C181      1.0  0.08354  0.21258  0.73878  1.0000
  C   C182      1.0  0.10572  0.20770  0.73956  1.0000
  C   C183      1.0  0.11654  0.19991  0.71579  1.0000
  C   C184      1.0  0.10528  0.19734  0.69113  1.0000
  C   C185      1.0  0.08315  0.20215  0.69061  1.0000
  C   C186      1.0  0.07240  0.20976  0.71426  1.0000
  H   H134      1.0  0.11447  0.20980  0.75842  1.0000
  H   H135      1.0  0.13368  0.19621  0.71639  1.0000
  H   H136      1.0  0.07417  0.19960  0.67209  1.0000
  H   H137      1.0  0.05532  0.21342  0.71358  1.0000
  C   C187      1.0  0.20390  0.24128  0.90153  1.0000
  H   H138      1.0  0.19061  0.30120  0.86404  1.0000
  C   C188      1.0  0.19610  0.24793  0.85333  1.0000
  C   C189      1.0  0.17411  0.25083  0.85880  1.0000
  C   C190      1.0  0.16717  0.24954  0.88579  1.0000
  C   C191      1.0  0.18203  0.24488  0.90708  1.0000
  H   H139      1.0  0.20164  0.24936  0.83256  1.0000
  H   H140      1.0  0.15033  0.25225  0.89026  1.0000
  H   H141      1.0  0.17652  0.24392  0.92793  1.0000
  C   C192      1.0  0.00966  0.29352  0.79351  1.0000
  C   C193      1.0  0.99528  0.20519  0.50808  1.0000
  C   C194      1.0  0.01722  0.18958  0.57685  1.0000
  C   C195      1.0  0.02992  0.17765  0.55789  1.0000
  H   H142      1.0  0.23092  0.26193  0.55339  1.0000
  C   C196      1.0  0.01258  0.09676  0.60920  1.0000
  C   C197      1.0  0.19289  0.27784  0.71538  1.0000
  H   H143      1.0  0.04632  0.18108  0.55486  1.0000
  C   C198      1.0  0.99665  0.23921  0.79560  1.0000
  H   H144      1.0  0.07108  0.14050  0.73111  1.0000
  C   C199      1.0  0.14576  0.10575  0.88310  1.0000
  C   C200      1.0  0.02071  0.18061  0.72717  1.0000
  H   H145      1.0  0.04719  0.20885  0.93602  1.0000
  C   C201      1.0  0.99721  0.20215  0.78113  1.0000
  C   C202      1.0  0.16190  0.31105  0.76615  1.0000
  S   S35       1.0  0.22180  0.23434  0.92873  1.0000
  H   H146      1.0  0.20040  0.29515  0.58719  1.0000
  H   H147      1.0  0.02814  0.03634  0.61204  1.0000
  C   C203      1.0  0.05401  0.30621  0.72929  1.0000
  C   C204      1.0  0.20078  0.29990  0.54324  1.0000
  C   C205      1.0  0.04412  0.00832  0.66889  1.0000
  C   C206      1.0  0.02951  0.31251  0.66224  1.0000
  H   H148      1.0  0.23351  0.28811  0.77976  1.0000
  C   C207      1.0  0.05161  0.16210  0.70547  1.0000
  C   C208      1.0  0.05120  0.30740  0.66863  1.0000
  C   C209      1.0  0.02546  0.17110  0.81257  1.0000
  C   C210      1.0  0.04571  0.17901  0.81400  1.0000
  C   C211      1.0  0.05804  0.17677  0.83794  1.0000
  C   C212      1.0  0.05036  0.16649  0.86063  1.0000
  C   C213      1.0  0.03038  0.15833  0.85936  1.0000
  C   C214      1.0  0.01800  0.16053  0.83543  1.0000
  H   H149      1.0  0.20679  0.19566  0.85621  1.0000
  H   H150      1.0  0.00681  0.19189  0.72570  1.0000
  C   C215      1.0  0.24076  0.17511  0.91391  1.0000
  C   C216      1.0  0.99509  0.31137  0.79796  1.0000
  H   H151      1.0  0.00544  0.21227  0.52304  1.0000
  C   C217      1.0  0.19696  0.23926  0.71599  1.0000
  H   H152      1.0  0.02969  0.18495  0.68507  1.0000
  Fe  Fe18      1.0  0.22812  0.29524  0.65621  1.0000
  H   H153      1.0  0.03304  0.26784  0.89373  1.0000
  C   C218      1.0  0.00147  0.24238  0.93696  1.0000
  H   H154      1.0  0.05187  0.18724  0.79673  1.0000
  H   H155      1.0  0.07348  0.18327  0.83910  1.0000
  H   H156      1.0  0.05988  0.16496  0.87925  1.0000
  H   H157      1.0  0.02447  0.15038  0.87702  1.0000
  C   C219      1.0  0.23300  0.31525  0.98560  1.0000
  C   C220      1.0  0.22183  0.29221  0.84756  1.0000
  C   C221      1.0  0.21996  0.25281  0.56446  1.0000
  H   H158      1.0  0.13246  0.11558  0.92223  1.0000
  H   H159      1.0  0.22784  0.24045  0.87009  1.0000
  C   C222      1.0  0.17412  0.21242  0.51257  1.0000
  C   C223      1.0  0.23385  0.28865  0.82377  1.0000
  C   C224      1.0  0.17458  0.17458  0.50379  1.0000
  C   C225      1.0  0.99991  0.15708  0.54560  1.0000
  C   C226      1.0  0.19784  0.25598  0.55950  1.0000
  H   H160      1.0  0.13751  0.09133  0.88204  1.0000
  C   C227      1.0  0.14295  0.11937  0.90576  1.0000
  C   C228      1.0  0.21097  0.24299  0.87459  1.0000
  H   H161      1.0  0.18473  0.16910  0.94630  1.0000
  H   H162      1.0  0.01187  0.07641  0.64423  1.0000
  H   H163      1.0  0.00806  0.25900  0.61418  1.0000
  C   C229      1.0  0.16151  0.30090  0.97862  1.0000
  H   H164      1.0  0.06562  0.14657  0.96709  1.0000
  H   H165      1.0  0.20425  0.30941  0.50095  1.0000
  C   C230      1.0  0.21417  0.22687  0.59941  1.0000
  C   C231      1.0  0.15343  0.13808  0.90710  1.0000
  H   H166      1.0  0.19907  0.22491  0.75588  1.0000
  H   H167      1.0  0.19875  0.22416  0.70512  1.0000
  H   H168      1.0  0.15550  0.29842  0.95804  1.0000
  H   H169      1.0  0.11406  0.28941  0.76783  1.0000
  C   C232      1.0  0.02133  0.16140  0.54247  1.0000
  C   C233      1.0  0.19350  0.27847  0.74417  1.0000
  P   P9        1.0  0.00749  0.20473  0.96692  1.0000
  H   H170      1.0  0.99387  0.16311  0.98219  1.0000
  H   H171      1.0  0.06187  0.15949  0.68777  1.0000
  C   C234      1.0  0.01988  0.24470  0.72013  1.0000
  C   C235      1.0  0.01559  0.23509  0.69500  1.0000
  C   C236      1.0  0.02486  0.24197  0.67108  1.0000
  C   C237      1.0  0.03794  0.25886  0.67215  1.0000
  C   C238      1.0  0.04195  0.26893  0.69722  1.0000
  C   C239      1.0  0.03313  0.26146  0.72131  1.0000
  P   P10       1.0  0.05862  0.29096  0.69802  1.0000
  C   C240      1.0  0.08669  0.28172  0.69681  1.0000
  H   H172      1.0  0.22178  0.24756  0.50935  1.0000
  C   C241      1.0  0.02610  0.17032  0.75201  1.0000
  C   C242      1.0  0.04528  0.01825  0.64350  1.0000
  H   H173      1.0  0.01030  0.11428  0.57137  1.0000
  C   C243      1.0  0.12812  0.30164  0.55878  1.0000
  H   H174      1.0  0.15074  0.14845  0.92472  1.0000
  C   C244      1.0  0.10221  0.29602  0.70238  1.0000
  C   C245      1.0  0.12397  0.28940  0.70002  1.0000
  C   C246      1.0  0.13039  0.26842  0.69238  1.0000
  C   C247      1.0  0.11508  0.25405  0.68714  1.0000
  C   C248      1.0  0.09331  0.26060  0.68950  1.0000
  H   H175      1.0  0.17382  0.22552  0.52691  1.0000
  C   C249      1.0  0.06478  0.29945  0.75344  1.0000
  H   H176      1.0  0.21076  0.19402  0.91212  1.0000
  P   P11       1.0  0.00930  0.17499  0.78175  1.0000
  H   H177      1.0  0.15244  0.27869  0.76444  1.0000
  C   C250      1.0  0.00733  0.02978  0.64563  1.0000
  C   C251      1.0  0.21937  0.14296  0.88865  1.0000
  C   C252      1.0  0.04219  0.23807  0.91385  1.0000
  H   H178      1.0  0.02229  0.23394  0.65173  1.0000
  H   H179      1.0  0.04518  0.26391  0.65345  1.0000
  H   H180      1.0  0.03662  0.26831  0.74109  1.0000
  C   C253      1.0  0.04402  0.15535  0.75305  1.0000
  C   C254      1.0  0.14932  0.21258  0.95326  1.0000
  C   C255      1.0  0.99591  0.18490  0.58045  1.0000
  H   H181      1.0  0.11259  0.26013  0.52063  1.0000
  C   C256      1.0  0.19713  0.23968  0.74460  1.0000
  H   H182      1.0  0.02344  0.10716  0.61867  1.0000
  C   C257      1.0  0.21904  0.17865  0.90748  1.0000
  H   H183      1.0  0.14721  0.26337  0.69005  1.0000
  H   H184      1.0  0.12007  0.23787  0.68076  1.0000
  H   H185      1.0  0.08180  0.24918  0.68530  1.0000
  H   H186      1.0  0.07539  0.28493  0.75360  1.0000
  C   C258      1.0  0.20722  0.31306  0.52227  1.0000
  H   H187      1.0  0.17481  0.18871  0.54413  1.0000
  H   H188      1.0  0.16678  0.24705  0.57234  1.0000
  H   H189      1.0  0.04829  0.14686  0.77178  1.0000
  C   C259      1.0  0.05875  0.16073  0.97751  1.0000
  C   C260      1.0  0.19472  0.25832  0.70141  1.0000
  C   C261      1.0  0.15906  0.11084  0.86172  1.0000
  S   S36       1.0  0.12006  0.20801  0.51907  1.0000
  H   H190      1.0  0.19461  0.25803  0.67922  1.0000
  H   H191      1.0  0.12145  0.31446  0.57185  1.0000
  H   H192      1.0  0.02373  0.00128  0.70233  1.0000
  H   H193      1.0  0.19117  0.29225  0.70346  1.0000
  H   H194      1.0  0.00377  0.25151  0.80729  1.0000
  C   C262      1.0  0.19060  0.30322  0.82001  1.0000
  C   C263      1.0  0.03104  0.19008  0.98094  1.0000
  H   H195      1.0  0.99689  0.27169  0.91411  1.0000
  H   H196      1.0  0.05802  0.23644  0.90503  1.0000
  H   H197      1.0  0.19239  0.22978  0.97591  1.0000
  C   C264      1.0  0.16952  0.12958  0.86295  1.0000
  C   C265      1.0  0.16676  0.14338  0.88563  1.0000
  C   C266      1.0  0.15897  0.28113  0.53942  1.0000
  P   P12       1.0  0.17999  0.16779  0.88668  1.0000
  C   C267      1.0  0.16773  0.18533  0.91260  1.0000
  C   C268      1.0  0.15230  0.20188  0.90556  1.0000
  H   H198      1.0  0.08364  0.31054  0.65524  1.0000
  C   C269      1.0  0.05685  0.15148  0.72995  1.0000
  C   C270      1.0  0.12530  0.30151  0.76827  1.0000
  C   C271      1.0  0.99180  0.06592  0.61135  1.0000
  C   C272      1.0  0.17706  0.18052  0.85362  1.0000
  C   C273      1.0  0.15877  0.17821  0.83745  1.0000
  C   C274      1.0  0.15654  0.18789  0.81177  1.0000
  C   C275      1.0  0.17226  0.20036  0.80231  1.0000
  C   C276      1.0  0.19045  0.20282  0.81828  1.0000
  C   C277      1.0  0.19283  0.19304  0.84391  1.0000
  C   C278      1.0  0.01560  0.22457  0.94349  1.0000
  C   C279      1.0  0.15232  0.31589  0.63858  1.0000
  H   H199      1.0  0.03279  0.16589  0.94897  1.0000
  H   H200      1.0  0.17957  0.13346  0.84606  1.0000
  C   C280      1.0  0.12306  0.27097  0.53008  1.0000
  H   H201      1.0  0.14728  0.20450  0.88451  1.0000
  C   C281      1.0  0.02698  0.02892  0.63188  1.0000
  H   H202      1.0  0.06036  0.01761  0.63276  1.0000
  C   C282      1.0  0.18395  0.24454  0.57500  1.0000
  H   H203      1.0  0.14601  0.16926  0.84484  1.0000
  H   H204      1.0  0.14231  0.18624  0.79947  1.0000
  H   H205      1.0  0.17008  0.20847  0.78286  1.0000
  H   H206      1.0  0.20247  0.21278  0.81112  1.0000
  P   P13       1.0  0.18759  0.27618  0.53546  1.0000
  H   H207      1.0  0.09746  0.29023  0.54958  1.0000
  H   H208      1.0  0.15126  0.25449  0.51376  1.0000
  C   C283      1.0  0.19518  0.25917  0.75868  1.0000
  C   C284      1.0  0.20260  0.29973  0.79597  1.0000
  H   H209      1.0  0.19494  0.25908  0.78087  1.0000
  H   H210      1.0  0.16111  0.10036  0.84406  1.0000
  C   C285      1.0  0.20809  0.16260  0.89497  1.0000
  H   H211      1.0  0.11845  0.32100  0.63139  1.0000
  H   H212      1.0  0.03131  0.15226  0.52793  1.0000
  H   H213      1.0  0.17510  0.15850  0.51163  1.0000
  H   H214      1.0  0.19409  0.30070  0.96577  1.0000
  C   C286      1.0  0.00773  0.25790  0.91903  1.0000
  H   H215      1.0  0.18125  0.22137  0.60676  1.0000
  P   P14       1.0  0.19013  0.30357  0.76260  1.0000
  C   C287      1.0  0.23162  0.19383  0.52926  1.0000
  H   H216      1.0  0.01353  0.23879  0.73889  1.0000
  C   C288      1.0  0.17476  0.19159  0.52227  1.0000
  C   C289      1.0  0.00519  0.10079  0.58253  1.0000
  C   C290      1.0  0.03597  0.22245  0.93161  1.0000
  H   H217      1.0  0.21764  0.19901  0.54121  1.0000
  C   C291      1.0  0.16402  0.19564  0.96053  1.0000
  C   C292      1.0  0.11240  0.19020  0.98654  1.0000
  C   C293      1.0  0.10093  0.20934  0.97863  1.0000
  C   C294      1.0  0.20020  0.29941  0.84567  1.0000
  C   C295      1.0  0.22808  0.23833  0.58429  1.0000
  C   C296      1.0  0.22420  0.29191  0.79805  1.0000
  C   C297      1.0  0.14717  0.29549  0.76608  1.0000
  H   H218      1.0  0.22043  0.21595  0.61515  1.0000
  C   C298      1.0  0.03346  0.17652  0.70401  1.0000
  H   H219      1.0  0.00271  0.15392  0.83510  1.0000
  C   C299      1.0  0.18338  0.30243  0.98307  1.0000
  H   H220      1.0  0.00108  0.13750  0.74752  1.0000
  H   H221      1.0  0.13116  0.22811  0.92041  1.0000
  C   C300      1.0  0.14319  0.21546  0.92588  1.0000
  H   H222      1.0  0.06953  0.30570  0.79652  1.0000
  C   C301      1.0  0.02811  0.25576  0.90752  1.0000
  H   H223      1.0  0.21144  0.13033  0.87886  1.0000
  S   S37       1.0  0.19523  0.31145  0.64673  1.0000
  C   C302      1.0  0.11455  0.28797  0.54620  1.0000
  H   H224      1.0  0.14213  0.22303  0.96899  1.0000
  H   H225      1.0  0.17365  0.30809  0.81911  1.0000
  H   H226      1.0  0.12473  0.15892  0.97315  1.0000
  C   C303      1.0  0.15027  0.29811  0.55573  1.0000
  H   H227      1.0  0.16781  0.19282  0.98194  1.0000
  C   C304      1.0  0.17332  0.18214  0.94031  1.0000
  H   H228      1.0  0.00559  0.22195  0.69414  1.0000
  H   H229      1.0  0.07677  0.19982  0.50279  1.0000
  C   C305      1.0  0.06153  0.31113  0.77775  1.0000
  C   C306      1.0  0.24122  0.13951  0.89484  1.0000
  C   C307      1.0  0.02465  0.00907  0.68269  1.0000
  H   H230      1.0  0.23613  0.26704  0.98902  1.0000
  H   H231      1.0  0.11319  0.13118  0.50319  1.0000
  C   C308      1.0  0.19314  0.26826  0.50038  1.0000
  H   H232      1.0  0.99149  0.02002  0.68226  1.0000
  H   H233      1.0  0.01720  0.30680  0.67498  1.0000
  C   C309      1.0  0.23091  0.19545  0.50072  1.0000
  H   H234      1.0  0.05829  0.99998  0.67785  1.0000
  H   H235      1.0  0.99404  0.19171  0.64639  1.0000
  H   H236      1.0  0.99436  0.16052  0.67728  1.0000
  S   S38       1.0  0.24052  0.30073  0.69857  1.0000
  C   C310      1.0  0.99163  0.18619  0.94925  1.0000
  C   C311      1.0  0.00592  0.58614  0.21635  1.0000
  C   C312      1.0  0.99708  0.49956  0.47371  1.0000
  H   H237      1.0  0.99900  0.47856  0.43892  1.0000
  C   C313      1.0  0.19703  0.32329  0.20282  1.0000
  H   H238      1.0  0.02305  0.62233  0.30851  1.0000
  H   H239      1.0  0.16204  0.33279  0.26759  1.0000
  C   C314      1.0  0.16079  0.64137  0.49004  1.0000
  C   C315      1.0  0.99537  0.40047  0.46174  1.0000
  C   C316      1.0  0.10478  0.34977  0.17984  1.0000
  H   H240      1.0  0.15458  0.63536  0.44726  1.0000
  C   C317      1.0  0.17176  0.32965  0.24959  1.0000
  C   C318      1.0  0.02955  0.38174  0.19856  1.0000
  C   C319      1.0  0.00940  0.63394  0.31073  1.0000
  H   H241      1.0  0.99165  0.62692  0.09247  1.0000
  C   C320      1.0  0.01669  0.61454  0.18770  1.0000
  C   C321      1.0  0.22407  0.32707  0.04168  1.0000
  C   C322      1.0  0.20410  0.33525  0.22478  1.0000
  C   C323      1.0  0.99529  0.63815  0.28882  1.0000
  C   C324      1.0  0.00681  0.54094  0.15088  1.0000
  C   C325      1.0  0.10449  0.33929  0.15450  1.0000
  H   H242      1.0  0.01190  0.50639  0.46909  1.0000
  H   H243      1.0  0.99617  0.35826  0.30445  1.0000
  H   H244      1.0  0.03716  0.34571  0.14659  1.0000
  H   H245      1.0  0.00823  0.56988  0.22362  1.0000
  C   C326      1.0  0.02040  0.36901  0.21782  1.0000
  C   C327      1.0  0.11514  0.33969  0.20234  1.0000
  C   C328      1.0  0.19144  0.33848  0.24812  1.0000
  C   C329      1.0  0.01970  0.59349  0.19689  1.0000
  H   H246      1.0  0.19429  0.34633  0.03450  1.0000
  C   C330      1.0  0.20894  0.34442  0.04642  1.0000
  C   C331      1.0  0.99465  0.64072  0.10489  1.0000
  C   C332      1.0  0.01034  0.52454  0.13156  1.0000
  H   H247      1.0  0.04250  0.38316  0.15794  1.0000
  H   H248      1.0  0.00149  0.62869  0.40319  1.0000
  H   H249      1.0  0.02858  0.34555  0.33117  1.0000
  C   C333      1.0  0.22643  0.57122  0.99526  1.0000
  H   H250      1.0  0.19682  0.34794  0.26505  1.0000
  C   C334      1.0  0.00285  0.34193  0.30234  1.0000
  C   C335      1.0  0.02404  0.33892  0.18620  1.0000
  H   H251      1.0  0.20065  0.37251  0.07092  1.0000
  H   H252      1.0  0.02766  0.62013  0.17288  1.0000
  C   C336      1.0  0.21254  0.35938  0.06693  1.0000
  H   H253      1.0  0.09735  0.36587  0.18194  1.0000
  H   H254      1.0  0.21574  0.56144  0.00581  1.0000
  H   H255      1.0  0.01022  0.39175  0.45563  1.0000
  H   H256      1.0  0.23401  0.36865  0.09873  1.0000
  H   H257      1.0  0.02524  0.52273  0.12042  1.0000
  H   H258      1.0  0.03163  0.39827  0.20338  1.0000
  C   C337      1.0  0.03285  0.35187  0.16673  1.0000
  H   H259      1.0  0.01888  0.55193  0.15461  1.0000
  C   C338      1.0  0.03573  0.37319  0.17301  1.0000
  H   H260      1.0  0.03279  0.58293  0.18906  1.0000
  H   H261      1.0  0.07750  0.32658  0.28911  1.0000
  C   C339      1.0  0.00583  0.64461  0.33563  1.0000
  H   H262      1.0  0.21936  0.34206  0.22360  1.0000
  C   C340      1.0  0.02124  0.33469  0.31745  1.0000
  H   H263      1.0  0.11596  0.34830  0.22157  1.0000
  H   H264      1.0  0.00052  0.56990  0.08383  1.0000
  H   H265      1.0  0.09682  0.34720  0.13692  1.0000
  C   C341      1.0  0.15275  0.64677  0.46400  1.0000
  H   H266      1.0  0.01528  0.37562  0.23753  1.0000
  H   H267      1.0  0.99749  0.49801  0.11131  1.0000
  H   H268      1.0  0.01012  0.33819  0.22668  1.0000
  C   C342      1.0  0.99961  0.62828  0.19753  1.0000
  C   C343      1.0  0.99181  0.63942  0.41640  1.0000
  H   H269      1.0  0.99339  0.58620  0.12933  1.0000
  C   C344      1.0  0.99377  0.63954  0.13345  1.0000
  H   H270      1.0  0.99808  0.62967  0.26973  1.0000
  H   H271      1.0  0.99826  0.42561  0.43294  1.0000
  C   C345      1.0  0.01756  0.34773  0.21163  1.0000
  C   C346      1.0  0.99452  0.51068  0.12627  1.0000
  C   C347      1.0  0.99343  0.32811  0.28428  1.0000
  C   C348      1.0  0.23140  0.35731  0.08248  1.0000
  H   H272      1.0  0.01683  0.64147  0.35266  1.0000
  C   C349      1.0  0.21114  0.37038  0.61612  1.0000
  C   C350      1.0  0.21912  0.35352  0.83417  1.0000
  C   C351      1.0  0.03624  0.33606  0.75450  1.0000
  H   H273      1.0  0.22266  0.34822  0.64740  1.0000
  C   C352      1.0  0.03964  0.32461  0.73004  1.0000
  H   H274      1.0  0.03089  0.33018  0.71201  1.0000
  H   H275      1.0  0.15386  0.33245  0.64369  1.0000
  H   H276      1.0  0.12694  0.35520  0.77400  1.0000
  C   C353      1.0  0.20059  0.34813  0.70444  1.0000
  C   C354      1.0  0.20176  0.32437  0.74367  1.0000
  H   H277      1.0  0.16025  0.65171  0.61717  1.0000
  H   H278      1.0  0.02475  0.34992  0.75521  1.0000
  C   C355      1.0  0.22106  0.33228  0.75205  1.0000
  C   C356      1.0  0.22014  0.35535  0.71246  1.0000
  C   C357      1.0  0.03930  0.33232  0.62256  1.0000
  C   C358      1.0  0.23305  0.59526  0.95842  1.0000
  H   H279      1.0  0.22702  0.33614  0.87121  1.0000
  H   H280      1.0  0.01747  0.33015  0.85620  1.0000
  H   H281      1.0  0.00673  0.63718  0.86961  1.0000
  H   H282      1.0  0.23176  0.34920  0.56087  1.0000
  C   C359      1.0  0.23323  0.34370  0.85343  1.0000
  C   C360      1.0  0.23806  0.38983  0.59436  1.0000
  C   C361      1.0  0.99813  0.63968  0.85036  1.0000
  C   C362      1.0  0.21642  0.32267  0.57687  1.0000
  C   C363      1.0  0.04729  0.32941  0.77828  1.0000
  H   H283      1.0  0.22340  0.34079  0.51235  1.0000
  C   C364      1.0  0.22288  0.33565  0.55595  1.0000
  H   H284      1.0  0.19284  0.35385  0.68565  1.0000
  H   H285      1.0  0.19466  0.36664  0.61796  1.0000
  C   C365      1.0  0.21814  0.33094  0.52866  1.0000
  C   C366      1.0  0.21671  0.38528  0.59692  1.0000
  H   H286      1.0  0.03476  0.34190  0.60476  1.0000
  H   H287      1.0  0.17640  0.32718  0.71312  1.0000
  H   H288      1.0  0.22935  0.32648  0.77024  1.0000
  H   H289      1.0  0.20320  0.58143  0.96427  1.0000
  H   H290      1.0  0.04433  0.33803  0.79739  1.0000
  H   H291      1.0  0.99774  0.61474  0.76743  1.0000
  H   H292      1.0  0.16562  0.34484  0.76999  1.0000
  H   H293      1.0  0.20201  0.35352  0.83700  1.0000
  C   C367      1.0  0.23027  0.34756  0.73636  1.0000
  C   C368      1.0  0.22708  0.36332  0.81126  1.0000
  H   H294      1.0  0.16454  0.65150  0.53162  1.0000
  H   H295      1.0  0.20448  0.39328  0.58397  1.0000
  C   C369      1.0  0.23372  0.33815  0.94571  1.0000
  C   C370      1.0  0.19138  0.33282  0.72003  1.0000
  H   H296      1.0  0.21615  0.37100  0.79635  1.0000
  C   C371      1.0  0.02361  0.32518  0.63952  1.0000
  H   H297      1.0  0.22008  0.32610  0.59804  1.0000
  C   C372      1.0  0.21935  0.58250  0.97189  1.0000
  C   C373      1.0  0.22690  0.35998  0.63272  1.0000
  C   C374      1.0  0.15450  0.33261  0.76932  1.0000
  C   C375      1.0  0.99787  0.32448  0.82075  1.0000
  H   H298      1.0  0.22604  0.35055  0.93285  1.0000
  C   C376      1.0  0.13261  0.33855  0.77164  1.0000
  H   H299      1.0  0.22771  0.36661  0.69986  1.0000
  H   H300      1.0  0.22750  0.60412  0.94039  1.0000
  H   H301      1.0  0.16893  0.62573  0.49350  1.0000
  C   C377      1.0  0.22328  0.33148  0.96894  1.0000
  H   H302      1.0  0.00454  0.58278  0.73840  1.0000
  H   H303      1.0  0.20762  0.33901  0.97395  1.0000
  H   H304      1.0  0.99959  0.63044  0.92390  1.0000
  H   H305      1.0  0.00691  0.32944  0.63499  1.0000
  C   C378      1.0  0.06088  0.32693  0.62843  1.0000
  H   H306      1.0  0.07313  0.33198  0.61499  1.0000
  H   H307      1.0  0.10108  0.32765  0.77280  1.0000
  H   H308      1.0  0.99307  0.49150  0.83857  1.0000
  C   C379      1.0  0.11802  0.32302  0.77099  1.0000
  Fe  Fe19      1.0  0.03740  0.78400  0.15067  1.0000
  S   S39       1.0  0.07067  0.79528  0.15043  1.0000
  S   S40       1.0  0.02940  0.74995  0.15236  1.0000
  Fe  Fe20      1.0  0.22081  0.75579  0.12486  1.0000
  S   S41       1.0  0.20785  0.72437  0.11548  1.0000
  H   H309      1.0  0.22177  0.70068  0.29468  1.0000
  Fe  Fe21      1.0  0.20960  0.77316  0.06774  1.0000
  S   S42       1.0  0.19579  0.74318  0.05419  1.0000
  S   S43       1.0  0.01816  0.73381  0.39844  1.0000
  Fe  Fe22      1.0  0.18046  0.74422  0.09583  1.0000
  S   S44       1.0  0.14663  0.73471  0.10013  1.0000
  Fe  Fe23      1.0  0.22438  0.72616  0.07507  1.0000
  S   S45       1.0  0.19228  0.77561  0.10810  1.0000
  C   C380      1.0  0.01799  0.66829  0.20420  1.0000
  Fe  Fe24      1.0  0.04363  0.73895  0.36770  1.0000
  S   S46       1.0  0.05733  0.70487  0.36741  1.0000
  C   C381      1.0  0.00265  0.67755  0.10842  1.0000
  Fe  Fe25      1.0  0.04287  0.74155  0.42968  1.0000
  S   S47       1.0  0.05669  0.70775  0.43490  1.0000
  S   S48       1.0  0.03588  0.76671  0.46224  1.0000
  Fe  Fe26      1.0  0.07914  0.71481  0.40095  1.0000
  S   S49       1.0  0.11357  0.70089  0.40495  1.0000
  Fe  Fe27      1.0  0.03378  0.70036  0.40125  1.0000
  H   H310      1.0  0.09840  0.73200  0.44673  1.0000
  S   S50       1.0  0.06729  0.74921  0.39885  1.0000
  H   H311      1.0  0.15126  0.74919  0.03139  1.0000
  Fe  Fe28      1.0  0.00463  0.75952  0.12031  1.0000
  C   C382      1.0  0.23798  0.76965  0.21901  1.0000
  Fe  Fe29      1.0  0.21505  0.75242  0.35241  1.0000
  S   S51       1.0  0.19094  0.78041  0.34873  1.0000
  S   S52       1.0  0.20387  0.71949  0.35710  1.0000
  Fe  Fe30      1.0  0.21128  0.78976  0.31383  1.0000
  S   S53       1.0  0.19599  0.79923  0.27302  1.0000
  Fe  Fe31      1.0  0.21340  0.79649  0.37653  1.0000
  S   S54       1.0  0.20192  0.81774  0.41191  1.0000
  C   C383      1.0  0.15093  0.75879  0.01307  1.0000
  C   C384      1.0  0.00188  0.67639  0.13701  1.0000
  C   C385      1.0  0.02881  0.84849  0.05041  1.0000
  C   C386      1.0  0.13126  0.82632  0.41080  1.0000
  C   C387      1.0  0.10770  0.70124  0.00098  1.0000
  C   C388      1.0  0.03357  0.67997  0.24695  1.0000
  C   C389      1.0  0.01776  0.76592  0.25418  1.0000
  C   C390      1.0  0.13686  0.70724  0.38766  1.0000
  C   C391      1.0  0.15290  0.69069  0.38365  1.0000
  C   C392      1.0  0.17284  0.69477  0.37320  1.0000
  C   C393      1.0  0.17738  0.71558  0.36715  1.0000
  C   C394      1.0  0.16120  0.73230  0.37053  1.0000
  C   C395      1.0  0.14088  0.72812  0.38060  1.0000
  H   H312      1.0  0.15002  0.67456  0.38908  1.0000
  H   H313      1.0  0.18510  0.68176  0.37070  1.0000
  H   H314      1.0  0.16439  0.74844  0.36593  1.0000
  H   H315      1.0  0.12868  0.74108  0.38387  1.0000
  C   C396      1.0  0.22626  0.77010  0.19442  1.0000
  H   H316      1.0  0.01609  0.77815  0.23874  1.0000
  C   C397      1.0  0.22876  0.77831  0.24323  1.0000
  C   C398      1.0  0.20771  0.78760  0.24303  1.0000
  C   C399      1.0  0.19593  0.78799  0.21841  1.0000
  C   C400      1.0  0.20511  0.77911  0.19419  1.0000
  C   C401      1.0  0.99904  0.65973  0.09236  1.0000
  C   C402      1.0  0.04830  0.82428  0.47134  1.0000
  H   H317      1.0  0.17964  0.79515  0.21809  1.0000
  H   H318      1.0  0.19594  0.77961  0.17531  1.0000
  S   S55       1.0  0.99726  0.74082  0.21798  1.0000
  H   H319      1.0  0.02680  0.72593  0.48487  1.0000
  C   C403      1.0  0.21246  0.79199  0.45732  1.0000
  C   C404      1.0  0.20901  0.81264  0.44656  1.0000
  S   S56       1.0  0.23938  0.75619  0.08563  1.0000
  C   C405      1.0  0.99810  0.88756  0.32539  1.0000
  C   C406      1.0  0.06783  0.81186  0.47140  1.0000
  H   H320      1.0  0.21089  0.77846  0.44405  1.0000
  C   C407      1.0  0.04129  0.83511  0.09458  1.0000
  H   H321      1.0  0.04525  0.83476  0.01534  1.0000
  C   C408      1.0  0.01259  0.73026  0.26937  1.0000
  C   C409      1.0  0.02202  0.73456  0.29486  1.0000
  C   C410      1.0  0.02884  0.75478  0.30018  1.0000
  C   C411      1.0  0.01032  0.74598  0.24907  1.0000
  H   H322      1.0  0.02327  0.72257  0.31070  1.0000
  H   H323      1.0  0.06089  0.77042  0.19794  1.0000
  H   H324      1.0  0.13153  0.69726  0.47706  1.0000
  C   C412      1.0  0.05205  0.68403  0.20426  1.0000
  C   C413      1.0  0.20424  0.80641  0.00776  1.0000
  C   C414      1.0  0.03586  0.67447  0.19010  1.0000
  C   C415      1.0  0.09210  0.77775  0.13850  1.0000
  C   C416      1.0  0.08876  0.75729  0.12910  1.0000
  C   C417      1.0  0.10589  0.74397  0.11852  1.0000
  C   C418      1.0  0.12637  0.75111  0.11671  1.0000
  C   C419      1.0  0.12995  0.77126  0.12714  1.0000
  C   C420      1.0  0.11283  0.78456  0.13798  1.0000
  H   H325      1.0  0.07295  0.75179  0.12959  1.0000
  H   H326      1.0  0.10317  0.72818  0.11121  1.0000
  H   H327      1.0  0.14579  0.77670  0.12650  1.0000
  H   H328      1.0  0.11558  0.80030  0.14554  1.0000
  C   C421      1.0  0.04692  0.84485  0.48250  1.0000
  H   H329      1.0  0.20936  0.68084  0.01555  1.0000
  S   S57       1.0  0.23075  0.80969  0.34115  1.0000
  C   C422      1.0  0.11023  0.82832  0.03020  1.0000
  H   H330      1.0  0.99764  0.77966  0.06536  1.0000
  C   C423      1.0  0.19341  0.68732  0.02106  1.0000
  C   C424      1.0  0.14223  0.66690  0.45952  1.0000
  H   H331      1.0  0.01177  0.87914  0.33539  1.0000
  C   C425      1.0  0.15432  0.78036  0.01558  1.0000
  H   H332      1.0  0.16112  0.69391  0.07650  1.0000
  C   C426      1.0  0.07307  0.79879  0.00057  1.0000
  C   C427      1.0  0.19764  0.82700  0.99886  1.0000
  C   C428      1.0  0.11972  0.82372  0.43477  1.0000
  Fe  Fe32      1.0  0.00445  0.76207  0.18265  1.0000
  S   S58       1.0  0.03859  0.76194  0.33252  1.0000
  S   S59       1.0  0.01416  0.79568  0.18365  1.0000
  S   S60       1.0  0.23431  0.76068  0.31595  1.0000
  H   H333      1.0  0.03931  0.79459  0.00450  1.0000
  H   H334      1.0  0.10416  0.72692  0.05302  1.0000
  S   S61       1.0  0.01783  0.66937  0.39963  1.0000
  C   C429      1.0  0.12566  0.80671  0.45249  1.0000
  S   S62       1.0  0.23917  0.76034  0.16431  1.0000
  H   H335      1.0  0.10635  0.83512  0.43945  1.0000
  H   H336      1.0  0.06855  0.79598  0.46258  1.0000
  H   H337      1.0  0.01829  0.85935  0.03835  1.0000
  H   H338      1.0  0.04274  0.78106  0.06375  1.0000
  C   C430      1.0  0.07201  0.76512  0.21406  1.0000
  S   S63       1.0  0.23667  0.76789  0.38221  1.0000
  C   C431      1.0  0.21866  0.73133  0.43823  1.0000
  H   H339      1.0  0.21938  0.67956  0.45861  1.0000
  C   C432      1.0  0.15463  0.79492  0.42174  1.0000
  H   H340      1.0  0.19715  0.67817  0.06334  1.0000
  H   H341      1.0  0.05391  0.71437  0.99821  1.0000
  C   C433      1.0  0.12987  0.83612  0.03679  1.0000
  C   C434      1.0  0.10519  0.76248  0.46332  1.0000
  C   C435      1.0  0.08581  0.69939  0.00433  1.0000
  H   H342      1.0  0.10994  0.66637  0.26548  1.0000
  H   H343      1.0  0.00644  0.71498  0.26571  1.0000
  H   H344      1.0  0.06334  0.69433  0.24362  1.0000
  H   H345      1.0  0.15810  0.78689  0.03542  1.0000
  H   H346      1.0  0.03271  0.68204  0.26901  1.0000
  C   C436      1.0  0.04403  0.83439  0.03740  1.0000
  H   H347      1.0  0.23407  0.82914  0.12798  1.0000
  H   H348      1.0  0.13592  0.67103  0.43935  1.0000
  H   H349      1.0  0.14828  0.77924  0.45931  1.0000
  C   C437      1.0  0.99797  0.65720  0.14976  1.0000
  H   H350      1.0  0.03749  0.67191  0.16827  1.0000
  C   C438      1.0  0.02736  0.84876  0.07900  1.0000
  H   H351      1.0  0.23092  0.81578  0.20103  1.0000
  C   C439      1.0  0.19719  0.73447  0.43027  1.0000
  C   C440      1.0  0.07088  0.71582  0.99579  1.0000
  H   H352      1.0  0.04040  0.83536  0.11679  1.0000
  H   H353      1.0  0.10077  0.83547  0.01350  1.0000
  C   C441      1.0  0.14327  0.79235  0.44582  1.0000
  H   H354      1.0  0.99944  0.66069  0.07020  1.0000
  H   H355      1.0  0.15741  0.83329  0.06366  1.0000
  H   H356      1.0  0.10928  0.79075  0.08002  1.0000
  H   H357      1.0  0.23958  0.85715  0.09382  1.0000
  H   H358      1.0  0.16694  0.72079  0.42795  1.0000
  C   C442      1.0  0.16628  0.69470  0.05542  1.0000
  H   H359      1.0  0.06706  0.81040  0.09403  1.0000
  C   C443      1.0  0.22675  0.71179  0.44945  1.0000
  C   C444      1.0  0.19186  0.69832  0.44323  1.0000
  C   C445      1.0  0.09783  0.74221  0.46471  1.0000
  H   H360      1.0  0.18149  0.68550  0.44464  1.0000
  H   H361      1.0  0.22877  0.74421  0.43578  1.0000
  H   H362      1.0  0.10726  0.76354  0.03686  1.0000
  S   S64       1.0  0.21054  0.80331  0.04298  1.0000
  C   C446      1.0  0.21067  0.83016  0.46397  1.0000
  C   C447      1.0  0.08877  0.73548  0.48879  1.0000
  C   C448      1.0  0.15300  0.70549  0.03598  1.0000
  H   H363      1.0  0.16844  0.78411  0.41682  1.0000
  C   C449      1.0  0.13449  0.81118  0.07426  1.0000
  C   C450      1.0  0.02692  0.77030  0.27966  1.0000
  H   H364      1.0  0.13782  0.71307  0.04251  1.0000
  H   H365      1.0  0.01559  0.85964  0.08918  1.0000
  H   H366      1.0  0.19598  0.84001  0.01351  1.0000
  C   C451      1.0  0.18368  0.71819  0.43353  1.0000
  H   H367      1.0  0.20784  0.84614  0.45595  1.0000
  H   H368      1.0  0.19101  0.74950  0.42140  1.0000
  H   H369      1.0  0.11068  0.76768  0.44376  1.0000
  H   H370      1.0  0.05313  0.74027  0.22750  1.0000
  C   C452      1.0  0.14870  0.81194  0.40431  1.0000
  H   H371      1.0  0.15801  0.81424  0.38612  1.0000
  C   C453      1.0  0.09316  0.77882  0.34471  1.0000
  C   C454      1.0  0.10904  0.79225  0.35144  1.0000
  C   C455      1.0  0.12814  0.79085  0.33679  1.0000
  C   C456      1.0  0.13151  0.77582  0.31569  1.0000
  C   C457      1.0  0.11598  0.76162  0.30961  1.0000
  C   C458      1.0  0.09657  0.76363  0.32382  1.0000
  P   P15       1.0  0.11972  0.74228  0.28218  1.0000
  C   C459      1.0  0.10101  0.75122  0.25553  1.0000
  C   C460      1.0  0.14716  0.74000  0.27086  1.0000
  C   C461      1.0  0.15238  0.74133  0.24301  1.0000
  C   C462      1.0  0.17379  0.74070  0.23507  1.0000
  C   C463      1.0  0.19008  0.73840  0.25478  1.0000
  C   C464      1.0  0.18501  0.73615  0.28236  1.0000
  C   C465      1.0  0.16367  0.73661  0.29032  1.0000
  C   C466      1.0  0.08198  0.74131  0.25159  1.0000
  C   C467      1.0  0.10485  0.76883  0.23936  1.0000
  C   C468      1.0  0.11473  0.71578  0.29288  1.0000
  C   C469      1.0  0.11150  0.71103  0.32052  1.0000
  C   C470      1.0  0.10745  0.69039  0.32812  1.0000
  C   C471      1.0  0.10675  0.67434  0.30832  1.0000
  C   C472      1.0  0.11030  0.67885  0.28082  1.0000
  C   C473      1.0  0.11440  0.69947  0.27313  1.0000
  H   H372      1.0  0.07805  0.78028  0.35543  1.0000
  H   H373      1.0  0.10636  0.80394  0.36769  1.0000
  H   H374      1.0  0.14029  0.80159  0.34145  1.0000
  H   H375      1.0  0.14615  0.77562  0.30410  1.0000
  H   H376      1.0  0.08399  0.75349  0.31868  1.0000
  H   H377      1.0  0.14009  0.74304  0.22735  1.0000
  H   H378      1.0  0.17777  0.74248  0.21368  1.0000
  H   H379      1.0  0.20660  0.73872  0.24869  1.0000
  H   H380      1.0  0.19755  0.73452  0.29775  1.0000
  H   H381      1.0  0.16002  0.73496  0.31182  1.0000
  H   H382      1.0  0.07790  0.72860  0.26487  1.0000
  H   H383      1.0  0.11898  0.77728  0.24278  1.0000
  H   H384      1.0  0.11213  0.72308  0.33631  1.0000
  H   H385      1.0  0.10485  0.68684  0.34948  1.0000
  H   H386      1.0  0.07062  0.71713  0.07391  1.0000
  C   C474      1.0  0.01717  0.67081  0.23279  1.0000
  H   H387      1.0  0.11722  0.70278  0.25177  1.0000
  C   C475      1.0  0.06771  0.74806  0.23066  1.0000
  C   C476      1.0  0.14207  0.82745  0.05870  1.0000
  H   H388      1.0  0.04029  0.74444  0.07981  1.0000
  C   C477      1.0  0.11499  0.80319  0.06753  1.0000
  C   C478      1.0  0.10300  0.81129  0.04496  1.0000
  H   H389      1.0  0.99928  0.71607  0.03301  1.0000
  P   P16       1.0  0.07735  0.80173  0.03692  1.0000
  H   H390      1.0  0.12690  0.83965  0.39739  1.0000
  C   C479      1.0  0.07546  0.77522  0.04979  1.0000
  C   C480      1.0  0.05641  0.76953  0.06148  1.0000
  C   C481      1.0  0.05478  0.74866  0.07024  1.0000
  C   C482      1.0  0.07189  0.73325  0.06690  1.0000
  C   C483      1.0  0.09078  0.73876  0.05501  1.0000
  C   C484      1.0  0.09256  0.75961  0.04628  1.0000
  C   C485      1.0  0.23805  0.70427  0.29069  1.0000
  C   C486      1.0  0.09049  0.77558  0.21849  1.0000
  H   H391      1.0  0.14384  0.80465  0.09146  1.0000
  C   C487      1.0  0.21335  0.69506  0.45103  1.0000
  C   C488      1.0  0.99639  0.66079  0.41896  1.0000
  C   C489      1.0  0.05763  0.82020  0.05296  1.0000
  H   H392      1.0  0.09363  0.78894  0.20565  1.0000
  C   C490      1.0  0.08610  0.81980  0.48295  1.0000
  H   H393      1.0  0.03231  0.78591  0.28364  1.0000
  S   S65       1.0  0.01464  0.79264  0.11606  1.0000
  C   C491      1.0  0.05639  0.82092  0.08163  1.0000
  C   C492      1.0  0.05087  0.68685  0.23266  1.0000
  C   C493      1.0  0.99876  0.73310  0.02983  1.0000
  C   C494      1.0  0.18653  0.68577  0.04803  1.0000
  H   H394      1.0  0.21150  0.77370  0.99515  1.0000
  H   H395      1.0  0.03173  0.85440  0.48258  1.0000
  P   P17       1.0  0.11107  0.80335  0.48374  1.0000
  H   H396      1.0  0.06554  0.68927  0.19320  1.0000
  C   C495      1.0  0.99642  0.77705  0.02145  1.0000
  H   H397      1.0  0.23809  0.77834  0.26189  1.0000
  H   H398      1.0  0.08036  0.68513  0.01325  1.0000
  C   C496      1.0  0.15971  0.70713  0.00875  1.0000
  C   C497      1.0  0.99768  0.76892  0.04812  1.0000
  C   C498      1.0  0.99585  0.88633  0.29694  1.0000
  H   H399      1.0  0.00776  0.87704  0.28485  1.0000
  C   C499      1.0  0.99834  0.74699  0.05245  1.0000
  H   H400      1.0  0.11901  0.68816  0.00710  1.0000
  H   H401      1.0  0.15628  0.81001  0.99441  1.0000
  C   C500      1.0  0.99652  0.76326  0.99881  1.0000
  H   H402      1.0  0.03425  0.81773  0.46277  1.0000
  S   S66       1.0  0.99759  0.73682  0.08591  1.0000
  C   C501      1.0  0.99808  0.74121  0.00301  1.0000
  C   C502      1.0  0.18009  0.69788  0.00149  1.0000
  H   H403      1.0  0.13565  0.84890  0.02493  1.0000
  C   C503      1.0  0.13971  0.68168  0.48100  1.0000
  H   H404      1.0  0.99535  0.79406  0.01851  1.0000
  H   H405      1.0  0.23392  0.70507  0.24685  1.0000
  P   P18       1.0  0.99683  0.65575  0.18666  1.0000
  H   H406      1.0  0.00591  0.69234  0.09869  1.0000
  H   H407      1.0  0.00433  0.69047  0.14915  1.0000
  H   H408      1.0  0.00373  0.66584  0.24411  1.0000
  C   C504      1.0  0.15346  0.79334  0.99244  1.0000
  H   H409      1.0  0.19474  0.73859  0.48819  1.0000
  H   H410      1.0  0.23467  0.84040  0.24014  1.0000
  C   C505      1.0  0.21776  0.78903  0.48538  1.0000
  H   H411      1.0  0.08204  0.72023  0.48925  1.0000
  H   H412      1.0  0.15669  0.81219  0.49088  1.0000
  H   H413      1.0  0.10356  0.65840  0.31439  1.0000
  C   C506      1.0  0.10439  0.77598  0.48649  1.0000
  C   C507      1.0  0.21668  0.82725  0.49146  1.0000
  Fe  Fe33      1.0  0.04544  0.79519  0.64550  1.0000
  S   S67       1.0  0.07630  0.81121  0.64417  1.0000
  S   S68       1.0  0.04689  0.75956  0.64623  1.0000
  Fe  Fe34      1.0  0.22435  0.77552  0.63103  1.0000
  S   S69       1.0  0.21088  0.74366  0.62875  1.0000
  H   H414      1.0  0.02165  0.83538  0.97006  1.0000
  Fe  Fe35      1.0  0.22189  0.78111  0.56863  1.0000
  S   S70       1.0  0.20853  0.74965  0.56172  1.0000
  C   C508      1.0  0.14743  0.67626  0.50735  1.0000
  Fe  Fe36      1.0  0.18782  0.75924  0.59806  1.0000
  S   S71       1.0  0.15341  0.75145  0.59542  1.0000
  C   C509      1.0  0.18006  0.73890  0.49967  1.0000
  S   S72       1.0  0.19955  0.79181  0.60292  1.0000
  C   C510      1.0  0.00102  0.75658  0.80017  1.0000
  Fe  Fe37      1.0  0.00673  0.74635  0.86981  1.0000
  S   S73       1.0  0.03171  0.71860  0.87089  1.0000
  C   C511      1.0  0.15816  0.65604  0.51168  1.0000
  Fe  Fe38      1.0  0.00679  0.75192  0.93206  1.0000
  S   S74       1.0  0.03164  0.72463  0.93815  1.0000
  C   C512      1.0  0.00748  0.84644  0.97144  1.0000
  Fe  Fe39      1.0  0.04856  0.73776  0.90222  1.0000
  S   S75       1.0  0.08253  0.74724  0.90790  1.0000
  Fe  Fe40      1.0  0.01255  0.70792  0.90663  1.0000
  S   S76       1.0  0.00634  0.67306  0.90955  1.0000
  S   S77       1.0  0.02472  0.76630  0.89845  1.0000
  C   C513      1.0  0.00253  0.76528  0.75162  1.0000
  C   C514      1.0  0.15294  0.72021  0.52250  1.0000
  S   S78       1.0  0.21764  0.81581  0.84492  1.0000
  Fe  Fe41      1.0  0.19218  0.76192  0.84785  1.0000
  S   S79       1.0  0.17312  0.79354  0.84873  1.0000
  S   S80       1.0  0.17211  0.73354  0.84710  1.0000
  Fe  Fe42      1.0  0.19481  0.80236  0.81506  1.0000
  S   S81       1.0  0.18247  0.81609  0.77457  1.0000
  Fe  Fe43      1.0  0.19840  0.80254  0.87854  1.0000
  S   S82       1.0  0.18985  0.82167  0.91711  1.0000
  S   S83       1.0  0.21256  0.77013  0.81233  1.0000
  S   S84       1.0  0.21692  0.77051  0.87901  1.0000
  H   H415      1.0  0.03351  0.78941  0.95495  1.0000
  C   C515      1.0  0.12912  0.83137  0.74616  1.0000
  H   H416      1.0  0.10012  0.79424  0.94018  1.0000
  C   C516      1.0  0.03238  0.77314  0.51735  1.0000
  H   H417      1.0  0.13902  0.66315  0.57621  1.0000
  C   C517      1.0  0.10619  0.74396  0.88815  1.0000
  C   C518      1.0  0.10985  0.72805  0.86811  1.0000
  C   C519      1.0  0.12988  0.72529  0.85488  1.0000
  C   C520      1.0  0.14625  0.73846  0.86152  1.0000
  C   C521      1.0  0.14221  0.75466  0.88097  1.0000
  C   C522      1.0  0.12232  0.75741  0.89404  1.0000
  H   H418      1.0  0.09755  0.71755  0.86337  1.0000
  H   H419      1.0  0.13285  0.71266  0.83993  1.0000
  H   H420      1.0  0.15469  0.76467  0.88670  1.0000
  H   H421      1.0  0.11954  0.76993  0.90915  1.0000
  C   C523      1.0  0.22225  0.79425  0.69925  1.0000
  C   C524      1.0  0.05259  0.79536  0.99058  1.0000
  C   C525      1.0  0.21946  0.80060  0.74858  1.0000
  C   C526      1.0  0.19777  0.80737  0.74573  1.0000
  C   C527      1.0  0.18832  0.80749  0.71951  1.0000
  C   C528      1.0  0.20043  0.80060  0.69638  1.0000
  C   C529      1.0  0.14964  0.78467  0.96664  1.0000
  H   H422      1.0  0.22701  0.80070  0.76857  1.0000
  H   H423      1.0  0.17158  0.81284  0.71710  1.0000
  H   H424      1.0  0.19301  0.80076  0.67630  1.0000
  C   C530      1.0  0.06516  0.85306  0.49355  1.0000
  H   H425      1.0  0.09360  0.77903  0.52861  1.0000
  C   C531      1.0  0.19304  0.83100  0.97119  1.0000
  C   C532      1.0  0.19554  0.81465  0.95166  1.0000
  C   C533      1.0  0.20225  0.79385  0.96030  1.0000
  H   H426      1.0  0.22752  0.74256  0.76216  1.0000
  H   H427      1.0  0.22061  0.77313  0.49355  1.0000
  H   H428      1.0  0.18782  0.84705  0.96479  1.0000
  H   H429      1.0  0.10036  0.81223  0.54149  1.0000
  C   C534      1.0  0.99763  0.65943  0.83736  1.0000
  C   C535      1.0  0.02346  0.73428  0.76937  1.0000
  H   H430      1.0  0.01635  0.69539  0.73157  1.0000
  C   C536      1.0  0.11908  0.84001  0.72262  1.0000
  C   C537      1.0  0.05517  0.77734  0.78690  1.0000
  H   H431      1.0  0.17859  0.72893  0.94742  1.0000
  H   H432      1.0  0.05724  0.70883  0.56976  1.0000
  C   C538      1.0  0.00624  0.83955  0.89252  1.0000
  C   C539      1.0  0.02255  0.73163  0.52828  1.0000
  H   H433      1.0  0.17737  0.77307  0.50450  1.0000
  H   H434      1.0  0.12111  0.85630  0.71693  1.0000
  C   C540      1.0  0.09791  0.79539  0.62962  1.0000
  C   C541      1.0  0.09420  0.77894  0.61127  1.0000
  C   C542      1.0  0.11145  0.76622  0.60009  1.0000
  C   C543      1.0  0.13255  0.76957  0.60744  1.0000
  C   C544      1.0  0.13636  0.78632  0.62531  1.0000
  C   C545      1.0  0.11904  0.79929  0.63626  1.0000
  H   H435      1.0  0.07800  0.77608  0.60559  1.0000
  H   H436      1.0  0.10838  0.75362  0.58591  1.0000
  H   H437      1.0  0.15257  0.78898  0.63120  1.0000
  H   H438      1.0  0.12204  0.81206  0.65033  1.0000
  H   H439      1.0  0.06550  0.77909  0.74522  1.0000
  C   C546      1.0  0.17149  0.71985  0.50650  1.0000
  C   C547      1.0  0.08473  0.84062  0.49370  1.0000
  H   H440      1.0  0.16568  0.69055  0.87739  1.0000
  S   S85       1.0  0.01580  0.73918  0.58293  1.0000
  C   C548      1.0  0.12686  0.81076  0.51301  1.0000
  Fe  Fe44      1.0  0.23273  0.73702  0.59295  1.0000
  H   H441      1.0  0.19306  0.66924  0.62933  1.0000
  C   C549      1.0  0.14263  0.69070  0.90990  1.0000
  H   H442      1.0  0.00589  0.67214  0.84668  1.0000
  C   C550      1.0  0.08291  0.76973  0.82095  1.0000
  C   C551      1.0  0.09028  0.79792  0.98229  1.0000
  S   S86       1.0  0.02698  0.74080  0.71446  1.0000
  C   C552      1.0  0.14980  0.71235  0.94980  1.0000
  H   H443      1.0  0.12904  0.74074  0.54391  1.0000
  H   H444      1.0  0.17805  0.81931  0.53171  1.0000
  H   H445      1.0  0.13226  0.68067  0.89886  1.0000
  C   C553      1.0  0.16541  0.66424  0.60434  1.0000
  C   C554      1.0  0.08681  0.79503  0.95424  1.0000
  H   H446      1.0  0.03608  0.78927  0.51316  1.0000
  H   H447      1.0  0.01854  0.71560  0.53241  1.0000
  H   H448      1.0  0.10646  0.79894  0.98958  1.0000
  S   S87       1.0  0.01940  0.79869  0.61343  1.0000
  S   S88       1.0  0.23020  0.80468  0.53641  1.0000
  H   H449      1.0  0.22286  0.68214  0.54759  1.0000
  C   C555      1.0  0.23507  0.67907  0.53215  1.0000
  C   C556      1.0  0.04922  0.79237  0.96253  1.0000
  H   H450      1.0  0.06578  0.68951  0.52623  1.0000
  S   S89       1.0  0.02298  0.79987  0.68137  1.0000
  H   H451      1.0  0.02099  0.87093  0.94823  1.0000
  C   C557      1.0  0.00053  0.82345  0.90986  1.0000
  H   H452      1.0  0.13912  0.84084  0.75870  1.0000
  H   H453      1.0  0.02088  0.72874  0.81271  1.0000
  C   C558      1.0  0.14737  0.74986  0.98719  1.0000
  H   H454      1.0  0.10457  0.74975  0.96983  1.0000
  H   H455      1.0  0.07999  0.74382  0.53027  1.0000
  H   H456      1.0  0.19155  0.72911  0.78139  1.0000
  C   C559      1.0  0.19034  0.69048  0.59491  1.0000
  C   C560      1.0  0.17837  0.69707  0.57175  1.0000
  C   C561      1.0  0.15983  0.68721  0.56462  1.0000
  C   C562      1.0  0.02731  0.73742  0.50141  1.0000
  P   P19       1.0  0.14398  0.69554  0.53488  1.0000
  C   C563      1.0  0.11641  0.69926  0.54586  1.0000
  H   H457      1.0  0.02288  0.84048  0.88728  1.0000
  C   C564      1.0  0.14878  0.81354  0.51048  1.0000
  Fe  Fe45      1.0  0.99695  0.80026  0.64925  1.0000
  C   C565      1.0  0.17436  0.70996  0.91147  1.0000
  H   H458      1.0  0.17977  0.70485  0.50025  1.0000
  P   P20       1.0  0.14293  0.72198  0.98383  1.0000
  H   H459      1.0  0.23089  0.74005  0.71161  1.0000
  C   C566      1.0  0.09225  0.77143  0.77277  1.0000
  C   C567      1.0  0.07374  0.70586  0.56330  1.0000
  C   C568      1.0  0.09018  0.71304  0.57944  1.0000
  C   C569      1.0  0.11143  0.70961  0.57091  1.0000
  H   H460      1.0  0.20401  0.78104  0.94538  1.0000
  C   C570      1.0  0.23686  0.69362  0.51100  1.0000
  C   C571      1.0  0.09982  0.69167  0.53005  1.0000
  C   C572      1.0  0.15181  0.75876  0.52461  1.0000
  C   C573      1.0  0.16105  0.81771  0.53366  1.0000
  C   C574      1.0  0.23166  0.79441  0.72542  1.0000
  H   H461      1.0  0.20448  0.69835  0.60044  1.0000
  H   H462      1.0  0.18346  0.71017  0.55999  1.0000
  H   H463      1.0  0.13458  0.80387  0.77176  1.0000
  C   C575      1.0  0.09839  0.76881  0.80041  1.0000
  C   C576      1.0  0.00706  0.86640  0.95899  1.0000
  H   H464      1.0  0.99519  0.86674  0.86844  1.0000
  C   C577      1.0  0.09540  0.76890  0.51073  1.0000
  H   H465      1.0  0.12202  0.69438  0.94463  1.0000
  C   C578      1.0  0.08759  0.74879  0.51182  1.0000
  H   H466      1.0  0.01267  0.81192  0.91809  1.0000
  H   H467      1.0  0.09849  0.83427  0.68822  1.0000
  H   H468      1.0  0.08639  0.72155  0.59841  1.0000
  H   H469      1.0  0.12398  0.71543  0.58361  1.0000
  C   C579      1.0  0.01701  0.74747  0.74726  1.0000
  Fe  Fe46      1.0  0.01923  0.76319  0.61698  1.0000
  H   H470      1.0  0.03480  0.72057  0.76614  1.0000
  C   C580      1.0  0.01562  0.73890  0.79580  1.0000
  C   C581      1.0  0.16852  0.71810  0.93728  1.0000
  C   C582      1.0  0.09965  0.73587  0.98022  1.0000
  C   C583      1.0  0.07858  0.69504  0.53874  1.0000
  C   C584      1.0  0.17027  0.75837  0.50882  1.0000
  H   H471      1.0  0.10306  0.68334  0.51089  1.0000
  C   C585      1.0  0.02795  0.76727  0.54425  1.0000
  C   C586      1.0  0.11732  0.81344  0.53892  1.0000
  C   C587      1.0  0.22027  0.80677  0.50240  1.0000
  H   H472      1.0  0.18607  0.69907  0.98096  1.0000
  C   C588      1.0  0.99978  0.69173  0.73114  1.0000
  H   H473      1.0  0.09423  0.79713  0.70055  1.0000
  H   H474      1.0  0.15774  0.71404  0.79325  1.0000
  C   C589      1.0  0.99431  0.76966  0.77799  1.0000
  C   C590      1.0  0.06627  0.79243  0.94434  1.0000
  H   H475      1.0  0.03847  0.78081  0.78168  1.0000
  H   H476      1.0  0.99803  0.73041  0.98567  1.0000
  H   H477      1.0  0.04927  0.77422  0.83006  1.0000
  H   H478      1.0  0.02837  0.77881  0.56065  1.0000
  C   C591      1.0  0.13679  0.69870  0.93582  1.0000
  H   H479      1.0  0.14483  0.77351  0.53331  1.0000
  H   H480      1.0  0.18849  0.71487  0.90152  1.0000
  H   H481      1.0  0.06374  0.78969  0.92265  1.0000
  C   C592      1.0  0.16148  0.69619  0.89784  1.0000
  H   H482      1.0  0.21864  0.84103  0.50432  1.0000
  C   C593      1.0  0.15153  0.81952  0.55944  1.0000
  C   C594      1.0  0.12964  0.81762  0.56201  1.0000
  H   H483      1.0  0.99772  0.77567  0.73471  1.0000
  H   H484      1.0  0.16110  0.82241  0.57746  1.0000
  H   H485      1.0  0.12223  0.81914  0.58201  1.0000
  C   C595      1.0  0.07056  0.77628  0.76627  1.0000
  H   H486      1.0  0.19084  0.76160  0.75241  1.0000
  H   H487      1.0  0.11507  0.76617  0.80630  1.0000
  H   H488      1.0  0.15669  0.77909  0.73645  1.0000
  H   H489      1.0  0.07857  0.74023  0.73588  1.0000
  H   H490      1.0  0.06940  0.71969  0.69519  1.0000
  Fe  Fe47      1.0  0.23489  0.78313  0.84326  1.0000
  H   H491      1.0  0.14958  0.79462  0.94857  1.0000
  H   H492      1.0  0.08770  0.76736  0.84217  1.0000
  H   H493      1.0  0.09049  0.72133  0.65256  1.0000
  C   C596      1.0  0.24063  0.84820  0.71725  1.0000
  C   C597      1.0  0.14657  0.76302  0.96403  1.0000
  C   C598      1.0  0.12664  0.81029  0.75342  1.0000
  H   H494      1.0  0.12084  0.74403  0.65089  1.0000
  C   C599      1.0  0.02275  0.74658  0.54972  1.0000
  C   C600      1.0  0.14296  0.73985  0.53101  1.0000
  Fe  Fe48      1.0  0.02258  0.76423  0.67961  1.0000
  H   H495      1.0  0.12961  0.76572  0.69098  1.0000
  C   C601      1.0  0.06128  0.77376  0.81417  1.0000
  H   H496      1.0  0.12317  0.73156  0.77756  1.0000
  H   H497      1.0  0.14367  0.75656  0.94392  1.0000
  C   C602      1.0  0.15740  0.72811  0.78056  1.0000
  C   C603      1.0  0.17650  0.73659  0.77378  1.0000
  C   C604      1.0  0.17610  0.75491  0.75774  1.0000
  C   C605      1.0  0.15658  0.76505  0.74906  1.0000
  C   C606      1.0  0.13727  0.75726  0.75703  1.0000
  C   C607      1.0  0.13784  0.73827  0.77200  1.0000
  P   P21       1.0  0.11194  0.77015  0.74586  1.0000
  C   C608      1.0  0.11456  0.79751  0.73673  1.0000
  C   C609      1.0  0.10448  0.75501  0.71630  1.0000
  C   C610      1.0  0.11645  0.75569  0.69219  1.0000
  C   C611      1.0  0.11153  0.74342  0.66939  1.0000
  C   C612      1.0  0.09455  0.73050  0.67041  1.0000
  C   C613      1.0  0.08270  0.72956  0.69442  1.0000
  C   C614      1.0  0.08777  0.74157  0.71742  1.0000
  C   C615      1.0  0.10413  0.80642  0.71342  1.0000
  C   C616      1.0  0.10644  0.82760  0.70641  1.0000
  H   H498      1.0  0.23391  0.84609  0.97573  1.0000
  H   H499      1.0  0.06627  0.74642  0.97615  1.0000
  C   C617      1.0  0.18387  0.67409  0.61121  1.0000
  H   H500      1.0  0.22548  0.70754  0.50992  1.0000
  H   H501      1.0  0.06412  0.86902  0.50216  1.0000
  S   S90       1.0  0.99489  0.76475  0.65037  1.0000
  H   H502      1.0  0.09872  0.84722  0.50229  1.0000
  C   C618      1.0  0.15341  0.67077  0.58115  1.0000
  H   H503      1.0  0.23585  0.80912  0.92514  1.0000
  S   S91       1.0  0.23860  0.78730  0.67062  1.0000
  H   H504      1.0  0.00036  0.70301  0.61264  1.0000
  C   C619      1.0  0.03200  0.75827  0.49589  1.0000
  H   H505      1.0  0.23294  0.85881  0.75826  1.0000
  H   H506      1.0  0.22702  0.83878  0.71554  1.0000
  C   C620      1.0  0.20642  0.78969  0.98846  1.0000
  C   C621      1.0  0.07782  0.73397  0.98358  1.0000
  H   H507      1.0  0.00478  0.66611  0.75986  1.0000
  C   C622      1.0  0.99309  0.67535  0.74737  1.0000
  S   S92       1.0  0.99347  0.77400  0.96567  1.0000
  H   H508      1.0  0.99181  0.84329  0.68323  1.0000
  C   C623      1.0  0.11481  0.71976  0.98952  1.0000
  H   H509      1.0  0.34405  0.27843  0.06526  1.0000
  P   P22       1.0  0.42467  0.20755  0.33123  1.0000
  C   C624      1.0  0.28423  0.18233  0.05651  1.0000
  S   S93       1.0  0.47340  0.06883  0.03945  1.0000
  S   S94       1.0  0.39289  0.07451  0.44193  1.0000
  H   H510      1.0  0.46564  0.00911  0.45097  1.0000
  H   H511      1.0  0.43912  0.12780  0.04268  1.0000
  H   H512      1.0  0.46066  0.20433  0.12915  1.0000
  S   S95       1.0  0.26362  0.25475  0.16521  1.0000
  C   C625      1.0  0.38631  0.21506  0.30221  1.0000
  S   S96       1.0  0.25240  0.29688  0.12717  1.0000
  Fe  Fe49      1.0  0.25487  0.22863  0.40854  1.0000
  S   S97       1.0  0.25176  0.26420  0.41066  1.0000
  H   H513      1.0  0.44305  0.07559  0.08476  1.0000
  Fe  Fe50      1.0  0.30293  0.22581  0.41773  1.0000
  S   S98       1.0  0.30341  0.26138  0.42081  1.0000
  S   S99       1.0  0.33552  0.20749  0.42042  1.0000
  Fe  Fe51      1.0  0.27415  0.26033  0.44657  1.0000
  C   C626      1.0  0.41484  0.99636  0.40567  1.0000
  Fe  Fe52      1.0  0.28109  0.26240  0.38466  1.0000
  S   S100      1.0  0.28237  0.28736  0.35174  1.0000
  S   S101      1.0  0.27536  0.22461  0.44667  1.0000
  S   S102      1.0  0.28263  0.22686  0.37944  1.0000
  C   C627      1.0  0.24601  0.24567  0.02164  1.0000
  S   S103      1.0  0.29907  0.28932  0.15994  1.0000
  C   C628      1.0  0.33949  0.30958  0.12244  1.0000
  C   C629      1.0  0.34304  0.31277  0.06563  1.0000
  Fe  Fe53      1.0  0.28121  0.27497  0.19385  1.0000
  C   C630      1.0  0.25841  0.18311  0.34885  1.0000
  Fe  Fe54      1.0  0.27925  0.27106  0.13122  1.0000
  S   S104      1.0  0.29322  0.24762  0.09969  1.0000
  S   S105      1.0  0.41005  0.06802  0.02350  1.0000
  H   H514      1.0  0.40708  0.30188  0.42030  1.0000
  C   C631      1.0  0.28590  0.27841  0.31770  1.0000
  C   C632      1.0  0.27945  0.29218  0.29617  1.0000
  C   C633      1.0  0.28232  0.28554  0.26882  1.0000
  C   C634      1.0  0.29269  0.26555  0.26287  1.0000
  C   C635      1.0  0.29925  0.25179  0.28440  1.0000
  C   C636      1.0  0.29553  0.25807  0.31177  1.0000
  H   H515      1.0  0.27185  0.30788  0.30065  1.0000
  H   H516      1.0  0.27675  0.29599  0.25237  1.0000
  C   C637      1.0  0.27428  0.18082  0.08182  1.0000
  H   H517      1.0  0.30056  0.24743  0.32830  1.0000
  Fe  Fe55      1.0  0.40059  0.09575  0.99552  1.0000
  C   C638      1.0  0.29778  0.28188  0.02997  1.0000
  C   C639      1.0  0.29449  0.27659  0.05750  1.0000
  C   C640      1.0  0.29627  0.25520  0.06542  1.0000
  C   C641      1.0  0.30094  0.23920  0.04572  1.0000
  C   C642      1.0  0.34601  0.31585  0.40504  1.0000
  H   H518      1.0  0.29682  0.29843  0.02394  1.0000
  H   H519      1.0  0.29103  0.28901  0.07265  1.0000
  H   H520      1.0  0.30250  0.22268  0.05183  1.0000
  C   C643      1.0  0.45404  0.12940  0.08284  1.0000
  S   S106      1.0  0.46378  0.08121  0.22695  1.0000
  S   S107      1.0  0.39948  0.01804  0.47318  1.0000
  H   H521      1.0  0.35667  0.22194  0.27998  1.0000
  S   S108      1.0  0.26579  0.28289  0.48176  1.0000
  C   C644      1.0  0.43254  0.24445  0.36013  1.0000
  H   H522      1.0  0.43158  0.11316  0.14175  1.0000
  C   C645      1.0  0.41001  0.26905  0.43179  1.0000
  C   C646      1.0  0.45832  0.18082  0.39637  1.0000
  C   C647      1.0  0.44229  0.00063  0.31183  1.0000
  H   H523      1.0  0.35442  0.99189  0.30595  1.0000
  H   H524      1.0  0.42689  0.15231  0.25823  1.0000
  C   C648      1.0  0.39901  0.00245  0.25525  1.0000
  C   C649      1.0  0.38900  0.00332  0.22957  1.0000
  H   H525      1.0  0.40589  0.01640  0.26330  1.0000
  C   C650      1.0  0.34278  0.13968  0.45485  1.0000
  C   C651      1.0  0.36067  0.14957  0.44624  1.0000
  C   C652      1.0  0.35817  0.17021  0.43518  1.0000
  C   C653      1.0  0.33781  0.18114  0.43281  1.0000
  C   C654      1.0  0.31986  0.17113  0.44086  1.0000
  C   C655      1.0  0.32234  0.15039  0.45163  1.0000
  H   H526      1.0  0.37643  0.14139  0.44819  1.0000
  H   H527      1.0  0.37210  0.17780  0.42877  1.0000
  H   H528      1.0  0.30411  0.17938  0.43885  1.0000
  H   H529      1.0  0.27068  0.15610  0.21965  1.0000
  S   S109      1.0  0.38756  0.02706  0.20987  1.0000
  H   H530      1.0  0.45460  0.04124  0.39169  1.0000
  C   C656      1.0  0.24959  0.18890  0.03458  1.0000
  H   H531      1.0  0.40235  0.10642  0.10902  1.0000
  C   C657      1.0  0.27917  0.18669  0.20600  1.0000
  H   H532      1.0  0.24445  0.17125  0.25345  1.0000
  H   H533      1.0  0.25875  0.23461  0.23064  1.0000
  C   C658      1.0  0.42953  0.01786  0.40911  1.0000
  H   H534      1.0  0.37500  0.23261  0.41470  1.0000
  H   H535      1.0  0.35444  0.03876  0.99926  1.0000
  H   H536      1.0  0.29102  0.18004  0.19159  1.0000
  H   H537      1.0  0.28141  0.17527  0.48599  1.0000
  P   P23       1.0  0.47791  0.14067  0.07104  1.0000
  C   C659      1.0  0.43970  0.24501  0.31143  1.0000
  S   S110      1.0  0.43566  0.06740  0.48224  1.0000
  H   H538      1.0  0.30837  0.14265  0.45745  1.0000
  H   H539      1.0  0.40647  0.11354  0.05941  1.0000
  S   S111      1.0  0.34548  0.11435  0.47056  1.0000
  C   C660      1.0  0.26055  0.21748  0.22797  1.0000
  H   H540      1.0  0.46726  0.20594  0.30667  1.0000
  H   H541      1.0  0.45228  0.15263  0.41906  1.0000
  C   C661      1.0  0.34979  0.25097  0.18905  1.0000
  H   H542      1.0  0.31801  0.24451  0.17628  1.0000
  H   H543      1.0  0.48429  0.18378  0.26952  1.0000
  C   C662      1.0  0.48072  0.13586  0.03460  1.0000
  H   H544      1.0  0.47242  0.18859  0.17933  1.0000
  H   H545      1.0  0.35804  0.26356  0.38974  1.0000
  H   H546      1.0  0.43894  0.27285  0.38269  1.0000
  C   C663      1.0  0.35589  0.04732  0.01842  1.0000
  H   H547      1.0  0.43997  0.23758  0.29137  1.0000
  H   H548      1.0  0.40437  0.02319  0.37107  1.0000
  H   H549      1.0  0.46427  0.12773  0.12526  1.0000
  C   C664      1.0  0.45748  0.06698  0.09234  1.0000
  C   C665      1.0  0.45650  0.16703  0.26123  1.0000
  Fe  Fe56      1.0  0.44622  0.06340  0.25818  1.0000
  C   C666      1.0  0.46962  0.12722  0.18264  1.0000
  C   C667      1.0  0.43750  0.27821  0.10254  1.0000
  H   H550      1.0  0.24806  0.18965  0.46312  1.0000
  C   C668      1.0  0.40389  0.29685  0.11623  1.0000
  C   C669      1.0  0.39871  0.27883  0.13054  1.0000
  C   C670      1.0  0.41286  0.26027  0.13075  1.0000
  C   C671      1.0  0.43227  0.26013  0.11663  1.0000
  P   P24       1.0  0.40642  0.23672  0.14895  1.0000
  C   C672      1.0  0.37838  0.23930  0.15764  1.0000
  C   C673      1.0  0.41069  0.21361  0.12679  1.0000
  C   C674      1.0  0.40970  0.21586  0.09815  1.0000
  C   C675      1.0  0.41153  0.19786  0.08109  1.0000
  C   C676      1.0  0.41408  0.17750  0.09245  1.0000
  C   C677      1.0  0.41504  0.17511  0.12087  1.0000
  C   C678      1.0  0.41339  0.19305  0.13797  1.0000
  C   C679      1.0  0.36313  0.23198  0.13941  1.0000
  C   C680      1.0  0.34145  0.23390  0.14617  1.0000
  C   C681      1.0  0.47168  0.17150  0.18009  1.0000
  C   C682      1.0  0.41545  0.99771  0.49022  1.0000
  C   C683      1.0  0.37151  0.24913  0.18234  1.0000
  C   C684      1.0  0.42259  0.23280  0.17974  1.0000
  C   C685      1.0  0.44192  0.24234  0.18277  1.0000
  C   C686      1.0  0.45462  0.23859  0.20618  1.0000
  C   C687      1.0  0.44824  0.22531  0.22678  1.0000
  C   C688      1.0  0.42898  0.21587  0.22411  1.0000
  C   C689      1.0  0.41616  0.21965  0.20077  1.0000
  H   H551      1.0  0.26328  0.13436  0.44605  1.0000
  H   H552      1.0  0.27965  0.18740  0.01323  1.0000
  C   C690      1.0  0.48963  0.15791  0.17279  1.0000
  H   H553      1.0  0.38366  0.27951  0.14129  1.0000
  H   H554      1.0  0.44344  0.24605  0.11668  1.0000
  H   H555      1.0  0.40706  0.23144  0.08889  1.0000
  H   H556      1.0  0.41072  0.19967  0.05904  1.0000
  H   H557      1.0  0.41520  0.16360  0.07922  1.0000
  H   H558      1.0  0.41702  0.15933  0.12978  1.0000
  H   H559      1.0  0.41393  0.19064  0.15985  1.0000
  H   H560      1.0  0.36781  0.22479  0.11994  1.0000
  C   C691      1.0  0.36225  0.00768  0.10015  1.0000
  C   C692      1.0  0.47579  0.99531  0.45776  1.0000
  H   H561      1.0  0.47260  0.09634  0.32394  1.0000
  H   H562      1.0  0.38289  0.25538  0.19641  1.0000
  H   H563      1.0  0.44746  0.25263  0.16724  1.0000
  H   H564      1.0  0.40519  0.99338  0.42319  1.0000
  H   H565      1.0  0.45835  0.22229  0.24467  1.0000
  H   H566      1.0  0.42417  0.20534  0.23993  1.0000
  H   H567      1.0  0.40138  0.21201  0.19898  1.0000
  H   H568      1.0  0.37653  0.26251  0.30065  1.0000
  C   C693      1.0  0.41904  0.11684  0.07383  1.0000
  C   C694      1.0  0.44603  0.26571  0.31413  1.0000
  H   H569      1.0  0.32381  0.29669  0.38376  1.0000
  H   H570      1.0  0.40705  0.17036  0.35531  1.0000
  H   H571      1.0  0.41538  0.19145  0.47789  1.0000
  C   C695      1.0  0.47842  0.05067  0.13043  1.0000
  H   H572      1.0  0.46758  0.11376  0.36942  1.0000
  H   H573      1.0  0.28891  0.19083  0.33374  1.0000
  Fe  Fe57      1.0  0.37858  0.09692  0.47417  1.0000
  H   H574      1.0  0.25283  0.23340  0.00787  1.0000
  S   S112      1.0  0.42593  0.06887  0.18315  1.0000
  C   C696      1.0  0.43238  0.06891  0.34769  1.0000
  C   C697      1.0  0.44700  0.02696  0.38658  1.0000
  C   C698      1.0  0.43339  0.23405  0.33455  1.0000
  H   H575      1.0  0.34248  0.27798  0.27961  1.0000
  C   C699      1.0  0.45176  0.14066  0.19031  1.0000
  C   C700      1.0  0.30350  0.24443  0.01813  1.0000
  H   H576      1.0  0.28511  0.21919  0.19773  1.0000
  H   H577      1.0  0.33851  0.30839  0.14450  1.0000
  H   H578      1.0  0.33021  0.21973  0.48872  1.0000
  Fe  Fe58      1.0  0.40409  0.05328  0.47719  1.0000
  H   H579      1.0  0.33407  0.01760  0.07600  1.0000
  H   H580      1.0  0.30718  0.23625  0.27988  1.0000
  H   H581      1.0  0.38322  0.99007  0.34052  1.0000
  H   H582      1.0  0.34041  0.27564  0.11559  1.0000
  H   H583      1.0  0.27380  0.20855  0.29211  1.0000
  S   S113      1.0  0.48290  0.25374  0.40833  1.0000
  H   H584      1.0  0.46174  0.16615  0.11831  1.0000
  S   S114      1.0  0.45501  0.30768  0.42071  1.0000
  C   C701      1.0  0.27184  0.19164  0.32990  1.0000
  C   C702      1.0  0.45279  0.16287  0.18865  1.0000
  C   C703      1.0  0.33612  0.30096  0.31198  1.0000
  C   C704      1.0  0.34089  0.29115  0.10622  1.0000
  H   H585      1.0  0.46419  0.15700  0.24539  1.0000
  C   C705      1.0  0.44925  0.98928  0.38477  1.0000
  H   H586      1.0  0.47548  0.22928  0.09648  1.0000
  C   C706      1.0  0.27189  0.18626  0.03289  1.0000
  C   C707      1.0  0.49004  0.01355  0.28393  1.0000
  Fe  Fe59      1.0  0.27120  0.31414  0.15889  1.0000
  C   C708      1.0  0.38232  0.24762  0.41522  1.0000
  S   S115      1.0  0.45681  0.05778  0.30241  1.0000
  H   H587      1.0  0.36633  0.01908  0.04076  1.0000
  H   H588      1.0  0.41955  0.14628  0.39295  1.0000
  C   C709      1.0  0.42818  0.16001  0.38822  1.0000
  C   C710      1.0  0.26321  0.20169  0.30638  1.0000
  C   C711      1.0  0.46780  0.18216  0.27484  1.0000
  C   C712      1.0  0.34806  0.28415  0.29893  1.0000
  H   H589      1.0  0.28388  0.17776  0.10014  1.0000
  C   C713      1.0  0.45983  0.06223  0.12052  1.0000
  H   H590      1.0  0.24473  0.18153  0.10335  1.0000
  H   H591      1.0  0.42450  0.27063  0.44362  1.0000
  C   C714      1.0  0.30211  0.26578  0.01021  1.0000
  C   C715      1.0  0.36123  0.29902  0.35016  1.0000
  H   H592      1.0  0.41444  0.30829  0.37114  1.0000
  H   H593      1.0  0.41421  0.99319  0.18144  1.0000
  C   C716      1.0  0.27571  0.20876  0.20928  1.0000
  H   H594      1.0  0.25564  0.31280  0.05260  1.0000
  C   C717      1.0  0.41673  0.11278  0.10172  1.0000
  C   C718      1.0  0.37271  0.26523  0.40112  1.0000
  H   H595      1.0  0.40862  0.23578  0.44106  1.0000
  C   C719      1.0  0.41812  0.01370  0.36232  1.0000
  C   C720      1.0  0.43314  0.11663  0.12014  1.0000
  C   C721      1.0  0.37362  0.28265  0.33649  1.0000
  H   H596      1.0  0.46957  0.24589  0.20825  1.0000
  Fe  Fe60      1.0  0.48672  0.28889  0.41162  1.0000
  H   H597      1.0  0.33348  0.32168  0.34707  1.0000
  H   H598      1.0  0.29321  0.30828  0.41285  1.0000
  H   H599      1.0  0.44288  0.00262  0.28984  1.0000
  S   S116      1.0  0.44462  0.03496  0.23011  1.0000
  C   C722      1.0  0.34285  0.29274  0.07785  1.0000
  C   C723      1.0  0.40020  0.28678  0.41813  1.0000
  C   C724      1.0  0.31383  0.31565  0.23001  1.0000
  C   C725      1.0  0.44588  0.27566  0.33983  1.0000
  Fe  Fe61      1.0  0.45785  0.05487  0.19726  1.0000
  H   H600      1.0  0.34697  0.30489  0.23576  1.0000
  H   H601      1.0  0.45135  0.29146  0.34208  1.0000
  C   C726      1.0  0.46717  0.19849  0.10977  1.0000
  C   C727      1.0  0.45206  0.01463  0.35568  1.0000
  H   H602      1.0  0.46112  0.20724  0.36946  1.0000
  Fe  Fe62      1.0  0.44391  0.07260  0.01237  1.0000
  H   H603      1.0  0.32972  0.22825  0.13205  1.0000
  C   C728      1.0  0.33482  0.24321  0.17105  1.0000
  H   H604      1.0  0.47291  0.18338  0.40749  1.0000
  C   C729      1.0  0.48838  0.13579  0.17396  1.0000
  P   P25       1.0  0.37424  0.03270  0.09746  1.0000
  C   C730      1.0  0.36822  0.04869  0.12775  1.0000
  C   C731      1.0  0.40288  0.02680  0.09568  1.0000
  C   C732      1.0  0.41497  0.02363  0.11991  1.0000
  C   C733      1.0  0.43706  0.01868  0.11870  1.0000
  C   C734      1.0  0.44730  0.01735  0.09338  1.0000
  C   C735      1.0  0.43550  0.02075  0.06924  1.0000
  C   C736      1.0  0.41333  0.02508  0.07031  1.0000
  C   C737      1.0  0.38031  0.06587  0.13405  1.0000
  C   C738      1.0  0.37571  0.07841  0.15738  1.0000
  C   C739      1.0  0.35949  0.07345  0.17505  1.0000
  C   C740      1.0  0.34752  0.05625  0.16907  1.0000
  C   C741      1.0  0.35174  0.04398  0.14542  1.0000
  C   C742      1.0  0.36493  0.04712  0.06701  1.0000
  C   C743      1.0  0.36254  0.03618  0.04211  1.0000
  H   H605      1.0  0.26503  0.17587  0.36748  1.0000
  C   C744      1.0  0.35190  0.06948  0.01921  1.0000
  C   C745      1.0  0.35420  0.08050  0.04383  1.0000
  C   C746      1.0  0.36060  0.06941  0.06765  1.0000
  C   C747      1.0  0.38180  0.28487  0.40207  1.0000
  H   H606      1.0  0.46302  0.02186  0.34198  1.0000
  C   C748      1.0  0.47646  0.16891  0.07862  1.0000
  H   H607      1.0  0.40740  0.02500  0.13982  1.0000
  H   H608      1.0  0.44639  0.01659  0.13744  1.0000
  H   H609      1.0  0.46448  0.01432  0.09247  1.0000
  H   H610      1.0  0.44361  0.02011  0.04969  1.0000
  H   H611      1.0  0.40460  0.02712  0.05123  1.0000
  H   H612      1.0  0.39342  0.06944  0.12102  1.0000
  H   H613      1.0  0.38512  0.09160  0.16226  1.0000
  H   H614      1.0  0.35654  0.08260  0.19373  1.0000
  H   H615      1.0  0.33538  0.05206  0.18321  1.0000
  H   H616      1.0  0.34241  0.03061  0.14140  1.0000
  S   S117      1.0  0.25461  0.30108  0.19512  1.0000
  C   C749      1.0  0.43265  0.99296  0.99955  1.0000
  C   C750      1.0  0.45752  0.10140  0.36333  1.0000
  H   H617      1.0  0.35144  0.09774  0.04427  1.0000
  H   H618      1.0  0.36238  0.07844  0.08628  1.0000
  H   H619      1.0  0.40983  0.02416  0.31526  1.0000
  H   H620      1.0  0.45152  0.27384  0.29636  1.0000
  C   C751      1.0  0.40111  0.24946  0.43029  1.0000
  C   C752      1.0  0.46771  0.17677  0.10345  1.0000
  H   H621      1.0  0.34443  0.25834  0.20822  1.0000
  C   C753      1.0  0.36104  0.21760  0.34923  1.0000
  C   C754      1.0  0.35150  0.22062  0.32344  1.0000
  C   C755      1.0  0.36412  0.21936  0.29993  1.0000
  C   C756      1.0  0.39594  0.21139  0.32802  1.0000
  C   C757      1.0  0.38319  0.21314  0.35157  1.0000
  C   C758      1.0  0.43665  0.19263  0.30270  1.0000
  C   C759      1.0  0.42557  0.17701  0.28935  1.0000
  C   C760      1.0  0.43541  0.16443  0.26850  1.0000
  S   S118      1.0  0.37660  0.12379  0.00603  1.0000
  C   C761      1.0  0.46022  0.09169  0.33739  1.0000
  C   C762      1.0  0.45801  0.19481  0.29568  1.0000
  C   C763      1.0  0.43258  0.19122  0.36041  1.0000
  C   C764      1.0  0.45143  0.19448  0.37498  1.0000
  H   H622      1.0  0.45265  0.27798  0.09190  1.0000
  H   H623      1.0  0.42727  0.02693  0.42796  1.0000
  H   H624      1.0  0.35123  0.21869  0.36746  1.0000
  H   H625      1.0  0.33434  0.22405  0.32175  1.0000
  H   H626      1.0  0.39030  0.21109  0.37177  1.0000
  H   H627      1.0  0.40951  0.17415  0.29538  1.0000
  Fe  Fe63      1.0  0.42308  0.09032  0.44938  1.0000
  H   H628      1.0  0.41855  0.07271  0.38806  1.0000
  H   H629      1.0  0.43910  0.17341  0.19463  1.0000
  C   C765      1.0  0.44803  0.07500  0.32967  1.0000
  S   S119      1.0  0.44354  0.10353  0.41643  1.0000
  S   S120      1.0  0.29888  0.25781  0.22892  1.0000
  Fe  Fe64      1.0  0.43118  0.09479  0.21375  1.0000
  Fe  Fe65      1.0  0.41278  0.05045  0.21768  1.0000
  C   C766      1.0  0.44672  0.16357  0.40294  1.0000
  H   H630      1.0  0.44701  0.06708  0.13424  1.0000
  S   S121      1.0  0.41364  0.07838  0.24700  1.0000
  S   S122      1.0  0.42813  0.13002  0.20205  1.0000
  C   C767      1.0  0.42114  0.17373  0.36697  1.0000
  C   C768      1.0  0.42992  0.07834  0.37389  1.0000
  C   C769      1.0  0.45169  0.12492  0.11074  1.0000
  H   H631      1.0  0.39593  0.21469  0.28387  1.0000
  C   C770      1.0  0.43894  0.26512  0.36276  1.0000
  H   H632      1.0  0.42286  0.05612  0.34199  1.0000
  C   C771      1.0  0.25197  0.18334  0.08358  1.0000
  C   C772      1.0  0.43766  0.12500  0.06437  1.0000
  C   C773      1.0  0.42126  0.01442  0.32753  1.0000
  C   C774      1.0  0.47406  0.06091  0.07413  1.0000
  C   C775      1.0  0.44304  0.09411  0.38215  1.0000
  H   H633      1.0  0.45941  0.16323  0.02282  1.0000
  S   S123      1.0  0.48172  0.04248  0.16509  1.0000
  H   H634      1.0  0.38821  0.27537  0.34568  1.0000
  H   H635      1.0  0.42719  0.23654  0.37812  1.0000
  H   H636      1.0  0.46896  0.11014  0.18293  1.0000
  C   C776      1.0  0.26769  0.17324  0.22176  1.0000
  H   H637      1.0  0.34540  0.31340  0.04377  1.0000
  H   H638      1.0  0.30152  0.18049  0.05520  1.0000
  C   C777      1.0  0.36705  0.27529  0.31093  1.0000
  H   H639      1.0  0.48580  0.08141  0.40066  1.0000
  H   H640      1.0  0.35057  0.16376  0.00644  1.0000
  S   S124      1.0  0.40806  0.11405  0.47962  1.0000
  C   C778      1.0  0.48818  0.99214  0.27687  1.0000
  C   C779      1.0  0.46946  0.14949  0.01576  1.0000
  C   C780      1.0  0.30864  0.31427  0.41694  1.0000
  C   C781      1.0  0.42328  0.29656  0.10227  1.0000
  P   P26       1.0  0.36884  0.30745  0.38402  1.0000
  C   C782      1.0  0.32605  0.30795  0.40019  1.0000
  C   C783      1.0  0.34245  0.00488  0.08764  1.0000
  C   C784      1.0  0.25270  0.18189  0.24070  1.0000
  H   H641      1.0  0.32137  0.30779  0.30273  1.0000
  C   C785      1.0  0.24867  0.20409  0.24357  1.0000
  C   C786      1.0  0.34290  0.30866  0.33724  1.0000
  C   C787      1.0  0.33430  0.31697  0.24088  1.0000
  C   C788      1.0  0.24881  0.18859  0.48529  1.0000
  H   H642      1.0  0.48875  0.09746  0.09084  1.0000
  C   C789      1.0  0.47558  0.21250  0.09149  1.0000
  H   H643      1.0  0.39287  0.31110  0.11603  1.0000
  H   H644      1.0  0.31061  0.30248  0.21668  1.0000
  H   H645      1.0  0.34743  0.07822  0.00069  1.0000
  H   H646      1.0  0.30713  0.23195  0.00313  1.0000
  C   C790      1.0  0.48488  0.20476  0.06713  1.0000
  H   H647      1.0  0.49001  0.06649  0.44657  1.0000
  C   C791      1.0  0.24610  0.13812  0.44675  1.0000
  H   H648      1.0  0.44789  0.31066  0.48115  1.0000
  C   C792      1.0  0.24708  0.24259  0.04997  1.0000
  H   H649      1.0  0.25530  0.22829  0.05839  1.0000
  H   H650      1.0  0.24592  0.16265  0.41607  1.0000
  C   C793      1.0  0.37197  0.99130  0.11654  1.0000
  H   H651      1.0  0.44006  0.00781  0.00056  1.0000
  H   H652      1.0  0.42733  0.31057  0.09133  1.0000
  C   C794      1.0  0.48562  0.18302  0.06086  1.0000
  H   H653      1.0  0.38664  0.99339  0.12750  1.0000
  H   H654      1.0  0.36410  0.19669  0.48624  1.0000
  H   H655      1.0  0.48771  0.01904  0.30483  1.0000
  C   C795      1.0  0.49135  0.06475  0.40301  1.0000
  H   H656      1.0  0.24139  0.11551  0.47856  1.0000
  H   H657      1.0  0.26212  0.29478  0.99250  1.0000
  C   C796      1.0  0.25192  0.15559  0.90748  1.0000
  H   H658      1.0  0.35714  0.19368  0.56499  1.0000
  H   H659      1.0  0.45221  0.26674  0.86249  1.0000
  C   C797      1.0  0.41125  0.99285  0.99147  1.0000
  S   S125      1.0  0.39797  0.07541  0.95809  1.0000
  S   S126      1.0  0.38685  0.07425  0.50889  1.0000
  C   C798      1.0  0.35099  0.19173  0.49825  1.0000
  H   H660      1.0  0.32826  0.23209  0.62979  1.0000
  H   H661      1.0  0.37594  0.14416  0.55824  1.0000
  C   C799      1.0  0.43861  0.08232  0.63028  1.0000
  H   H662      1.0  0.46642  0.11095  0.69450  1.0000
  H   H663      1.0  0.47945  0.00364  0.65116  1.0000
  S   S127      1.0  0.27255  0.26202  0.91378  1.0000
  H   H664      1.0  0.41892  0.04565  0.92042  1.0000
  Fe  Fe66      1.0  0.29973  0.20423  0.91853  1.0000
  S   S128      1.0  0.31834  0.23280  0.91216  1.0000
  S   S129      1.0  0.31534  0.17018  0.91553  1.0000
  Fe  Fe67      1.0  0.29686  0.24868  0.94433  1.0000
  S   S130      1.0  0.30658  0.27255  0.97592  1.0000
  Fe  Fe68      1.0  0.29222  0.24352  0.88227  1.0000
  S   S131      1.0  0.30092  0.25967  0.84322  1.0000
  S   S132      1.0  0.28007  0.21937  0.95307  1.0000
  S   S133      1.0  0.27497  0.21396  0.88603  1.0000
  C   C800      1.0  0.35992  0.13675  0.98051  1.0000
  S   S134      1.0  0.28713  0.27873  0.67937  1.0000
  P   P27       1.0  0.39758  0.17633  0.58997  1.0000
  H   H665      1.0  0.40816  0.99491  0.57943  1.0000
  H   H666      1.0  0.30907  0.09711  0.50190  1.0000
  C   C801      1.0  0.43137  0.00215  0.50913  1.0000
  Fe  Fe69      1.0  0.27136  0.27460  0.63814  1.0000
  S   S135      1.0  0.28989  0.25716  0.60401  1.0000
  H   H667      1.0  0.40118  0.15160  0.97284  1.0000
  H   H668      1.0  0.46152  0.03019  0.85440  1.0000
  C   C802      1.0  0.28724  0.25534  0.81225  1.0000
  C   C803      1.0  0.29426  0.26442  0.78813  1.0000
  C   C804      1.0  0.28393  0.26112  0.76301  1.0000
  C   C805      1.0  0.26630  0.24905  0.76190  1.0000
  C   C806      1.0  0.25924  0.23995  0.78601  1.0000
  C   C807      1.0  0.26966  0.24310  0.81116  1.0000
  H   H669      1.0  0.30776  0.27398  0.78879  1.0000
  H   H670      1.0  0.28978  0.26761  0.74436  1.0000
  H   H671      1.0  0.36182  0.03723  0.68562  1.0000
  H   H672      1.0  0.26398  0.23619  0.82967  1.0000
  H   H673      1.0  0.47598  0.14636  0.79860  1.0000
  C   C808      1.0  0.26449  0.28808  0.53722  1.0000
  C   C809      1.0  0.26944  0.28249  0.56445  1.0000
  C   C810      1.0  0.28255  0.26397  0.57010  1.0000
  C   C811      1.0  0.29032  0.25083  0.54838  1.0000
  C   C812      1.0  0.40113  0.01331  0.64561  1.0000
  H   H674      1.0  0.37525  0.29804  0.87295  1.0000
  H   H675      1.0  0.26332  0.29270  0.58094  1.0000
  H   H676      1.0  0.30057  0.23656  0.55260  1.0000
  C   C813      1.0  0.43544  0.09519  0.60695  1.0000
  S   S136      1.0  0.42988  0.10274  0.55201  1.0000
  H   H677      1.0  0.37734  0.09203  0.61441  1.0000
  C   C814      1.0  0.37723  0.00687  0.74853  1.0000
  H   H678      1.0  0.43402  0.01853  0.51382  1.0000
  H   H679      1.0  0.40234  0.15042  0.63963  1.0000
  S   S137      1.0  0.24198  0.26120  0.65469  1.0000
  H   H680      1.0  0.36822  0.10742  0.56871  1.0000
  C   C815      1.0  0.30192  0.12820  0.51986  1.0000
  H   H681      1.0  0.39400  0.11378  0.64989  1.0000
  C   C816      1.0  0.32988  0.32073  0.89296  1.0000
  H   H682      1.0  0.33842  0.31028  0.61212  1.0000
  C   C817      1.0  0.34013  0.02020  0.74469  1.0000
  C   C818      1.0  0.36167  0.02417  0.74529  1.0000
  H   H683      1.0  0.32807  0.03327  0.74150  1.0000
  C   C819      1.0  0.32411  0.32109  0.75668  1.0000
  C   C820      1.0  0.35749  0.12767  0.95455  1.0000
  C   C821      1.0  0.34385  0.13815  0.93493  1.0000
  C   C822      1.0  0.33271  0.15796  0.94083  1.0000
  C   C823      1.0  0.33535  0.16722  0.96666  1.0000
  H   H684      1.0  0.31178  0.30234  0.72404  1.0000
  H   H685      1.0  0.36591  0.11246  0.94966  1.0000
  H   H686      1.0  0.34210  0.13093  0.91497  1.0000
  C   C824      1.0  0.34868  0.00055  0.90768  1.0000
  C   C825      1.0  0.42993  0.99264  0.90887  1.0000
  S   S138      1.0  0.36753  0.05120  0.74255  1.0000
  H   H687      1.0  0.32746  0.21824  0.58235  1.0000
  C   C826      1.0  0.36056  0.10505  0.77062  1.0000
  C   C827      1.0  0.36544  0.10921  0.74342  1.0000
  C   C828      1.0  0.37351  0.12847  0.73664  1.0000
  C   C829      1.0  0.37692  0.14350  0.75709  1.0000
  C   C830      1.0  0.37307  0.13902  0.78469  1.0000
  C   C831      1.0  0.36406  0.12001  0.79115  1.0000
  P   P28       1.0  0.37792  0.15822  0.81131  1.0000
  C   C832      1.0  0.39975  0.17391  0.80292  1.0000
  C   C833      1.0  0.35323  0.17487  0.81529  1.0000
  C   C834      1.0  0.34873  0.19283  0.79865  1.0000
  C   C835      1.0  0.32981  0.20598  0.80232  1.0000
  C   C836      1.0  0.31527  0.20116  0.82241  1.0000
  C   C837      1.0  0.31938  0.18304  0.83853  1.0000
  C   C838      1.0  0.33814  0.16978  0.83478  1.0000
  C   C839      1.0  0.40072  0.19441  0.81420  1.0000
  C   C840      1.0  0.43305  0.17774  0.77914  1.0000
  C   C841      1.0  0.41639  0.16546  0.78598  1.0000
  C   C842      1.0  0.38535  0.14562  0.84353  1.0000
  C   C843      1.0  0.39465  0.12453  0.84444  1.0000
  C   C844      1.0  0.39817  0.11436  0.86965  1.0000
  C   C845      1.0  0.39342  0.12541  0.89403  1.0000
  C   C846      1.0  0.38529  0.14674  0.89329  1.0000
  C   C847      1.0  0.38148  0.15690  0.86819  1.0000
  H   H688      1.0  0.35446  0.08999  0.77571  1.0000
  H   H689      1.0  0.36313  0.09738  0.72765  1.0000
  H   H690      1.0  0.37754  0.13159  0.71558  1.0000
  H   H691      1.0  0.38301  0.15838  0.75124  1.0000
  H   H692      1.0  0.36009  0.11655  0.81205  1.0000
  H   H693      1.0  0.39324  0.21481  0.55634  1.0000
  C   C848      1.0  0.41488  0.16794  0.50962  1.0000
  H   H694      1.0  0.30077  0.21143  0.82550  1.0000
  H   H695      1.0  0.30809  0.17939  0.85417  1.0000
  H   H696      1.0  0.34088  0.15577  0.84748  1.0000
  C   C849      1.0  0.41000  0.15944  0.95745  1.0000
  H   H697      1.0  0.44562  0.17111  0.76569  1.0000
  H   H698      1.0  0.41667  0.14931  0.77807  1.0000
  H   H699      1.0  0.39899  0.11582  0.82580  1.0000
  H   H700      1.0  0.40477  0.09791  0.87046  1.0000
  H   H701      1.0  0.39635  0.11746  0.91351  1.0000
  H   H702      1.0  0.38158  0.15532  0.91221  1.0000
  H   H703      1.0  0.37491  0.17337  0.86812  1.0000
  H   H704      1.0  0.44698  0.20754  0.78517  1.0000
  H   H705      1.0  0.34010  0.32038  0.74834  1.0000
  H   H706      1.0  0.25031  0.18368  0.56442  1.0000
  H   H707      1.0  0.48159  0.29190  0.81301  1.0000
  H   H708      1.0  0.31448  0.29247  0.88223  1.0000
  H   H709      1.0  0.39397  0.00964  0.74864  1.0000
  C   C850      1.0  0.36578  0.00365  0.67613  1.0000
  C   C851      1.0  0.45124  0.23449  0.87649  1.0000
  S   S139      1.0  0.39556  0.01668  0.98377  1.0000
  C   C852      1.0  0.35292  0.17204  0.51146  1.0000
  S   S140      1.0  0.44310  0.09421  0.91145  1.0000
  S   S141      1.0  0.40974  0.08065  0.69947  1.0000
  C   C853      1.0  0.40060  0.00685  0.88010  1.0000
  C   C854      1.0  0.26767  0.18057  0.49836  1.0000
  H   H710      1.0  0.26887  0.15304  0.91221  1.0000
  C   C855      1.0  0.28737  0.31250  0.75313  1.0000
  C   C856      1.0  0.47714  0.17069  0.69284  1.0000
  S   S142      1.0  0.44702  0.04364  0.65596  1.0000
  C   C857      1.0  0.43968  0.06013  0.62769  1.0000
  C   C858      1.0  0.44817  0.07987  0.88053  1.0000
  H   H711      1.0  0.34060  0.26063  0.81726  1.0000
  C   C859      1.0  0.37069  0.29450  0.85212  1.0000
  S   S143      1.0  0.45918  0.07594  0.72541  1.0000
  H   H712      1.0  0.46848  0.23217  0.87871  1.0000
  C   C860      1.0  0.42732  0.20265  0.61145  1.0000
  H   H713      1.0  0.38888  0.00496  0.86422  1.0000
  H   H714      1.0  0.35892  0.22105  0.66050  1.0000
  C   C861      1.0  0.47111  0.15511  0.81704  1.0000
  H   H715      1.0  0.47028  0.15601  0.62618  1.0000
  H   H716      1.0  0.27495  0.30494  0.74219  1.0000
  C   C862      1.0  0.30106  0.10611  0.51847  1.0000
  C   C863      1.0  0.43845  0.16485  0.61088  1.0000
  C   C864      1.0  0.26417  0.31331  0.95616  1.0000
  H   H717      1.0  0.47999  0.18738  0.69205  1.0000
  C   C865      1.0  0.34879  0.15658  0.98644  1.0000
  C   C866      1.0  0.26880  0.17958  0.52710  1.0000
  H   H718      1.0  0.46585  0.28487  0.51379  1.0000
  P   P29       1.0  0.29318  0.16858  0.54346  1.0000
  C   C867      1.0  0.29605  0.17668  0.57876  1.0000
  C   C868      1.0  0.29224  0.14002  0.54155  1.0000
  C   C869      1.0  0.28084  0.12953  0.56123  1.0000
  C   C870      1.0  0.27988  0.10741  0.55975  1.0000
  C   C871      1.0  0.30859  0.16347  0.59681  1.0000
  C   C872      1.0  0.31078  0.16936  0.62431  1.0000
  C   C873      1.0  0.30052  0.18849  0.63397  1.0000
  C   C874      1.0  0.28853  0.20198  0.61597  1.0000
  C   C875      1.0  0.28671  0.19639  0.58831  1.0000
  C   C876      1.0  0.31602  0.17773  0.52627  1.0000
  C   C877      1.0  0.31442  0.19777  0.51360  1.0000
  S   S144      1.0  0.44493  0.05129  0.97509  1.0000
  C   C878      1.0  0.46164  0.31732  0.83206  1.0000
  C   C879      1.0  0.44810  0.28842  0.80617  1.0000
  C   C880      1.0  0.33561  0.16518  0.52581  1.0000
  Fe  Fe70      1.0  0.26980  0.31156  0.67879  1.0000
  H   H719      1.0  0.44289  0.99491  0.66110  1.0000
  H   H720      1.0  0.27270  0.13842  0.57773  1.0000
  H   H721      1.0  0.27125  0.09935  0.57513  1.0000
  H   H722      1.0  0.31672  0.14861  0.58965  1.0000
  H   H723      1.0  0.32044  0.15908  0.63814  1.0000
  H   H724      1.0  0.30209  0.19306  0.65530  1.0000
  H   H725      1.0  0.28087  0.21696  0.62347  1.0000
  H   H726      1.0  0.27809  0.20753  0.57453  1.0000
  H   H727      1.0  0.29962  0.20792  0.51407  1.0000
  C   C881      1.0  0.28499  0.25624  0.52111  1.0000
  C   C882      1.0  0.37121  0.02469  0.67472  1.0000
  Fe  Fe71      1.0  0.25713  0.23176  0.92004  1.0000
  H   H728      1.0  0.33739  0.14980  0.53575  1.0000
  H   H729      1.0  0.24893  0.18764  0.92372  1.0000
  H   H730      1.0  0.39536  0.19073  0.96690  1.0000
  C   C883      1.0  0.34145  0.22137  0.62235  1.0000
  C   C884      1.0  0.44659  0.16108  0.85498  1.0000
  H   H731      1.0  0.25473  0.30263  0.53292  1.0000
  C   C885      1.0  0.35720  0.27823  0.84748  1.0000
  H   H732      1.0  0.43574  0.14862  0.60546  1.0000
  H   H733      1.0  0.44385  0.10829  0.85631  1.0000
  C   C886      1.0  0.34101  0.21357  0.59551  1.0000
  H   H734      1.0  0.26868  0.01462  0.84663  1.0000
  H   H735      1.0  0.48315  0.12327  0.95637  1.0000
  H   H736      1.0  0.48030  0.11877  0.55657  1.0000
  C   C887      1.0  0.42482  0.14750  0.94114  1.0000
  C   C888      1.0  0.40675  0.18147  0.95403  1.0000
  C   C889      1.0  0.28143  0.02128  0.83560  1.0000
  C   C890      1.0  0.28130  0.02112  0.80697  1.0000
  C   C891      1.0  0.29759  0.02993  0.79272  1.0000
  C   C892      1.0  0.31430  0.03850  0.80701  1.0000
  C   C893      1.0  0.31482  0.03818  0.83576  1.0000
  C   C894      1.0  0.29798  0.03004  0.84997  1.0000
  P   P30       1.0  0.33575  0.04995  0.85447  1.0000
  C   C895      1.0  0.36045  0.04751  0.83567  1.0000
  C   C896      1.0  0.32629  0.07750  0.86043  1.0000
  C   C897      1.0  0.32674  0.09222  0.83902  1.0000
  C   C898      1.0  0.31935  0.11360  0.84317  1.0000
  C   C899      1.0  0.31135  0.12040  0.86869  1.0000
  C   C900      1.0  0.31020  0.10571  0.88984  1.0000
  C   C901      1.0  0.31732  0.08426  0.88564  1.0000
  C   C902      1.0  0.37472  0.06349  0.83758  1.0000
  C   C903      1.0  0.39499  0.06031  0.82582  1.0000
  C   C904      1.0  0.40126  0.04110  0.81252  1.0000
  C   C905      1.0  0.38728  0.02507  0.81087  1.0000
  C   C906      1.0  0.36686  0.02829  0.82211  1.0000
  C   C907      1.0  0.34254  0.03489  0.88510  1.0000
  C   C908      1.0  0.34160  0.01265  0.88495  1.0000
  C   C909      1.0  0.30550  0.31827  0.85459  1.0000
  C   C910      1.0  0.35689  0.01053  0.93062  1.0000
  C   C911      1.0  0.35816  0.03258  0.93077  1.0000
  C   C912      1.0  0.35129  0.04471  0.90800  1.0000
  C   C913      1.0  0.43956  0.31878  0.55940  1.0000
  H   H737      1.0  0.41530  0.30744  0.88514  1.0000
  H   H738      1.0  0.29730  0.02999  0.77054  1.0000
  H   H739      1.0  0.32681  0.04525  0.79556  1.0000
  H   H740      1.0  0.29769  0.03031  0.87216  1.0000
  H   H741      1.0  0.33273  0.08710  0.81906  1.0000
  H   H742      1.0  0.31974  0.12489  0.82656  1.0000
  H   H743      1.0  0.30594  0.13704  0.87212  1.0000
  H   H744      1.0  0.30387  0.11106  0.90957  1.0000
  H   H745      1.0  0.31573  0.07307  0.90206  1.0000
  H   H746      1.0  0.37052  0.07812  0.84878  1.0000
  H   H747      1.0  0.40609  0.07252  0.82734  1.0000
  H   H748      1.0  0.41701  0.03857  0.80356  1.0000
  H   H749      1.0  0.39239  0.01006  0.80096  1.0000
  H   H750      1.0  0.35633  0.01556  0.82074  1.0000
  C   C914      1.0  0.42328  0.31539  0.82737  1.0000
  H   H751      1.0  0.30174  0.30892  0.59342  1.0000
  H   H752      1.0  0.45111  0.27390  0.79423  1.0000
  H   H753      1.0  0.36521  0.04015  0.94823  1.0000
  H   H754      1.0  0.35358  0.06156  0.90800  1.0000
  C   C915      1.0  0.47281  0.04289  0.53453  1.0000
  C   C916      1.0  0.27217  0.27498  0.51552  1.0000
  C   C917      1.0  0.40150  0.18070  0.55390  1.0000
  C   C918      1.0  0.39882  0.20149  0.54336  1.0000
  C   C919      1.0  0.39049  0.14982  0.59777  1.0000
  C   C920      1.0  0.39478  0.14129  0.62397  1.0000
  C   C921      1.0  0.38986  0.12059  0.63000  1.0000
  C   C922      1.0  0.38041  0.10835  0.61005  1.0000
  C   C923      1.0  0.37532  0.11702  0.58429  1.0000
  C   C924      1.0  0.38005  0.13779  0.57828  1.0000
  C   C925      1.0  0.37567  0.19402  0.60264  1.0000
  C   C926      1.0  0.35792  0.19976  0.58574  1.0000
  C   C927      1.0  0.45330  0.05782  0.87992  1.0000
  Fe  Fe72      1.0  0.40072  0.06173  0.73596  1.0000
  H   H755      1.0  0.44745  0.17617  0.71501  1.0000
  H   H756      1.0  0.38841  0.20103  0.82797  1.0000
  H   H757      1.0  0.40135  0.22137  0.50795  1.0000
  S   S145      1.0  0.41683  0.08303  0.76543  1.0000
  C   C928      1.0  0.40362  0.20533  0.51599  1.0000
  C   C929      1.0  0.40996  0.16402  0.53693  1.0000
  H   H758      1.0  0.42741  0.13045  0.94376  1.0000
  H   H759      1.0  0.35981  0.19670  0.78292  1.0000
  C   C930      1.0  0.47114  0.99418  0.63658  1.0000
  H   H760      1.0  0.41571  0.21589  0.60692  1.0000
  S   S146      1.0  0.43209  0.13457  0.72416  1.0000
  H   H761      1.0  0.44454  0.13654  0.82422  1.0000
  H   H762      1.0  0.41307  0.14801  0.54481  1.0000
  C   C931      1.0  0.43379  0.19821  0.79011  1.0000
  S   S147      1.0  0.25317  0.24473  0.73059  1.0000
  H   H763      1.0  0.42875  0.05689  0.55904  1.0000
  H   H764      1.0  0.37653  0.30984  0.78586  1.0000
  C   C932      1.0  0.35777  0.28489  0.79876  1.0000
  H   H765      1.0  0.31034  0.13592  0.50408  1.0000
  H   H766      1.0  0.48950  0.16535  0.90515  1.0000
  C   C933      1.0  0.31644  0.30894  0.87713  1.0000
  C   C934      1.0  0.41841  0.19157  0.93439  1.0000
  H   H767      1.0  0.43703  0.03382  0.59964  1.0000
  H   H768      1.0  0.46045  0.28986  0.56379  1.0000
  C   C935      1.0  0.45266  0.30129  0.54958  1.0000
  C   C936      1.0  0.37124  0.30115  0.80328  1.0000
  H   H769      1.0  0.44127  0.08954  0.65005  1.0000
  Fe  Fe73      1.0  0.43260  0.08033  0.95150  1.0000
  C   C937      1.0  0.43645  0.15748  0.92146  1.0000
  C   C938      1.0  0.46937  0.12754  0.69456  1.0000
  Fe  Fe74      1.0  0.42974  0.09877  0.72835  1.0000
  H   H770      1.0  0.41640  0.20877  0.93301  1.0000
  C   C939      1.0  0.44205  0.25411  0.86706  1.0000
  H   H771      1.0  0.40595  0.20859  0.88214  1.0000
  H   H772      1.0  0.38981  0.24348  0.86609  1.0000
  C   C940      1.0  0.43169  0.06400  0.57881  1.0000
  C   C941      1.0  0.43294  0.17955  0.91738  1.0000
  C   C942      1.0  0.40237  0.02708  0.89138  1.0000
  H   H773      1.0  0.25054  0.28284  0.82529  1.0000
  H   H774      1.0  0.28957  0.07854  0.53738  1.0000
  C   C943      1.0  0.47398  0.21385  0.93354  1.0000
  H   H775      1.0  0.45014  0.08954  0.81177  1.0000
  H   H776      1.0  0.46205  0.03605  0.54859  1.0000
  H   H777      1.0  0.44843  0.14786  0.90990  1.0000
  C   C944      1.0  0.43617  0.05099  0.60187  1.0000
  C   C945      1.0  0.41613  0.22130  0.87846  1.0000
  C   C946      1.0  0.40696  0.24100  0.86913  1.0000
  H   H778      1.0  0.33594  0.00451  0.86703  1.0000
  H   H779      1.0  0.39222  0.04061  0.88409  1.0000
  C   C947      1.0  0.37806  0.30589  0.82998  1.0000
  C   C948      1.0  0.45873  0.16429  0.70587  1.0000
  H   H780      1.0  0.43240  0.15687  0.86536  1.0000
  S   S148      1.0  0.42827  0.03719  0.73239  1.0000
  C   C949      1.0  0.41744  0.02996  0.91189  1.0000
  C   C950      1.0  0.43114  0.01273  0.92073  1.0000
  C   C951      1.0  0.43201  0.08613  0.58113  1.0000
  C   C952      1.0  0.41991  0.25742  0.86358  1.0000
  H   H781      1.0  0.41287  0.27267  0.85643  1.0000
  C   C953      1.0  0.49108  0.21539  0.95173  1.0000
  C   C954      1.0  0.45486  0.14261  0.70697  1.0000
  C   C955      1.0  0.44734  0.09120  0.85584  1.0000
  P   P31       1.0  0.45027  0.19281  0.89503  1.0000
  C   C956      1.0  0.43830  0.21812  0.88291  1.0000
  H   H782      1.0  0.45489  0.04905  0.89888  1.0000
  Fe  Fe75      1.0  0.43861  0.05732  0.69782  1.0000
  H   H783      1.0  0.32632  0.21997  0.78967  1.0000
  C   C957      1.0  0.45819  0.16899  0.62224  1.0000
  C   C958      1.0  0.45082  0.08060  0.83063  1.0000
  H   H784      1.0  0.41411  0.28855  0.80304  1.0000
  Fe  Fe76      1.0  0.25662  0.26778  0.69587  1.0000
  H   H785      1.0  0.46117  0.22651  0.93326  1.0000
  Fe  Fe77      1.0  0.41765  0.08977  0.51190  1.0000
  S   S149      1.0  0.25644  0.30824  0.63633  1.0000
  C   C959      1.0  0.41769  0.20650  0.80775  1.0000
  H   H786      1.0  0.36281  0.00111  0.94803  1.0000
  C   C960      1.0  0.46588  0.15054  0.55165  1.0000
  H   H787      1.0  0.41845  0.22231  0.81637  1.0000
  C   C961      1.0  0.38881  0.02953  0.65934  1.0000
  C   C962      1.0  0.42268  0.18159  0.60595  1.0000
  H   H788      1.0  0.47195  0.07304  0.55585  1.0000
  H   H789      1.0  0.24514  0.23645  0.58836  1.0000
  H   H790      1.0  0.36758  0.16173  0.50969  1.0000
  Fe  Fe78      1.0  0.44499  0.05902  0.76047  1.0000
  C   C963      1.0  0.47341  0.19602  0.91621  1.0000
  C   C964      1.0  0.45334  0.14955  0.83155  1.0000
  C   C965      1.0  0.48776  0.13385  0.68190  1.0000
  H   H791      1.0  0.35256  0.28126  0.77816  1.0000
  H   H792      1.0  0.38896  0.19667  0.64350  1.0000
  H   H793      1.0  0.41446  0.01745  0.63347  1.0000
  C   C966      1.0  0.37577  0.20147  0.62983  1.0000
  C   C967      1.0  0.29011  0.09569  0.53845  1.0000
  H   H794      1.0  0.44302  0.01496  0.93646  1.0000
  H   H795      1.0  0.47805  0.19305  0.63651  1.0000
  C   C968      1.0  0.46534  0.29861  0.81665  1.0000
  H   H796      1.0  0.32685  0.18244  0.97151  1.0000
  H   H797      1.0  0.45523  0.18393  0.54891  1.0000
  H   H798      1.0  0.39310  0.04580  0.65820  1.0000
  C   C969      1.0  0.25035  0.18548  0.54241  1.0000
  C   C970      1.0  0.35874  0.21519  0.63958  1.0000
  H   H799      1.0  0.31718  0.99687  0.74753  1.0000
  H   H800      1.0  0.35129  0.26954  0.86454  1.0000
  C   C971      1.0  0.45727  0.04720  0.85471  1.0000
  C   C972      1.0  0.48767  0.17910  0.56385  1.0000
  H   H801      1.0  0.43577  0.11222  0.60895  1.0000
  C   C973      1.0  0.35095  0.27331  0.82081  1.0000
  C   C974      1.0  0.45810  0.17786  0.86454  1.0000
  C   C975      1.0  0.42712  0.29680  0.81135  1.0000
  C   C976      1.0  0.48273  0.12699  0.97809  1.0000
  C   C977      1.0  0.44721  0.20677  0.62252  1.0000
  S   S150      1.0  0.46131  0.04498  0.79860  1.0000
  C   C978      1.0  0.45573  0.29842  0.52141  1.0000
  C   C979      1.0  0.45590  0.05854  0.82996  1.0000
  H   H802      1.0  0.45085  0.22301  0.62666  1.0000
  C   C980      1.0  0.41441  0.98943  0.88866  1.0000
  C   C981      1.0  0.48205  0.17239  0.82577  1.0000
  S   S151      1.0  0.43465  0.10208  0.98800  1.0000
  C   C982      1.0  0.46259  0.18993  0.62802  1.0000
  H   H803      1.0  0.46225  0.15595  0.97325  1.0000
  H   H804      1.0  0.43706  0.32036  0.58122  1.0000
  C   C983      1.0  0.33397  0.99953  0.74807  1.0000
  C   C984      1.0  0.46835  0.17232  0.55416  1.0000
  H   H805      1.0  0.26856  0.01423  0.79579  1.0000
  H   H806      1.0  0.45101  0.14505  0.54432  1.0000
  H   H807      1.0  0.35218  0.99990  0.68816  1.0000
  C   C985      1.0  0.41157  0.18853  0.49909  1.0000
  C   C986      1.0  0.47849  0.06363  0.53871  1.0000
  C   C987      1.0  0.30817  0.31097  0.74294  1.0000
  H   H808      1.0  0.24990  0.12440  0.88979  1.0000
  H   H809      1.0  0.41607  0.31959  0.93310  1.0000
  C   C988      1.0  0.48084  0.03094  0.51209  1.0000
  C   C989      1.0  0.47563  0.18369  0.84946  1.0000
  H   H810      1.0  0.29529  0.30875  0.84242  1.0000
  Fe  Fe79      1.0  0.41055  0.04810  0.98504  1.0000
  H   H811      1.0  0.34533  0.32201  0.54738  1.0000
  C   C990      1.0  0.44560  0.31295  0.50301  1.0000
  H   H812      1.0  0.48784  0.05612  0.63189  1.0000
  H   H813      1.0  0.47618  0.01492  0.50946  1.0000
  C   C991      1.0  0.48993  0.17954  0.91776  1.0000
  H   H814      1.0  0.28007  0.30631  0.95131  1.0000
  H   H815      1.0  0.29112  0.24622  0.50437  1.0000
  C   C992      1.0  0.47082  0.14528  0.98762  1.0000
  C   C993      1.0  0.33182  0.20466  0.49951  1.0000
  H   H816      1.0  0.43885  0.99622  0.84497  1.0000
  H   H817      1.0  0.33833  0.31344  0.91044  1.0000
  H   H818      1.0  0.44927  0.00127  0.79719  1.0000
  H   H819      1.0  0.48042  0.09372  0.64634  1.0000
  C   C994      1.0  0.49086  0.08983  0.62912  1.0000
  C   C995      1.0  0.39628  0.99205  0.64774  1.0000
  H   H820      1.0  0.42151  0.15502  0.49668  1.0000
  C   C996      1.0  0.25378  0.30661  0.97942  1.0000
  C   C997      1.0  0.48266  0.13557  0.55866  1.0000
  H   H821      1.0  0.48425  0.19711  0.85585  1.0000
  C   C998      1.0  0.45026  0.98938  0.64206  1.0000
  H   H822      1.0  0.24559  0.23057  0.78524  1.0000
  H   H823      1.0  0.48945  0.19600  0.56618  1.0000
  H   H824      1.0  0.38901  0.98917  0.53605  1.0000
  C   C999      1.0  0.37736  0.35032  0.38142  1.0000
  C   C1000     1.0  0.46447  0.52606  0.29612  1.0000
  C   C1001     1.0  0.34713  0.60622  0.23753  1.0000
  Fe  Fe80      1.0  0.40285  0.63928  0.04314  1.0000
  C   C1002     1.0  0.43142  0.63236  0.13237  1.0000
  C   C1003     1.0  0.37843  0.63709  0.38030  1.0000
  H   H825      1.0  0.30082  0.35262  0.09732  1.0000
  S   S152      1.0  0.37996  0.40881  0.45398  1.0000
  H   H826      1.0  0.31523  0.33582  0.02692  1.0000
  H   H827      1.0  0.38778  0.56928  0.35384  1.0000
  S   S153      1.0  0.35416  0.45659  0.45639  1.0000
  H   H828      1.0  0.48056  0.37890  0.43504  1.0000
  S   S154      1.0  0.27448  0.34960  0.15531  1.0000
  S   S155      1.0  0.36116  0.43244  0.02886  1.0000
  Fe  Fe81      1.0  0.36735  0.43363  0.42364  1.0000
  S   S156      1.0  0.35213  0.42056  0.38532  1.0000
  C   C1004     1.0  0.47011  0.48796  0.30307  1.0000
  S   S157      1.0  0.39864  0.44801  0.42027  1.0000
  Fe  Fe82      1.0  0.43695  0.59723  0.25459  1.0000
  S   S158      1.0  0.40302  0.61149  0.25406  1.0000
  S   S159      1.0  0.45194  0.56458  0.24202  1.0000
  Fe  Fe83      1.0  0.45464  0.63974  0.27107  1.0000
  C   C1005     1.0  0.29839  0.56207  0.01811  1.0000
  Fe  Fe84      1.0  0.41182  0.62847  0.29280  1.0000
  Fe  Fe85      1.0  0.41544  0.63946  0.23301  1.0000
  S   S160      1.0  0.44494  0.61179  0.29526  1.0000
  S   S161      1.0  0.44864  0.62407  0.23061  1.0000
  Fe  Fe86      1.0  0.34764  0.47135  0.17497  1.0000
  S   S162      1.0  0.37642  0.44805  0.17180  1.0000
  C   C1006     1.0  0.42466  0.63676  0.15932  1.0000
  Fe  Fe87      1.0  0.34473  0.46463  0.23728  1.0000
  S   S163      1.0  0.37345  0.44104  0.23719  1.0000
  Fe  Fe88      1.0  0.38765  0.46431  0.20961  1.0000
  S   S164      1.0  0.42169  0.47299  0.21358  1.0000
  Fe  Fe89      1.0  0.35854  0.42764  0.19945  1.0000
  S   S165      1.0  0.35872  0.39177  0.19330  1.0000
  S   S166      1.0  0.35985  0.48874  0.21159  1.0000
  H   H829      1.0  0.38419  0.38333  0.38174  1.0000
  C   C1007     1.0  0.33532  0.38028  0.18226  1.0000
  C   C1008     1.0  0.33468  0.35805  0.18310  1.0000
  C   C1009     1.0  0.31614  0.34848  0.17497  1.0000
  C   C1010     1.0  0.29804  0.36106  0.16598  1.0000
  C   C1011     1.0  0.29872  0.38329  0.16506  1.0000
  C   C1012     1.0  0.31730  0.39285  0.17298  1.0000
  H   H830      1.0  0.34853  0.34820  0.19031  1.0000
  C   C1013     1.0  0.35184  0.62201  0.19315  1.0000
  H   H831      1.0  0.28482  0.39320  0.15816  1.0000
  H   H832      1.0  0.31765  0.40996  0.17190  1.0000
  C   C1014     1.0  0.44177  0.53990  0.23388  1.0000
  C   C1015     1.0  0.41995  0.53662  0.23378  1.0000
  C   C1016     1.0  0.41325  0.51621  0.22740  1.0000
  C   C1017     1.0  0.42842  0.49910  0.22146  1.0000
  C   C1018     1.0  0.45010  0.50255  0.22189  1.0000
  C   C1019     1.0  0.45667  0.52282  0.22752  1.0000
  H   H833      1.0  0.40833  0.54977  0.23844  1.0000
  H   H834      1.0  0.39646  0.51371  0.22721  1.0000
  H   H835      1.0  0.46193  0.48946  0.21762  1.0000
  H   H836      1.0  0.47353  0.52516  0.22738  1.0000
  C   C1020     1.0  0.34730  0.43664  0.35600  1.0000
  C   C1021     1.0  0.33500  0.45621  0.35749  1.0000
  C   C1022     1.0  0.32954  0.46773  0.33342  1.0000
  C   C1023     1.0  0.33670  0.46002  0.30773  1.0000
  C   C1024     1.0  0.34891  0.44037  0.30632  1.0000
  C   C1025     1.0  0.35401  0.42867  0.33028  1.0000
  H   H837      1.0  0.32930  0.46227  0.37715  1.0000
  H   H838      1.0  0.35385  0.43382  0.28673  1.0000
  H   H839      1.0  0.36315  0.41335  0.32881  1.0000
  C   C1026     1.0  0.35629  0.44872  0.05827  1.0000
  C   C1027     1.0  0.35251  0.43881  0.08320  1.0000
  C   C1028     1.0  0.34754  0.45091  0.10691  1.0000
  C   C1029     1.0  0.34617  0.47317  0.10597  1.0000
  C   C1030     1.0  0.36396  0.59839  0.12679  1.0000
  C   C1031     1.0  0.35553  0.47102  0.05737  1.0000
  H   H840      1.0  0.35352  0.42165  0.08428  1.0000
  H   H841      1.0  0.34428  0.44297  0.12581  1.0000
  H   H842      1.0  0.38058  0.39611  0.13642  1.0000
  C   C1032     1.0  0.29506  0.55529  0.11157  1.0000
  C   C1033     1.0  0.30336  0.58864  0.33305  1.0000
  H   H843      1.0  0.43435  0.63055  0.17624  1.0000
  H   H844      1.0  0.44631  0.62286  0.12874  1.0000
  H   H845      1.0  0.36197  0.63547  0.23123  1.0000
  S   S167      1.0  0.38632  0.63114  0.32543  1.0000
  H   H846      1.0  0.31583  0.33140  0.17571  1.0000
  H   H847      1.0  0.43795  0.33759  0.36829  1.0000
  H   H848      1.0  0.33401  0.60319  0.41992  1.0000
  C   C1034     1.0  0.35239  0.37099  0.01471  1.0000
  C   C1035     1.0  0.30813  0.57324  0.46435  1.0000
  C   C1036     1.0  0.24691  0.34059  0.07710  1.0000
  C   C1037     1.0  0.41270  0.55401  0.03846  1.0000
  C   C1038     1.0  0.32492  0.55102  0.42853  1.0000
  H   H849      1.0  0.41754  0.59066  0.13919  1.0000
  C   C1039     1.0  0.45252  0.33501  0.42986  1.0000
  C   C1040     1.0  0.43231  0.34463  0.43706  1.0000
  C   C1041     1.0  0.42938  0.36656  0.44303  1.0000
  C   C1042     1.0  0.44671  0.37907  0.44210  1.0000
  C   C1043     1.0  0.46706  0.36933  0.43569  1.0000
  C   C1044     1.0  0.46997  0.34738  0.42948  1.0000
  H   H850      1.0  0.41872  0.33521  0.43753  1.0000
  H   H851      1.0  0.41369  0.37379  0.44814  1.0000
  H   H852      1.0  0.34526  0.54445  0.33381  1.0000
  H   H853      1.0  0.25239  0.56404  0.02351  1.0000
  S   S168      1.0  0.32880  0.45013  0.20075  1.0000
  H   H854      1.0  0.35787  0.63458  0.18111  1.0000
  C   C1045     1.0  0.46790  0.49846  0.10191  1.0000
  H   H855      1.0  0.30410  0.61321  0.30262  1.0000
  C   C1046     1.0  0.30412  0.63257  0.06092  1.0000
  C   C1047     1.0  0.32575  0.34536  0.01572  1.0000
  C   C1048     1.0  0.36336  0.37982  0.10553  1.0000
  P   P32       1.0  0.34097  0.35762  0.06676  1.0000
  C   C1049     1.0  0.36465  0.36788  0.08104  1.0000
  H   H856      1.0  0.32076  0.50656  0.04545  1.0000
  H   H857      1.0  0.31628  0.57474  0.05182  1.0000
  C   C1050     1.0  0.28644  0.60762  0.03218  1.0000
  C   C1051     1.0  0.31756  0.36589  0.32219  1.0000
  C   C1052     1.0  0.26600  0.63046  0.06473  1.0000
  C   C1053     1.0  0.29421  0.34819  0.35250  1.0000
  S   S169      1.0  0.42760  0.63370  0.07654  1.0000
  C   C1054     1.0  0.43295  0.55183  0.05071  1.0000
  C   C1055     1.0  0.43682  0.53834  0.07321  1.0000
  C   C1056     1.0  0.42054  0.52651  0.08306  1.0000
  C   C1057     1.0  0.40009  0.52931  0.07116  1.0000
  P   P33       1.0  0.42474  0.50900  0.11201  1.0000
  C   C1058     1.0  0.41700  0.48276  0.10368  1.0000
  C   C1059     1.0  0.45253  0.50464  0.12181  1.0000
  C   C1060     1.0  0.45883  0.50566  0.14941  1.0000
  C   C1061     1.0  0.31448  0.52202  0.03796  1.0000
  C   C1062     1.0  0.32794  0.58915  0.42866  1.0000
  H   H858      1.0  0.36121  0.60133  0.35058  1.0000
  C   C1063     1.0  0.48036  0.50172  0.15679  1.0000
  C   C1064     1.0  0.41320  0.47675  0.07639  1.0000
  H   H859      1.0  0.40560  0.59549  0.44646  1.0000
  C   C1065     1.0  0.40694  0.44118  0.09107  1.0000
  C   C1066     1.0  0.41138  0.44681  0.11812  1.0000
  C   C1067     1.0  0.41626  0.46756  0.12449  1.0000
  C   C1068     1.0  0.40859  0.52180  0.13879  1.0000
  C   C1069     1.0  0.38827  0.51528  0.14434  1.0000
  C   C1070     1.0  0.37520  0.52628  0.16375  1.0000
  C   C1071     1.0  0.38237  0.54371  0.17789  1.0000
  C   C1072     1.0  0.40251  0.55042  0.17225  1.0000
  C   C1073     1.0  0.41544  0.53973  0.15247  1.0000
  C   C1074     1.0  0.38126  0.58328  0.42078  1.0000
  H   H860      1.0  0.45243  0.53737  0.08285  1.0000
  H   H861      1.0  0.38712  0.52086  0.07902  1.0000
  C   C1075     1.0  0.30173  0.35174  0.32616  1.0000
  C   C1076     1.0  0.41190  0.58154  0.37944  1.0000
  H   H862      1.0  0.36218  0.35121  0.32142  1.0000
  C   C1077     1.0  0.32568  0.37640  0.34499  1.0000
  H   H863      1.0  0.46319  0.49659  0.08067  1.0000
  H   H864      1.0  0.46930  0.50122  0.41033  1.0000
  H   H865      1.0  0.40294  0.54703  0.46095  1.0000
  H   H866      1.0  0.40245  0.42536  0.08614  1.0000
  H   H867      1.0  0.35439  0.39617  0.25494  1.0000
  H   H868      1.0  0.41949  0.47174  0.14565  1.0000
  H   H869      1.0  0.38236  0.50185  0.13356  1.0000
  H   H870      1.0  0.35952  0.52112  0.16784  1.0000
  H   H871      1.0  0.37245  0.55188  0.19339  1.0000
  H   H872      1.0  0.40821  0.56381  0.18340  1.0000
  H   H873      1.0  0.43082  0.54540  0.14797  1.0000
  C   C1078     1.0  0.36413  0.59432  0.09846  1.0000
  C   C1079     1.0  0.38343  0.58931  0.08494  1.0000
  C   C1080     1.0  0.40266  0.58797  0.09962  1.0000
  C   C1081     1.0  0.30164  0.59234  0.11852  1.0000
  C   C1082     1.0  0.28863  0.57697  0.10862  1.0000
  C   C1083     1.0  0.33749  0.58943  0.22494  1.0000
  H   H874      1.0  0.34940  0.59549  0.08661  1.0000
  H   H875      1.0  0.38348  0.58695  0.06292  1.0000
  S   S170      1.0  0.32952  0.47498  0.27789  1.0000
  H   H876      1.0  0.29643  0.60897  0.11566  1.0000
  H   H877      1.0  0.27361  0.58188  0.09851  1.0000
  H   H878      1.0  0.28504  0.54334  0.10390  1.0000
  H   H879      1.0  0.34934  0.60654  0.25958  1.0000
  H   H880      1.0  0.33204  0.57674  0.23727  1.0000
  H   H881      1.0  0.32718  0.57594  0.18722  1.0000
  C   C1084     1.0  0.31470  0.57734  0.35388  1.0000
  C   C1085     1.0  0.31113  0.32799  0.43911  1.0000
  H   H882      1.0  0.35441  0.33457  0.26646  1.0000
  Fe  Fe90      1.0  0.36963  0.61768  0.01056  1.0000
  H   H883      1.0  0.28220  0.33701  0.35548  1.0000
  C   C1086     1.0  0.49047  0.48791  0.29162  1.0000
  C   C1087     1.0  0.35704  0.51202  0.34051  1.0000
  H   H884      1.0  0.45479  0.54102  0.29709  1.0000
  C   C1088     1.0  0.35526  0.37420  0.28904  1.0000
  H   H885      1.0  0.29600  0.35658  0.39525  1.0000
  H   H886      1.0  0.31846  0.64000  0.06659  1.0000
  C   C1089     1.0  0.31569  0.59123  0.45246  1.0000
  H   H887      1.0  0.30693  0.53921  0.46167  1.0000
  C   C1090     1.0  0.40548  0.64914  0.16419  1.0000
  H   H888      1.0  0.41856  0.36605  0.07169  1.0000
  H   H889      1.0  0.41082  0.43514  0.13421  1.0000
  C   C1091     1.0  0.38424  0.64004  0.40787  1.0000
  C   C1092     1.0  0.30214  0.35901  0.37496  1.0000
  C   C1093     1.0  0.32197  0.34953  0.26515  1.0000
  H   H890      1.0  0.32397  0.38168  0.38856  1.0000
  H   H891      1.0  0.36998  0.48075  0.35273  1.0000
  H   H892      1.0  0.36982  0.58404  0.43719  1.0000
  C   C1094     1.0  0.38646  0.38811  0.26893  1.0000
  C   C1095     1.0  0.31256  0.55319  0.45224  1.0000
  H   H893      1.0  0.34127  0.62116  0.31422  1.0000
  C   C1096     1.0  0.34073  0.64487  0.11759  1.0000
  Fe  Fe91      1.0  0.38667  0.46923  0.45526  1.0000
  C   C1097     1.0  0.33316  0.56895  0.41694  1.0000
  C   C1098     1.0  0.45514  0.50784  0.39954  1.0000
  H   H894      1.0  0.32020  0.61211  0.03104  1.0000
  H   H895      1.0  0.28179  0.33072  0.22711  1.0000
  C   C1099     1.0  0.31290  0.60440  0.31867  1.0000
  C   C1100     1.0  0.34029  0.35740  0.02972  1.0000
  C   C1101     1.0  0.31306  0.39572  0.27608  1.0000
  C   C1102     1.0  0.30908  0.39867  0.24795  1.0000
  C   C1103     1.0  0.29852  0.41765  0.23844  1.0000
  C   C1104     1.0  0.29239  0.43411  0.25682  1.0000
  C   C1105     1.0  0.29646  0.43141  0.28479  1.0000
  C   C1106     1.0  0.30672  0.41230  0.29445  1.0000
  C   C1107     1.0  0.31467  0.54895  0.12403  1.0000
  C   C1108     1.0  0.39951  0.65207  0.11486  1.0000
  H   H896      1.0  0.41592  0.38751  0.11464  1.0000
  Fe  Fe92      1.0  0.37001  0.43308  0.48655  1.0000
  C   C1109     1.0  0.40168  0.38193  0.10533  1.0000
  H   H897      1.0  0.29555  0.41978  0.21670  1.0000
  H   H898      1.0  0.28498  0.44916  0.24936  1.0000
  H   H899      1.0  0.29230  0.44443  0.29894  1.0000
  H   H900      1.0  0.31012  0.41092  0.31612  1.0000
  C   C1110     1.0  0.40259  0.59152  0.12789  1.0000
  H   H901      1.0  0.34974  0.50040  0.08047  1.0000
  C   C1111     1.0  0.33379  0.60885  0.32512  1.0000
  C   C1112     1.0  0.31166  0.56059  0.04147  1.0000
  H   H902      1.0  0.48562  0.34014  0.42399  1.0000
  H   H903      1.0  0.37714  0.49165  0.40063  1.0000
  H   H904      1.0  0.29516  0.34332  0.30912  1.0000
  C   C1113     1.0  0.39154  0.57502  0.37403  1.0000
  S   S171      1.0  0.39469  0.50363  0.45476  1.0000
  C   C1114     1.0  0.38473  0.36257  0.06924  1.0000
  S   S172      1.0  0.44355  0.40682  0.44872  1.0000
  H   H905      1.0  0.29933  0.57477  0.48336  1.0000
  H   H906      1.0  0.28715  0.58517  0.32812  1.0000
  H   H907      1.0  0.41689  0.37686  0.28643  1.0000
  H   H908      1.0  0.37225  0.64061  0.42368  1.0000
  C   C1115     1.0  0.39073  0.36690  0.37940  1.0000
  S   S173      1.0  0.35448  0.58643  0.01079  1.0000
  C   C1116     1.0  0.36432  0.38711  0.26973  1.0000
  C   C1117     1.0  0.37597  0.57604  0.39452  1.0000
  H   H909      1.0  0.43765  0.64262  0.39949  1.0000
  C   C1118     1.0  0.39973  0.37613  0.28721  1.0000
  C   C1119     1.0  0.31829  0.37569  0.07592  1.0000
  C   C1120     1.0  0.30110  0.36900  0.09087  1.0000
  C   C1121     1.0  0.28405  0.38370  0.09805  1.0000
  C   C1122     1.0  0.28408  0.40508  0.09055  1.0000
  C   C1123     1.0  0.30099  0.41174  0.07529  1.0000
  C   C1124     1.0  0.31789  0.39706  0.06775  1.0000
  H   H910      1.0  0.27110  0.41650  0.09673  1.0000
  C   C1125     1.0  0.34033  0.33145  0.08167  1.0000
  H   H911      1.0  0.30103  0.63247  0.16035  1.0000
  C   C1126     1.0  0.36493  0.52428  0.39451  1.0000
  H   H912      1.0  0.42368  0.58127  0.36333  1.0000
  C   C1127     1.0  0.35193  0.53314  0.34880  1.0000
  H   H913      1.0  0.33026  0.53957  0.06896  1.0000
  S   S174      1.0  0.40490  0.61886  0.00525  1.0000
  H   H914      1.0  0.41425  0.48780  0.05970  1.0000
  C   C1128     1.0  0.38061  0.52472  0.47284  1.0000
  H   H915      1.0  0.34817  0.38365  0.11559  1.0000
  H   H916      1.0  0.31441  0.38645  0.23323  1.0000
  H   H917      1.0  0.33776  0.34378  0.12314  1.0000
  H   H918      1.0  0.38616  0.35288  0.05082  1.0000
  H   H919      1.0  0.32812  0.53530  0.41970  1.0000
  C   C1129     1.0  0.42107  0.64124  0.39419  1.0000
  C   C1130     1.0  0.38843  0.54488  0.47200  1.0000
  Fe  Fe93      1.0  0.39155  0.64042  0.48468  1.0000
  H   H920      1.0  0.30120  0.42832  0.06951  1.0000
  H   H921      1.0  0.33082  0.40246  0.05574  1.0000
  C   C1131     1.0  0.33906  0.32964  0.11025  1.0000
  H   H922      1.0  0.35863  0.47883  0.03832  1.0000
  C   C1132     1.0  0.31790  0.37308  0.37121  1.0000
  H   H923      1.0  0.27105  0.37862  0.11014  1.0000
  H   H924      1.0  0.40450  0.45163  0.04930  1.0000
  H   H925      1.0  0.44003  0.52126  0.43607  1.0000
  C   C1133     1.0  0.42025  0.52730  0.40033  1.0000
  C   C1134     1.0  0.43873  0.51918  0.41406  1.0000
  H   H926      1.0  0.43266  0.59408  0.40982  1.0000
  C   C1135     1.0  0.45305  0.50461  0.37129  1.0000
  C   C1136     1.0  0.43451  0.51280  0.35735  1.0000
  C   C1137     1.0  0.41800  0.52389  0.37218  1.0000
  P   P34       1.0  0.43094  0.50701  0.32141  1.0000
  C   C1138     1.0  0.42145  0.48085  0.31755  1.0000
  C   C1139     1.0  0.41177  0.52704  0.30673  1.0000
  C   C1140     1.0  0.39396  0.52112  0.29177  1.0000
  C   C1141     1.0  0.37876  0.53667  0.28154  1.0000
  C   C1142     1.0  0.38124  0.55827  0.28599  1.0000
  C   C1143     1.0  0.39887  0.56433  0.30080  1.0000
  C   C1144     1.0  0.41389  0.54881  0.31146  1.0000
  C   C1145     1.0  0.41353  0.47019  0.34000  1.0000
  C   C1146     1.0  0.40575  0.45016  0.33637  1.0000
  C   C1147     1.0  0.40604  0.44058  0.31043  1.0000
  C   C1148     1.0  0.41425  0.45095  0.28813  1.0000
  C   C1149     1.0  0.42185  0.47101  0.29164  1.0000
  C   C1150     1.0  0.45681  0.50704  0.30524  1.0000
  H   H927      1.0  0.48042  0.58225  0.15450  1.0000
  C   C1151     1.0  0.40563  0.64200  0.41491  1.0000
  C   C1152     1.0  0.34847  0.32935  0.42769  1.0000
  P   P35       1.0  0.32695  0.37118  0.28818  1.0000
  H   H928      1.0  0.46488  0.47309  0.31041  1.0000
  H   H929      1.0  0.40743  0.53574  0.41178  1.0000
  H   H930      1.0  0.38040  0.54508  0.04005  1.0000
  C   C1153     1.0  0.41700  0.58871  0.40562  1.0000
  C   C1154     1.0  0.30148  0.34816  0.25390  1.0000
  H   H931      1.0  0.40320  0.52955  0.36216  1.0000
  H   H932      1.0  0.39158  0.50455  0.28789  1.0000
  H   H933      1.0  0.36517  0.53184  0.26992  1.0000
  H   H934      1.0  0.36961  0.57032  0.27786  1.0000
  H   H935      1.0  0.40078  0.58110  0.30439  1.0000
  H   H936      1.0  0.42704  0.55384  0.32368  1.0000
  H   H937      1.0  0.41306  0.47733  0.36027  1.0000
  H   H938      1.0  0.39925  0.44215  0.35364  1.0000
  H   H939      1.0  0.39975  0.42522  0.30759  1.0000
  H   H940      1.0  0.41455  0.44363  0.26796  1.0000
  H   H941      1.0  0.42788  0.47897  0.27407  1.0000
  H   H942      1.0  0.48612  0.61838  0.13893  1.0000
  H   H943      1.0  0.28857  0.36010  0.25871  1.0000
  H   H944      1.0  0.36251  0.38173  0.02497  1.0000
  C   C1155     1.0  0.33102  0.33560  0.44440  1.0000
  H   H945      1.0  0.42739  0.63712  0.35094  1.0000
  C   C1156     1.0  0.41530  0.63804  0.36667  1.0000
  H   H946      1.0  0.34317  0.55907  0.14267  1.0000
  S   S175      1.0  0.35590  0.63910  0.48329  1.0000
  C   C1157     1.0  0.39398  0.63580  0.35967  1.0000
  H   H947      1.0  0.25218  0.60805  0.03832  1.0000
  H   H948      1.0  0.29764  0.33253  0.45227  1.0000
  S   S176      1.0  0.33848  0.48848  0.13535  1.0000
  H   H949      1.0  0.36048  0.35429  0.38479  1.0000
  H   H950      1.0  0.44553  0.56083  0.04292  1.0000
  Fe  Fe94      1.0  0.41053  0.42448  0.45242  1.0000
  C   C1158     1.0  0.36614  0.49711  0.35916  1.0000
  H   H951      1.0  0.44715  0.50907  0.16536  1.0000
  H   H952      1.0  0.31980  0.48272  0.33475  1.0000
  C   C1159     1.0  0.33489  0.58897  0.19642  1.0000
  C   C1160     1.0  0.29752  0.33142  0.23616  1.0000
  C   C1161     1.0  0.36873  0.36189  0.30703  1.0000
  H   H953      1.0  0.29793  0.50889  0.00391  1.0000
  H   H954      1.0  0.41767  0.58473  0.08899  1.0000
  H   H955      1.0  0.39330  0.39791  0.25370  1.0000
  C   C1162     1.0  0.40170  0.58955  0.42628  1.0000
  S   S177      1.0  0.36820  0.63598  0.05029  1.0000
  C   C1163     1.0  0.39625  0.54294  0.04893  1.0000
  C   C1164     1.0  0.35041  0.48321  0.08120  1.0000
  C   C1165     1.0  0.38335  0.59693  0.14147  1.0000
  C   C1166     1.0  0.32903  0.63246  0.13478  1.0000
  C   C1167     1.0  0.32120  0.58609  0.13149  1.0000
  C   C1168     1.0  0.26688  0.61452  0.04454  1.0000
  C   C1169     1.0  0.28460  0.63947  0.07291  1.0000
  H   H956      1.0  0.36187  0.63559  0.37503  1.0000
  C   C1170     1.0  0.32780  0.56426  0.13363  1.0000
  C   C1171     1.0  0.34217  0.60524  0.18029  1.0000
  H   H957      1.0  0.38386  0.60010  0.16325  1.0000
  H   H958      1.0  0.31981  0.53211  0.12598  1.0000
  H   H959      1.0  0.38391  0.57774  0.48444  1.0000
  C   C1172     1.0  0.40314  0.36981  0.08118  1.0000
  H   H960      1.0  0.35575  0.63851  0.10892  1.0000
  C   C1173     1.0  0.30154  0.52335  0.01454  1.0000
  H   H961      1.0  0.30715  0.56513  0.36486  1.0000
  H   H962      1.0  0.35384  0.50707  0.31963  1.0000
  P   P36       1.0  0.33881  0.60549  0.14350  1.0000
  C   C1174     1.0  0.35422  0.62253  0.22162  1.0000
  H   H963      1.0  0.36830  0.52885  0.41544  1.0000
  C   C1175     1.0  0.31004  0.64163  0.14654  1.0000
  H   H964      1.0  0.36389  0.33501  0.43255  1.0000
  H   H965      1.0  0.31266  0.60668  0.46224  1.0000
  C   C1176     1.0  0.31966  0.54063  0.05130  1.0000
  C   C1177     1.0  0.37004  0.50321  0.38615  1.0000
  C   C1178     1.0  0.33573  0.58167  0.36036  1.0000
  C   C1179     1.0  0.38587  0.32896  0.37975  1.0000
  C   C1180     1.0  0.34515  0.59753  0.34588  1.0000
  C   C1181     1.0  0.40801  0.45609  0.07023  1.0000
  C   C1182     1.0  0.39087  0.36291  0.30611  1.0000
  S   S178      1.0  0.41379  0.64518  0.44929  1.0000
  C   C1183     1.0  0.35561  0.53936  0.37604  1.0000
  H   H966      1.0  0.40118  0.35323  0.31980  1.0000
  C   C1184     1.0  0.33842  0.33389  0.25831  1.0000
  H   H967      1.0  0.33774  0.38754  0.34253  1.0000
  C   C1185     1.0  0.41259  0.36231  0.37491  1.0000
  H   H968      1.0  0.33298  0.34626  0.46152  1.0000
  H   H969      1.0  0.42306  0.37514  0.37433  1.0000
  P   P37       1.0  0.35007  0.56669  0.38710  1.0000
  H   H970      1.0  0.40962  0.56458  0.02117  1.0000
  C   C1186     1.0  0.38180  0.38687  0.11753  1.0000
  C   C1187     1.0  0.48490  0.52599  0.28493  1.0000
  C   C1188     1.0  0.30503  0.61682  0.04057  1.0000
  H   H971      1.0  0.46575  0.49542  0.36052  1.0000
  C   C1189     1.0  0.41876  0.63977  0.11008  1.0000
  C   C1190     1.0  0.42095  0.34116  0.37149  1.0000
  C   C1191     1.0  0.36185  0.52214  0.48733  1.0000
  S   S179      1.0  0.40161  0.44713  0.48712  1.0000
  P   P38       1.0  0.28774  0.58772  0.00515  1.0000
  H   H972      1.0  0.34588  0.54258  0.00549  1.0000
  C   C1192     1.0  0.37772  0.56235  0.48549  1.0000
  H   H973      1.0  0.26154  0.33902  0.08919  1.0000
  H   H974      1.0  0.25078  0.63632  0.07351  1.0000
  H   H975      1.0  0.48678  0.57225  0.20314  1.0000
  S   S180      1.0  0.48832  0.65041  0.27401  1.0000
  C   C1193     1.0  0.24342  0.32568  0.05652  1.0000
  C   C1194     1.0  0.29356  0.54326  0.00459  1.0000
  C   C1195     1.0  0.24724  0.57265  0.00514  1.0000
  C   C1196     1.0  0.48927  0.61436  0.16015  1.0000
  H   H976      1.0  0.35568  0.50663  0.48808  1.0000
  H   H977      1.0  0.48508  0.50265  0.17814  1.0000
  C   C1197     1.0  0.48605  0.59375  0.16886  1.0000
  C   C1198     1.0  0.48943  0.49448  0.10934  1.0000
  H   H978      1.0  0.28374  0.65235  0.08779  1.0000
  C   C1199     1.0  0.40760  0.32456  0.37351  1.0000
  H   H979      1.0  0.49038  0.54076  0.27752  1.0000
  C   C1200     1.0  0.48972  0.58806  0.19622  1.0000
  C   C1201     1.0  0.35915  0.54510  0.99240  1.0000
  H   H980      1.0  0.48219  0.52038  0.72087  1.0000
  P   P39       1.0  0.28154  0.38573  0.60919  1.0000
  S   S181      1.0  0.34161  0.46736  0.77860  1.0000
  C   C1202     1.0  0.26345  0.35279  0.82635  1.0000
  S   S182      1.0  0.39977  0.50963  0.94256  1.0000
  C   C1203     1.0  0.45241  0.41780  0.84995  1.0000
  H   H981      1.0  0.37659  0.37349  0.64116  1.0000
  S   S183      1.0  0.38837  0.41580  0.96224  1.0000
  H   H982      1.0  0.24836  0.65002  0.55083  1.0000
  Fe  Fe95      1.0  0.39289  0.47584  0.95221  1.0000
  S   S184      1.0  0.36082  0.46232  0.95478  1.0000
  C   C1204     1.0  0.42820  0.62818  0.63576  1.0000
  H   H983      1.0  0.34315  0.35094  0.89817  1.0000
  S   S185      1.0  0.35646  0.42017  0.52546  1.0000
  Fe  Fe96      1.0  0.37575  0.43633  0.92727  1.0000
  S   S186      1.0  0.36191  0.41926  0.89098  1.0000
  H   H984      1.0  0.24570  0.35281  0.74209  1.0000
  S   S187      1.0  0.40652  0.45123  0.92217  1.0000
  Fe  Fe97      1.0  0.44737  0.59230  0.75093  1.0000
  S   S188      1.0  0.41377  0.60734  0.75364  1.0000
  S   S189      1.0  0.45929  0.55926  0.73508  1.0000
  Fe  Fe98      1.0  0.46639  0.63247  0.77455  1.0000
  H   H985      1.0  0.27199  0.61915  0.58633  1.0000
  Fe  Fe99      1.0  0.42350  0.61937  0.79505  1.0000
  H   H986      1.0  0.29591  0.62957  0.98339  1.0000
  S   S190      1.0  0.45631  0.60236  0.79345  1.0000
  S   S191      1.0  0.46004  0.62113  0.73163  1.0000
  Fe  Fe100     1.0  0.35991  0.45697  0.67671  1.0000
  S   S192      1.0  0.38924  0.43419  0.67546  1.0000
  S   S193      1.0  0.34764  0.47264  0.63733  1.0000
  Fe  Fe101     1.0  0.35757  0.45451  0.73973  1.0000
  S   S194      1.0  0.38664  0.43137  0.74205  1.0000
  Fe  Fe102     1.0  0.40016  0.45313  0.71151  1.0000
  S   S195      1.0  0.43330  0.46444  0.71545  1.0000
  Fe  Fe103     1.0  0.37189  0.41536  0.70595  1.0000
  S   S196      1.0  0.37043  0.37948  0.70096  1.0000
  S   S197      1.0  0.37189  0.47698  0.71092  1.0000
  C   C1205     1.0  0.29825  0.33472  0.79064  1.0000
  C   C1206     1.0  0.34502  0.36919  0.69982  1.0000
  C   C1207     1.0  0.34306  0.34839  0.68997  1.0000
  C   C1208     1.0  0.32284  0.34021  0.68816  1.0000
  C   C1209     1.0  0.30456  0.35265  0.69681  1.0000
  C   C1210     1.0  0.30670  0.37308  0.70753  1.0000
  C   C1211     1.0  0.32675  0.38137  0.70883  1.0000
  H   H987      1.0  0.35715  0.33875  0.68323  1.0000
  H   H988      1.0  0.33158  0.34083  0.79076  1.0000
  H   H989      1.0  0.29272  0.38263  0.71476  1.0000
  H   H990      1.0  0.32807  0.39713  0.71703  1.0000
  C   C1212     1.0  0.45019  0.53361  0.72941  1.0000
  C   C1213     1.0  0.42873  0.52908  0.73116  1.0000
  C   C1214     1.0  0.42290  0.50813  0.72598  1.0000
  C   C1215     1.0  0.43865  0.49154  0.71989  1.0000
  C   C1216     1.0  0.45995  0.49629  0.71809  1.0000
  C   C1217     1.0  0.46561  0.51709  0.72253  1.0000
  H   H991      1.0  0.41673  0.54166  0.73640  1.0000
  H   H992      1.0  0.40635  0.50479  0.72718  1.0000
  H   H993      1.0  0.47224  0.48376  0.71323  1.0000
  P   P40       1.0  0.39635  0.32625  0.83513  1.0000
  C   C1218     1.0  0.35787  0.43335  0.85995  1.0000
  C   C1219     1.0  0.35068  0.45500  0.85971  1.0000
  C   C1220     1.0  0.34600  0.46538  0.83464  1.0000
  C   C1221     1.0  0.34912  0.45438  0.80967  1.0000
  C   C1222     1.0  0.35688  0.43287  0.80995  1.0000
  C   C1223     1.0  0.36097  0.42234  0.83501  1.0000
  H   H994      1.0  0.34820  0.46362  0.87883  1.0000
  H   H995      1.0  0.35906  0.42420  0.79087  1.0000
  H   H996      1.0  0.36659  0.40564  0.83512  1.0000
  C   C1224     1.0  0.35560  0.43504  0.55641  1.0000
  C   C1225     1.0  0.35515  0.42423  0.58147  1.0000
  C   C1226     1.0  0.35360  0.43560  0.60643  1.0000
  C   C1227     1.0  0.35163  0.45792  0.60647  1.0000
  C   C1228     1.0  0.35195  0.46873  0.58140  1.0000
  C   C1229     1.0  0.35432  0.45734  0.55649  1.0000
  H   H997      1.0  0.35598  0.40700  0.58156  1.0000
  H   H998      1.0  0.35332  0.42710  0.62559  1.0000
  H   H999      1.0  0.35453  0.46583  0.53731  1.0000
  H   H1000     1.0  0.30877  0.41027  0.75835  1.0000
  C   C1230     1.0  0.41382  0.63717  0.61608  1.0000
  H   H1001     1.0  0.37728  0.36641  0.59151  1.0000
  C   C1231     1.0  0.30742  0.33974  0.84814  1.0000
  H   H1002     1.0  0.33997  0.48200  0.83460  1.0000
  C   C1232     1.0  0.30535  0.61747  0.97180  1.0000
  H   H1003     1.0  0.45658  0.43806  0.79980  1.0000
  H   H1004     1.0  0.35034  0.48598  0.58122  1.0000
  C   C1233     1.0  0.29239  0.63398  0.61515  1.0000
  C   C1234     1.0  0.38687  0.53082  0.96143  1.0000
  C   C1235     1.0  0.39216  0.36478  0.60292  1.0000
  C   C1236     1.0  0.27927  0.42079  0.57438  1.0000
  H   H1005     1.0  0.30093  0.42713  0.84318  1.0000
  C   C1237     1.0  0.44459  0.48541  0.90207  1.0000
  C   C1238     1.0  0.36951  0.52773  0.97823  1.0000
  C   C1239     1.0  0.46374  0.35114  0.91803  1.0000
  C   C1240     1.0  0.44561  0.36487  0.91167  1.0000
  C   C1241     1.0  0.44156  0.38441  0.92552  1.0000
  C   C1242     1.0  0.45599  0.39067  0.94531  1.0000
  C   C1243     1.0  0.47463  0.37738  0.95087  1.0000
  C   C1244     1.0  0.27729  0.41871  0.68211  1.0000
  H   H1006     1.0  0.43451  0.36027  0.89617  1.0000
  H   H1007     1.0  0.42725  0.39462  0.92096  1.0000
  H   H1008     1.0  0.48322  0.49390  0.77069  1.0000
  C   C1245     1.0  0.24822  0.36437  0.63007  1.0000
  S   S198      1.0  0.34188  0.43739  0.70547  1.0000
  C   C1246     1.0  0.30549  0.40571  0.77917  1.0000
  C   C1247     1.0  0.45109  0.47165  0.88054  1.0000
  H   H1009     1.0  0.36012  0.38216  0.97472  1.0000
  C   C1248     1.0  0.25532  0.34330  0.84959  1.0000
  H   H1010     1.0  0.41063  0.43500  0.55015  1.0000
  C   C1249     1.0  0.43421  0.41794  0.86639  1.0000
  H   H1011     1.0  0.44616  0.35675  0.59493  1.0000
  H   H1012     1.0  0.31750  0.39348  0.52032  1.0000
  C   C1250     1.0  0.41935  0.42019  0.54384  1.0000
  H   H1013     1.0  0.44532  0.47540  0.86002  1.0000
  C   C1251     1.0  0.45547  0.40248  0.82898  1.0000
  H   H1014     1.0  0.27936  0.64452  0.62317  1.0000
  H   H1015     1.0  0.32878  0.34713  0.51292  1.0000
  S   S199      1.0  0.35814  0.63524  0.55100  1.0000
  Fe  Fe104     1.0  0.36155  0.61297  0.51465  1.0000
  C   C1252     1.0  0.30393  0.43401  0.65475  1.0000
  P   P41       1.0  0.29185  0.35167  0.81994  1.0000
  H   H1016     1.0  0.32549  0.37698  0.62987  1.0000
  H   H1017     1.0  0.44223  0.37668  0.80725  1.0000
  H   H1018     1.0  0.25510  0.37055  0.78942  1.0000
  C   C1253     1.0  0.41177  0.35952  0.58970  1.0000
  C   C1254     1.0  0.35089  0.37148  0.98610  1.0000
  C   C1255     1.0  0.32759  0.32463  0.61167  1.0000
  H   H1019     1.0  0.26633  0.32463  0.78471  1.0000
  C   C1256     1.0  0.33785  0.60798  0.70760  1.0000
  C   C1257     1.0  0.44073  0.32569  0.83742  1.0000
  C   C1258     1.0  0.47843  0.35756  0.93743  1.0000
  H   H1020     1.0  0.30879  0.43714  0.79559  1.0000
  C   C1259     1.0  0.41963  0.64209  0.86528  1.0000
  C   C1260     1.0  0.31693  0.58047  0.96222  1.0000
  H   H1021     1.0  0.29361  0.44606  0.69428  1.0000
  S   S200      1.0  0.40726  0.45842  0.98887  1.0000
  C   C1261     1.0  0.35100  0.53979  0.50073  1.0000
  C   C1262     1.0  0.34497  0.34872  0.52001  1.0000
  Fe  Fe105     1.0  0.41819  0.43251  0.95895  1.0000
  C   C1263     1.0  0.33108  0.60850  0.93589  1.0000
  C   C1264     1.0  0.45133  0.48065  0.92884  1.0000
  C   C1265     1.0  0.41871  0.40380  0.86107  1.0000
  C   C1266     1.0  0.43083  0.35948  0.60496  1.0000
  C   C1267     1.0  0.30462  0.59575  0.97784  1.0000
  C   C1268     1.0  0.31847  0.62378  0.95083  1.0000
  H   H1022     1.0  0.27700  0.34148  0.59209  1.0000
  C   C1269     1.0  0.30642  0.40085  0.53515  1.0000
  C   C1270     1.0  0.29916  0.36158  0.61166  1.0000
  C   C1271     1.0  0.29170  0.43414  0.67852  1.0000
  C   C1272     1.0  0.43025  0.36361  0.63317  1.0000
  H   H1023     1.0  0.30139  0.37337  0.76827  1.0000
  C   C1273     1.0  0.40499  0.62671  0.86209  1.0000
  C   C1274     1.0  0.47722  0.45286  0.82889  1.0000
  C   C1275     1.0  0.30042  0.38936  0.55781  1.0000
  H   H1024     1.0  0.46923  0.45808  0.95496  1.0000
  H   H1025     1.0  0.38581  0.38002  0.51121  1.0000
  H   H1026     1.0  0.32420  0.36754  0.85874  1.0000
  C   C1276     1.0  0.39167  0.36906  0.63107  1.0000
  C   C1277     1.0  0.29909  0.42229  0.53221  1.0000
  C   C1278     1.0  0.46467  0.45312  0.88560  1.0000
  S   S201      1.0  0.40085  0.61459  0.82997  1.0000
  H   H1027     1.0  0.29251  0.39043  0.85364  1.0000
  H   H1028     1.0  0.28004  0.44895  0.54963  1.0000
  H   H1029     1.0  0.31699  0.56367  0.96655  1.0000
  S   S202      1.0  0.27866  0.34362  0.69500  1.0000
  C   C1279     1.0  0.29282  0.34232  0.60082  1.0000
  C   C1280     1.0  0.35810  0.63808  0.71762  1.0000
  H   H1030     1.0  0.34042  0.57505  0.93038  1.0000
  H   H1031     1.0  0.42885  0.64652  0.84791  1.0000
  C   C1281     1.0  0.32448  0.34568  0.98710  1.0000
  C   C1282     1.0  0.32863  0.61867  0.68483  1.0000
  H   H1032     1.0  0.24196  0.40143  0.57940  1.0000
  C   C1283     1.0  0.39447  0.36806  0.77079  1.0000
  C   C1284     1.0  0.37417  0.37878  0.77333  1.0000
  C   C1285     1.0  0.36079  0.37364  0.79449  1.0000
  C   C1286     1.0  0.36758  0.35765  0.81305  1.0000
  C   C1287     1.0  0.38816  0.34718  0.81119  1.0000
  C   C1288     1.0  0.40151  0.35229  0.78964  1.0000
  H   H1033     1.0  0.30456  0.43132  0.51518  1.0000
  H   H1034     1.0  0.47912  0.39739  0.89108  1.0000
  H   H1035     1.0  0.28382  0.54396  0.98616  1.0000
  H   H1036     1.0  0.45019  0.36745  0.51981  1.0000
  H   H1037     1.0  0.31527  0.44585  0.65205  1.0000
  C   C1289     1.0  0.35655  0.36487  0.50970  1.0000
  H   H1038     1.0  0.40459  0.37192  0.75394  1.0000
  H   H1039     1.0  0.33643  0.53776  0.51168  1.0000
  H   H1040     1.0  0.33592  0.35927  0.95015  1.0000
  C   C1290     1.0  0.39355  0.55139  0.95851  1.0000
  C   C1291     1.0  0.39722  0.34918  0.92548  1.0000
  C   C1292     1.0  0.38704  0.36235  0.90560  1.0000
  C   C1293     1.0  0.38659  0.35563  0.87822  1.0000
  H   H1041     1.0  0.46109  0.46363  0.76313  1.0000
  C   C1294     1.0  0.43991  0.38833  0.82363  1.0000
  C   C1295     1.0  0.40720  0.32934  0.91795  1.0000
  C   C1296     1.0  0.43797  0.42052  0.52841  1.0000
  C   C1297     1.0  0.32147  0.35131  0.86371  1.0000
  H   H1042     1.0  0.26365  0.39157  0.66517  1.0000
  C   C1298     1.0  0.48973  0.47011  0.83297  1.0000
  H   H1043     1.0  0.36868  0.39093  0.75869  1.0000
  H   H1044     1.0  0.34517  0.38216  0.79650  1.0000
  C   C1299     1.0  0.48169  0.48241  0.78685  1.0000
  H   H1045     1.0  0.41727  0.34414  0.78714  1.0000
  C   C1300     1.0  0.38651  0.35343  0.53936  1.0000
  C   C1301     1.0  0.30162  0.41866  0.63440  1.0000
  C   C1302     1.0  0.46687  0.45066  0.80352  1.0000
  H   H1046     1.0  0.44500  0.36364  0.64483  1.0000
  C   C1303     1.0  0.36640  0.56550  0.99044  1.0000
  C   C1304     1.0  0.39729  0.65212  0.62427  1.0000
  C   C1305     1.0  0.30542  0.42091  0.80014  1.0000
  H   H1047     1.0  0.39817  0.35474  0.94650  1.0000
  H   H1048     1.0  0.37995  0.37806  0.91134  1.0000
  H   H1049     1.0  0.37903  0.36656  0.86346  1.0000
  C   C1306     1.0  0.33712  0.35870  0.97228  1.0000
  H   H1050     1.0  0.43203  0.42879  0.88352  1.0000
  S   S203      1.0  0.43396  0.65034  0.77942  1.0000
  C   C1307     1.0  0.27478  0.40340  0.66169  1.0000
  C   C1308     1.0  0.47127  0.44840  0.91258  1.0000
  C   C1309     1.0  0.29658  0.39434  0.83287  1.0000
  H   H1051     1.0  0.40672  0.55393  0.94509  1.0000
  C   C1310     1.0  0.28538  0.43222  0.55170  1.0000
  C   C1311     1.0  0.46921  0.46534  0.78260  1.0000
  Fe  Fe106     1.0  0.37628  0.44306  0.98965  1.0000
  H   H1052     1.0  0.33349  0.59220  0.71264  1.0000
  C   C1312     1.0  0.28658  0.40355  0.63734  1.0000
  C   C1313     1.0  0.33024  0.58687  0.94151  1.0000
  S   S204      1.0  0.39722  0.61263  0.51312  1.0000
  S   S205      1.0  0.41813  0.63041  0.58135  1.0000
  C   C1314     1.0  0.28692  0.39931  0.57778  1.0000
  C   C1315     1.0  0.25399  0.37943  0.61103  1.0000
  C   C1316     1.0  0.29766  0.37866  0.81216  1.0000
  H   H1053     1.0  0.44108  0.61668  0.62953  1.0000
  C   C1317     1.0  0.31921  0.33279  0.78058  1.0000
  H   H1054     1.0  0.32753  0.53812  0.89971  1.0000
  C   C1318     1.0  0.44883  0.40141  0.51968  1.0000
  C   C1319     1.0  0.35242  0.61780  0.72415  1.0000
  H   H1055     1.0  0.47315  0.64674  0.84198  1.0000
  C   C1320     1.0  0.30467  0.60591  0.58325  1.0000
  C   C1321     1.0  0.32547  0.60645  0.59341  1.0000
  C   C1322     1.0  0.32979  0.62080  0.61432  1.0000
  C   C1323     1.0  0.42246  0.38146  0.54194  1.0000
  H   H1056     1.0  0.35936  0.60978  0.74209  1.0000
  H   H1057     1.0  0.30151  0.59498  0.56673  1.0000
  H   H1058     1.0  0.33833  0.59603  0.58461  1.0000
  H   H1059     1.0  0.34609  0.62134  0.62154  1.0000
  H   H1060     1.0  0.40462  0.40416  0.87380  1.0000
  H   H1061     1.0  0.35680  0.35347  0.82891  1.0000
  C   C1324     1.0  0.31333  0.63488  0.62510  1.0000
  P   P42       1.0  0.47279  0.43558  0.85742  1.0000
  C   C1325     1.0  0.28812  0.61958  0.59422  1.0000
  C   C1326     1.0  0.37718  0.56075  0.75227  1.0000
  C   C1327     1.0  0.36526  0.54781  0.73586  1.0000
  C   C1328     1.0  0.36125  0.52755  0.74490  1.0000
  C   C1329     1.0  0.36966  0.51997  0.76995  1.0000
  C   C1330     1.0  0.38213  0.53268  0.78624  1.0000
  C   C1331     1.0  0.38545  0.55334  0.77746  1.0000
  P   P43       1.0  0.39236  0.52320  0.81907  1.0000
  C   C1332     1.0  0.37185  0.52858  0.84460  1.0000
  C   C1333     1.0  0.39956  0.49480  0.81764  1.0000
  C   C1334     1.0  0.39714  0.48203  0.84070  1.0000
  C   C1335     1.0  0.40213  0.46000  0.83915  1.0000
  C   C1336     1.0  0.40962  0.45055  0.81468  1.0000
  C   C1337     1.0  0.41264  0.46322  0.79192  1.0000
  C   C1338     1.0  0.40769  0.48523  0.79341  1.0000
  C   C1339     1.0  0.37732  0.53121  0.87231  1.0000
  C   C1340     1.0  0.36133  0.53489  0.89196  1.0000
  C   C1341     1.0  0.33982  0.53555  0.88431  1.0000
  C   C1342     1.0  0.33423  0.53255  0.85689  1.0000
  C   C1343     1.0  0.35016  0.52905  0.83711  1.0000
  C   C1344     1.0  0.41622  0.53639  0.82659  1.0000
  C   C1345     1.0  0.41496  0.55572  0.84129  1.0000
  C   C1346     1.0  0.43332  0.56637  0.84594  1.0000
  C   C1347     1.0  0.45296  0.55808  0.83546  1.0000
  C   C1348     1.0  0.45426  0.53917  0.82018  1.0000
  C   C1349     1.0  0.43600  0.52833  0.81578  1.0000
  H   H1062     1.0  0.38041  0.57640  0.74531  1.0000
  H   H1063     1.0  0.35918  0.55344  0.71614  1.0000
  H   H1064     1.0  0.35168  0.51760  0.73249  1.0000
  H   H1065     1.0  0.36637  0.50421  0.77662  1.0000
  H   H1066     1.0  0.39464  0.56370  0.78979  1.0000
  H   H1067     1.0  0.39106  0.48888  0.85978  1.0000
  H   H1068     1.0  0.39957  0.45022  0.85678  1.0000
  H   H1069     1.0  0.41284  0.43342  0.81324  1.0000
  H   H1070     1.0  0.41862  0.45602  0.77294  1.0000
  H   H1071     1.0  0.41005  0.49476  0.77556  1.0000
  H   H1072     1.0  0.39390  0.53011  0.87890  1.0000
  H   H1073     1.0  0.36565  0.53692  0.91324  1.0000
  H   H1074     1.0  0.31756  0.53273  0.85094  1.0000
  H   H1075     1.0  0.34543  0.52638  0.81610  1.0000
  H   H1076     1.0  0.39977  0.56301  0.84851  1.0000
  H   H1077     1.0  0.43213  0.58147  0.85691  1.0000
  H   H1078     1.0  0.46703  0.56668  0.83844  1.0000
  H   H1079     1.0  0.46929  0.53324  0.81106  1.0000
  H   H1080     1.0  0.43734  0.51404  0.80327  1.0000
  C   C1350     1.0  0.40160  0.57531  0.68700  1.0000
  C   C1351     1.0  0.39361  0.59605  0.68053  1.0000
  C   C1352     1.0  0.38458  0.60042  0.65475  1.0000
  C   C1353     1.0  0.38416  0.58422  0.63506  1.0000
  C   C1354     1.0  0.39266  0.56340  0.64114  1.0000
  C   C1355     1.0  0.40065  0.55891  0.66768  1.0000
  P   P44       1.0  0.39233  0.54288  0.61502  1.0000
  C   C1356     1.0  0.36448  0.54034  0.60731  1.0000
  C   C1357     1.0  0.40587  0.54982  0.58429  1.0000
  C   C1358     1.0  0.40516  0.53650  0.56114  1.0000
  C   C1359     1.0  0.41488  0.54182  0.53676  1.0000
  C   C1360     1.0  0.42540  0.56045  0.53531  1.0000
  C   C1361     1.0  0.42654  0.57357  0.55841  1.0000
  C   C1362     1.0  0.41694  0.56825  0.58291  1.0000
  C   C1363     1.0  0.35191  0.52988  0.62569  1.0000
  C   C1364     1.0  0.33049  0.52738  0.61951  1.0000
  C   C1365     1.0  0.32129  0.53584  0.59535  1.0000
  C   C1366     1.0  0.33351  0.54693  0.57741  1.0000
  C   C1367     1.0  0.35501  0.54922  0.58334  1.0000
  C   C1368     1.0  0.40590  0.51782  0.62590  1.0000
  C   C1369     1.0  0.39657  0.49853  0.62184  1.0000
  C   C1370     1.0  0.40689  0.47938  0.63123  1.0000
  C   C1371     1.0  0.42678  0.47925  0.64428  1.0000
  C   C1372     1.0  0.43667  0.49821  0.64718  1.0000
  C   C1373     1.0  0.42645  0.51737  0.63761  1.0000
  H   H1081     1.0  0.40900  0.57201  0.70683  1.0000
  H   H1082     1.0  0.39477  0.60885  0.69529  1.0000
  H   H1083     1.0  0.37862  0.61657  0.64979  1.0000
  H   H1084     1.0  0.37770  0.58801  0.61485  1.0000
  H   H1085     1.0  0.40643  0.54294  0.67365  1.0000
  H   H1086     1.0  0.39681  0.52214  0.56181  1.0000
  C   C1374     1.0  0.41007  0.64651  0.91354  1.0000
  H   H1087     1.0  0.30693  0.37299  0.56000  1.0000
  H   H1088     1.0  0.43467  0.58806  0.55731  1.0000
  H   H1089     1.0  0.41820  0.57867  0.60047  1.0000
  H   H1090     1.0  0.35884  0.52302  0.64438  1.0000
  H   H1091     1.0  0.32122  0.51838  0.63322  1.0000
  H   H1092     1.0  0.30478  0.53363  0.59043  1.0000
  H   H1093     1.0  0.32647  0.55356  0.55865  1.0000
  H   H1094     1.0  0.36411  0.55786  0.56903  1.0000
  H   H1095     1.0  0.38132  0.49807  0.61154  1.0000
  H   H1096     1.0  0.39926  0.46468  0.62862  1.0000
  H   H1097     1.0  0.43450  0.46450  0.65227  1.0000
  H   H1098     1.0  0.45212  0.49808  0.65725  1.0000
  H   H1099     1.0  0.43440  0.53191  0.63993  1.0000
  H   H1100     1.0  0.43260  0.56477  0.51626  1.0000
  H   H1101     1.0  0.43384  0.49951  0.89821  1.0000
  H   H1102     1.0  0.40937  0.37839  0.83550  1.0000
  H   H1103     1.0  0.48114  0.43394  0.91733  1.0000
  S   S206      1.0  0.36011  0.64672  0.98486  1.0000
  C   C1375     1.0  0.42203  0.65205  0.89087  1.0000
  H   H1104     1.0  0.38176  0.60916  0.88241  1.0000
  P   P45       1.0  0.41285  0.35669  0.55284  1.0000
  H   H1105     1.0  0.26813  0.41853  0.70079  1.0000
  C   C1376     1.0  0.34916  0.64872  0.69464  1.0000
  H   H1106     1.0  0.34173  0.61341  0.92020  1.0000
  C   C1377     1.0  0.41156  0.40076  0.55045  1.0000
  C   C1378     1.0  0.42147  0.38915  0.83956  1.0000
  C   C1379     1.0  0.28246  0.32403  0.77711  1.0000
  C   C1380     1.0  0.39305  0.62112  0.88475  1.0000
  H   H1107     1.0  0.36405  0.51197  0.98024  1.0000
  Fe  Fe107     1.0  0.42690  0.63692  0.73756  1.0000
  H   H1108     1.0  0.26583  0.33550  0.86475  1.0000
  C   C1381     1.0  0.26121  0.58522  0.99151  1.0000
  Fe  Fe108     1.0  0.39359  0.63638  0.54754  1.0000
  C   C1382     1.0  0.38339  0.56869  0.97305  1.0000
  H   H1109     1.0  0.26922  0.42893  0.58980  1.0000
  H   H1110     1.0  0.35026  0.34445  0.62985  1.0000
  C   C1383     1.0  0.37727  0.36721  0.51928  1.0000
  H   H1111     1.0  0.26226  0.33407  0.92125  1.0000
  H   H1112     1.0  0.31137  0.41892  0.61621  1.0000
  C   C1384     1.0  0.32008  0.36228  0.62179  1.0000
  C   C1385     1.0  0.44126  0.38192  0.52659  1.0000
  H   H1113     1.0  0.31349  0.33602  0.97649  1.0000
  C   C1386     1.0  0.30094  0.41524  0.82697  1.0000
  H   H1114     1.0  0.43832  0.33999  0.84992  1.0000
  H   H1115     1.0  0.41401  0.53158  0.51889  1.0000
  P   P46       1.0  0.31960  0.65393  0.65126  1.0000
  C   C1387     1.0  0.30148  0.38471  0.78504  1.0000
  C   C1388     1.0  0.25387  0.59671  0.96823  1.0000
  H   H1116     1.0  0.31685  0.61105  0.67278  1.0000
  C   C1389     1.0  0.33255  0.34184  0.88608  1.0000
  C   C1390     1.0  0.48359  0.65438  0.85611  1.0000
  C   C1391     1.0  0.25412  0.32896  0.93922  1.0000
  C   C1392     1.0  0.33424  0.34386  0.62167  1.0000
  H   H1117     1.0  0.27716  0.64359  0.51645  1.0000
  H   H1118     1.0  0.26023  0.35616  0.64314  1.0000
  H   H1119     1.0  0.38880  0.58442  0.97086  1.0000
  C   C1393     1.0  0.30690  0.32386  0.60120  1.0000
  H   H1120     1.0  0.36957  0.64551  0.73043  1.0000
  C   C1394     1.0  0.33420  0.63917  0.67813  1.0000
  H   H1121     1.0  0.44576  0.49104  0.94559  1.0000
  C   C1395     1.0  0.35427  0.33461  0.53953  1.0000
  H   H1122     1.0  0.39695  0.40086  0.56212  1.0000
  H   H1123     1.0  0.43732  0.62689  0.67840  1.0000
  C   C1396     1.0  0.41068  0.36835  0.64622  1.0000
  H   H1124     1.0  0.38642  0.62645  0.92780  1.0000
  H   H1125     1.0  0.26412  0.60684  0.95758  1.0000
  S   S207      1.0  0.45112  0.41501  0.96321  1.0000
  C   C1397     1.0  0.39628  0.33551  0.87047  1.0000
  H   H1126     1.0  0.46989  0.40150  0.81682  1.0000
  S   S208      1.0  0.34496  0.58232  0.51581  1.0000
  C   C1398     1.0  0.46461  0.46215  0.93407  1.0000
  C   C1399     1.0  0.42613  0.63401  0.66348  1.0000
  C   C1400     1.0  0.39565  0.63089  0.91046  1.0000
  H   H1127     1.0  0.41020  0.37198  0.66798  1.0000
  C   C1401     1.0  0.24916  0.36305  0.80742  1.0000
  S   S209      1.0  0.46665  0.32576  0.90225  1.0000
  C   C1402     1.0  0.40682  0.32257  0.89061  1.0000
  C   C1403     1.0  0.40988  0.64921  0.67171  1.0000
  H   H1128     1.0  0.34946  0.37598  0.49466  1.0000
  H   H1129     1.0  0.31922  0.64055  0.94650  1.0000
  C   C1404     1.0  0.37504  0.33685  0.54904  1.0000
  C   C1405     1.0  0.35889  0.56001  0.49974  1.0000
  Fe  Fe109     1.0  0.39563  0.64911  0.98231  1.0000
  H   H1130     1.0  0.29849  0.65241  0.70527  1.0000
  H   H1131     1.0  0.44370  0.43560  0.52261  1.0000
  H   H1132     1.0  0.48591  0.38223  0.96606  1.0000
  C   C1406     1.0  0.42980  0.33381  0.54104  1.0000
  H   H1133     1.0  0.42482  0.34159  0.49816  1.0000
  H   H1134     1.0  0.32138  0.32440  0.67992  1.0000
  C   C1407     1.0  0.43256  0.33047  0.51274  1.0000
  H   H1135     1.0  0.38208  0.32588  0.56426  1.0000
  H   H1136     1.0  0.47498  0.32514  0.84050  1.0000
  H   H1137     1.0  0.46290  0.40176  0.50701  1.0000
  Fe  Fe110     1.0  0.43388  0.90031  0.02087  1.0000
  S   S210      1.0  0.39830  0.89901  0.02038  1.0000
  H   H1138     1.0  0.31415  0.74124  0.32675  1.0000
  C   C1408     1.0  0.44299  0.70573  0.44977  1.0000
  S   S211      1.0  0.40767  0.84782  0.03107  1.0000
  C   C1409     1.0  0.37711  0.81917  0.36584  1.0000
  S   S212      1.0  0.39300  0.88021  0.46350  1.0000
  Fe  Fe111     1.0  0.40385  0.87740  0.05663  1.0000
  S   S213      1.0  0.38018  0.87982  0.09130  1.0000
  C   C1410     1.0  0.26176  0.82586  0.42039  1.0000
  C   C1411     1.0  0.36464  0.94144  0.35095  1.0000
  Fe  Fe112     1.0  0.40145  0.86693  0.30885  1.0000
  S   S214      1.0  0.37313  0.89088  0.31339  1.0000
  S   S215      1.0  0.42284  0.85360  0.34345  1.0000
  Fe  Fe113     1.0  0.39651  0.86557  0.24639  1.0000
  S   S216      1.0  0.36777  0.88952  0.24644  1.0000
  S   S217      1.0  0.41279  0.84974  0.20931  1.0000
  Fe  Fe114     1.0  0.38620  0.90761  0.27724  1.0000
  S   S218      1.0  0.39210  0.94272  0.28248  1.0000
  Fe  Fe115     1.0  0.35746  0.87051  0.28244  1.0000
  S   S219      1.0  0.32309  0.86227  0.28541  1.0000
  S   S220      1.0  0.41565  0.88471  0.27485  1.0000
  S   S221      1.0  0.38497  0.84545  0.28024  1.0000
  C   C1412     1.0  0.44738  0.91123  0.39360  1.0000
  S   S222      1.0  0.28923  0.78087  0.34256  1.0000
  C   C1413     1.0  0.32745  0.78021  0.26707  1.0000
  H   H1139     1.0  0.30808  0.69089  0.11779  1.0000
  S   S223      1.0  0.34241  0.69442  0.04002  1.0000
  C   C1414     1.0  0.28282  0.73973  0.01237  1.0000
  C   C1415     1.0  0.35945  0.95526  0.46035  1.0000
  C   C1416     1.0  0.48400  0.91544  0.26324  1.0000
  Fe  Fe116     1.0  0.25300  0.77998  0.34504  1.0000
  C   C1417     1.0  0.40580  0.72947  0.49121  1.0000
  C   C1418     1.0  0.46602  0.75388  0.19536  1.0000
  C   C1419     1.0  0.30750  0.74884  0.26920  1.0000
  C   C1420     1.0  0.44706  0.92950  0.26576  1.0000
  H   H1140     1.0  0.27475  0.79334  0.25384  1.0000
  C   C1421     1.0  0.27201  0.69814  0.43637  1.0000
  H   H1141     1.0  0.32543  0.68599  0.42644  1.0000
  S   S224      1.0  0.43902  0.88106  0.05959  1.0000
  C   C1422     1.0  0.35782  0.97342  0.44393  1.0000
  C   C1423     1.0  0.24496  0.82576  0.11107  1.0000
  H   H1142     1.0  0.35547  0.84687  0.35775  1.0000
  H   H1143     1.0  0.44136  0.67732  0.42527  1.0000
  C   C1424     1.0  0.34375  0.82420  0.46470  1.0000
  C   C1425     1.0  0.30850  0.68836  0.42170  1.0000
  H   H1144     1.0  0.32310  0.85244  0.45437  1.0000
  C   C1426     1.0  0.34806  0.94274  0.33156  1.0000
  P   P47       1.0  0.45246  0.94449  0.11531  1.0000
  C   C1427     1.0  0.39296  0.65685  0.14186  1.0000
  C   C1428     1.0  0.44709  0.69309  0.42643  1.0000
  H   H1145     1.0  0.26995  0.85379  0.25056  1.0000
  H   H1146     1.0  0.38775  0.82239  0.34923  1.0000
  C   C1429     1.0  0.31473  0.69404  0.04526  1.0000
  C   C1430     1.0  0.30439  0.70920  0.06295  1.0000
  C   C1431     1.0  0.28214  0.71006  0.06656  1.0000
  C   C1432     1.0  0.27007  0.69598  0.05211  1.0000
  C   C1433     1.0  0.28046  0.68073  0.03456  1.0000
  C   C1434     1.0  0.30276  0.67964  0.03128  1.0000
  H   H1147     1.0  0.31358  0.72046  0.07367  1.0000
  H   H1148     1.0  0.27430  0.72182  0.08018  1.0000
  C   C1435     1.0  0.30544  0.81591  0.43112  1.0000
  C   C1436     1.0  0.25203  0.70691  0.31260  1.0000
  C   C1437     1.0  0.31458  0.83987  0.30273  1.0000
  C   C1438     1.0  0.29259  0.83775  0.30423  1.0000
  C   C1439     1.0  0.28485  0.81973  0.31614  1.0000
  C   C1440     1.0  0.29894  0.80376  0.32752  1.0000
  C   C1441     1.0  0.32104  0.80601  0.32667  1.0000
  C   C1442     1.0  0.32887  0.82390  0.31402  1.0000
  H   H1149     1.0  0.28140  0.85011  0.29601  1.0000
  H   H1150     1.0  0.26794  0.81817  0.31609  1.0000
  H   H1151     1.0  0.33214  0.79376  0.33537  1.0000
  H   H1152     1.0  0.34587  0.82525  0.31278  1.0000
  C   C1443     1.0  0.39072  0.96543  0.26096  1.0000
  C   C1444     1.0  0.37361  0.97673  0.33827  1.0000
  H   H1153     1.0  0.31689  0.65687  0.21370  1.0000
  C   C1445     1.0  0.43715  0.97119  0.20179  1.0000
  C   C1446     1.0  0.41877  0.92301  0.35103  1.0000
  H   H1154     1.0  0.40205  0.98282  0.05055  1.0000
  C   C1447     1.0  0.38963  0.87152  0.12390  1.0000
  C   C1448     1.0  0.37752  0.87771  0.14706  1.0000
  C   C1449     1.0  0.38455  0.87122  0.17332  1.0000
  C   C1450     1.0  0.40353  0.85814  0.17657  1.0000
  C   C1451     1.0  0.41537  0.85149  0.15330  1.0000
  C   C1452     1.0  0.40862  0.85842  0.12704  1.0000
  H   H1155     1.0  0.36274  0.88772  0.14473  1.0000
  H   H1156     1.0  0.37515  0.87626  0.19096  1.0000
  H   H1157     1.0  0.42990  0.84113  0.15561  1.0000
  H   H1158     1.0  0.41796  0.85342  0.10923  1.0000
  C   C1453     1.0  0.40221  0.87326  0.43045  1.0000
  C   C1454     1.0  0.42300  0.86419  0.42572  1.0000
  C   C1455     1.0  0.42925  0.85806  0.39897  1.0000
  C   C1456     1.0  0.41490  0.86146  0.37687  1.0000
  C   C1457     1.0  0.39432  0.87084  0.38171  1.0000
  C   C1458     1.0  0.38793  0.87651  0.40840  1.0000
  H   H1159     1.0  0.43411  0.86171  0.44267  1.0000
  H   H1160     1.0  0.44528  0.85099  0.39535  1.0000
  H   H1161     1.0  0.38311  0.87335  0.36500  1.0000
  H   H1162     1.0  0.37181  0.88344  0.41197  1.0000
  H   H1163     1.0  0.34225  0.78769  0.26963  1.0000
  C   C1459     1.0  0.35897  0.83306  0.37071  1.0000
  H   H1164     1.0  0.30918  0.80972  0.25765  1.0000
  C   C1460     1.0  0.48910  0.66076  0.13405  1.0000
  H   H1165     1.0  0.31649  0.87486  0.09410  1.0000
  H   H1166     1.0  0.28325  0.71434  0.32511  1.0000
  C   C1461     1.0  0.30511  0.76844  0.02224  1.0000
  H   H1167     1.0  0.31306  0.84726  0.02783  1.0000
  H   H1168     1.0  0.33337  0.73194  0.22707  1.0000
  C   C1462     1.0  0.47463  0.94932  0.28638  1.0000
  C   C1463     1.0  0.36959  0.97373  0.41975  1.0000
  H   H1169     1.0  0.43446  0.69916  0.46650  1.0000
  C   C1464     1.0  0.45155  0.80187  0.37037  1.0000
  C   C1465     1.0  0.44788  0.78487  0.35291  1.0000
  C   C1466     1.0  0.46341  0.76773  0.35022  1.0000
  C   C1467     1.0  0.33174  0.74285  0.43514  1.0000
  H   H1170     1.0  0.27121  0.66971  0.02344  1.0000
  H   H1171     1.0  0.43045  0.92816  0.26052  1.0000
  H   H1172     1.0  0.27638  0.84274  0.14808  1.0000
  C   C1468     1.0  0.32689  0.75835  0.27139  1.0000
  H   H1173     1.0  0.34422  0.82438  0.14463  1.0000
  H   H1174     1.0  0.43321  0.78526  0.34100  1.0000
  H   H1175     1.0  0.46083  0.75475  0.33619  1.0000
  H   H1176     1.0  0.39590  0.79086  0.37899  1.0000
  C   C1469     1.0  0.48969  0.80155  0.44777  1.0000
  H   H1177     1.0  0.26407  0.84937  0.05498  1.0000
  C   C1470     1.0  0.44878  0.90026  0.36859  1.0000
  S   S225      1.0  0.46397  0.82221  0.03745  1.0000
  C   C1471     1.0  0.33234  0.76425  0.42779  1.0000
  H   H1178     1.0  0.28772  0.66960  0.14931  1.0000
  H   H1179     1.0  0.43499  0.97808  0.07805  1.0000
  C   C1472     1.0  0.43462  0.90630  0.34728  1.0000
  H   H1180     1.0  0.43554  0.89761  0.32804  1.0000
  C   C1473     1.0  0.31402  0.67471  0.12281  1.0000
  H   H1181     1.0  0.30142  0.84161  0.22364  1.0000
  C   C1474     1.0  0.27951  0.82419  0.00652  1.0000
  H   H1182     1.0  0.28123  0.72325  0.00678  1.0000
  H   H1183     1.0  0.24889  0.74737  0.01657  1.0000
  C   C1475     1.0  0.32398  0.71279  0.30323  1.0000
  C   C1476     1.0  0.48629  0.67417  0.19329  1.0000
  C   C1477     1.0  0.46483  0.67203  0.19973  1.0000
  C   C1478     1.0  0.46237  0.91663  0.11567  1.0000
  H   H1184     1.0  0.27077  0.71388  0.23790  1.0000
  H   H1185     1.0  0.46163  0.94781  0.21606  1.0000
  H   H1186     1.0  0.24604  0.82746  0.01801  1.0000
  C   C1479     1.0  0.46123  0.88091  0.13398  1.0000
  C   C1480     1.0  0.45356  0.90242  0.13361  1.0000
  C   C1481     1.0  0.42852  0.94745  0.09424  1.0000
  H   H1187     1.0  0.43969  0.81538  0.37188  1.0000
  C   C1482     1.0  0.42396  0.96591  0.07854  1.0000
  C   C1483     1.0  0.39069  0.95312  0.06299  1.0000
  C   C1484     1.0  0.39487  0.93484  0.07883  1.0000
  C   C1485     1.0  0.41368  0.93196  0.09443  1.0000
  H   H1188     1.0  0.33747  0.68278  0.28585  1.0000
  Fe  Fe117     1.0  0.40522  0.86957  0.99481  1.0000
  H   H1189     1.0  0.41691  0.82893  0.46462  1.0000
  H   H1190     1.0  0.36742  0.92719  0.36325  1.0000
  H   H1191     1.0  0.28059  0.87000  0.11300  1.0000
  C   C1486     1.0  0.38169  0.80145  0.38265  1.0000
  H   H1192     1.0  0.45433  0.87009  0.14786  1.0000
  H   H1193     1.0  0.44060  0.90788  0.14716  1.0000
  C   C1487     1.0  0.36810  0.79762  0.40436  1.0000
  C   C1488     1.0  0.34354  0.84031  0.04726  1.0000
  H   H1194     1.0  0.37045  0.95938  0.13162  1.0000
  H   H1195     1.0  0.37630  0.95513  0.05056  1.0000
  H   H1196     1.0  0.38357  0.92280  0.07883  1.0000
  H   H1197     1.0  0.41650  0.91761  0.10643  1.0000
  H   H1198     1.0  0.27345  0.75487  0.26165  1.0000
  H   H1199     1.0  0.34211  0.67522  0.09778  1.0000
  C   C1489     1.0  0.41413  0.97903  0.37873  1.0000
  C   C1490     1.0  0.34971  0.81142  0.40916  1.0000
  C   C1491     1.0  0.34541  0.82934  0.39240  1.0000
  H   H1200     1.0  0.32086  0.77402  0.02338  1.0000
  C   C1492     1.0  0.42288  0.81241  0.46772  1.0000
  H   H1201     1.0  0.40314  0.73210  0.46950  1.0000
  H   H1202     1.0  0.29729  0.82348  0.47335  1.0000
  H   H1203     1.0  0.33847  0.87523  0.48936  1.0000
  C   C1493     1.0  0.26426  0.81421  0.19026  1.0000
  C   C1494     1.0  0.31530  0.81611  0.04695  1.0000
  C   C1495     1.0  0.30253  0.66265  0.14047  1.0000
  H   H1204     1.0  0.25438  0.76290  0.21915  1.0000
  H   H1205     1.0  0.37402  0.95212  0.22713  1.0000
  C   C1496     1.0  0.30874  0.79270  0.26030  1.0000
  H   H1206     1.0  0.43796  0.68308  0.22460  1.0000
  Fe  Fe118     1.0  0.44271  0.85276  0.03119  1.0000
  C   C1497     1.0  0.26921  0.80087  0.08607  1.0000
  C   C1498     1.0  0.34441  0.85862  0.48741  1.0000
  C   C1499     1.0  0.39949  0.98376  0.27095  1.0000
  H   H1207     1.0  0.46104  0.97395  0.01272  1.0000
  C   C1500     1.0  0.28936  0.78344  0.25823  1.0000
  C   C1501     1.0  0.26584  0.71166  0.25884  1.0000
  C   C1502     1.0  0.32951  0.71565  0.22450  1.0000
  C   C1503     1.0  0.32031  0.67331  0.21666  1.0000
  H   H1208     1.0  0.26924  0.81718  0.37858  1.0000
  H   H1209     1.0  0.39976  0.97287  0.46989  1.0000
  H   H1210     1.0  0.46962  0.93281  0.17004  1.0000
  C   C1504     1.0  0.40516  0.96873  0.06303  1.0000
  H   H1211     1.0  0.35984  0.69674  0.36653  1.0000
  C   C1505     1.0  0.47071  0.80177  0.38520  1.0000
  C   C1506     1.0  0.32811  0.80206  0.06365  1.0000
  C   C1507     1.0  0.44544  0.95368  0.14946  1.0000
  H   H1212     1.0  0.46926  0.68918  0.30191  1.0000
  C   C1508     1.0  0.46571  0.69976  0.23421  1.0000
  H   H1213     1.0  0.33835  0.92947  0.32868  1.0000
  H   H1214     1.0  0.41778  0.73479  0.08566  1.0000
  H   H1215     1.0  0.40793  0.92735  0.33428  1.0000
  H   H1216     1.0  0.38983  0.65813  0.09776  1.0000
  H   H1217     1.0  0.48311  0.85652  0.11605  1.0000
  H   H1218     1.0  0.34758  0.98736  0.45002  1.0000
  C   C1509     1.0  0.45450  0.68501  0.21974  1.0000
  C   C1510     1.0  0.33262  0.75280  0.48308  1.0000
  C   C1511     1.0  0.45889  0.70053  0.40490  1.0000
  C   C1512     1.0  0.43183  0.92826  0.39724  1.0000
  C   C1513     1.0  0.34338  0.96907  0.10584  1.0000
  H   H1219     1.0  0.47347  0.81549  0.39781  1.0000
  C   C1514     1.0  0.27521  0.76783  0.46062  1.0000
  H   H1220     1.0  0.32220  0.78741  0.07064  1.0000
  H   H1221     1.0  0.42988  0.76534  0.43321  1.0000
  C   C1515     1.0  0.44650  0.76075  0.20749  1.0000
  C   C1516     1.0  0.43938  0.78241  0.20764  1.0000
  H   H1222     1.0  0.43696  0.74929  0.21693  1.0000
  H   H1223     1.0  0.42430  0.78787  0.21708  1.0000
  H   H1224     1.0  0.33997  0.67378  0.18065  1.0000
  C   C1517     1.0  0.46821  0.66995  0.12948  1.0000
  H   H1225     1.0  0.33626  0.95407  0.10784  1.0000
  H   H1226     1.0  0.33171  0.84060  0.39619  1.0000
  H   H1227     1.0  0.35853  0.79594  0.08426  1.0000
  C   C1518     1.0  0.47255  0.96080  0.10245  1.0000
  C   C1519     1.0  0.27197  0.81640  0.06620  1.0000
  C   C1520     1.0  0.26179  0.83697  0.06965  1.0000
  H   H1228     1.0  0.37202  0.98559  0.19975  1.0000
  H   H1229     1.0  0.37227  0.82982  0.06939  1.0000
  C   C1521     1.0  0.47939  0.72084  0.10948  1.0000
  C   C1522     1.0  0.42952  0.98165  0.35015  1.0000
  S   S226      1.0  0.45031  0.93060  0.01512  1.0000
  H   H1230     1.0  0.25890  0.83256  0.46355  1.0000
  H   H1231     1.0  0.34782  0.71132  0.18734  1.0000
  C   C1523     1.0  0.45302  0.94731  0.28029  1.0000
  P   P48       1.0  0.25377  0.70826  0.46275  1.0000
  C   C1524     1.0  0.26460  0.75331  0.01791  1.0000
  C   C1525     1.0  0.38356  0.95608  0.41217  1.0000
  C   C1526     1.0  0.45200  0.75426  0.04021  1.0000
  H   H1232     1.0  0.33170  0.72055  0.46858  1.0000
  C   C1527     1.0  0.35645  0.82588  0.06304  1.0000
  C   C1528     1.0  0.41620  0.73069  0.04186  1.0000
  H   H1233     1.0  0.45799  0.70915  0.25058  1.0000
  H   H1234     1.0  0.25229  0.78483  0.02965  1.0000
  H   H1235     1.0  0.47147  0.73709  0.19572  1.0000
  S   S227      1.0  0.42198  0.65757  0.27166  1.0000
  C   C1529     1.0  0.24492  0.70673  0.26382  1.0000
  C   C1530     1.0  0.28687  0.78216  0.02807  1.0000
  H   H1236     1.0  0.36856  0.80029  0.47781  1.0000
  H   H1237     1.0  0.28071  0.77825  0.44510  1.0000
  C   C1531     1.0  0.35705  0.97797  0.31886  1.0000
  H   H1238     1.0  0.37384  0.92320  0.46510  1.0000
  C   C1532     1.0  0.38462  0.93764  0.42839  1.0000
  C   C1533     1.0  0.47846  0.76855  0.18287  1.0000
  H   H1239     1.0  0.41807  0.72961  0.99796  1.0000
  C   C1534     1.0  0.24641  0.82129  0.20583  1.0000
  C   C1535     1.0  0.26971  0.82752  0.44707  1.0000
  C   C1536     1.0  0.37275  0.93737  0.45251  1.0000
  H   H1240     1.0  0.34807  0.85224  0.11043  1.0000
  C   C1537     1.0  0.46245  0.91348  0.25749  1.0000
  H   H1241     1.0  0.46041  0.88671  0.36587  1.0000
  C   C1538     1.0  0.42311  0.79782  0.44598  1.0000
  H   H1242     1.0  0.45761  0.89968  0.24637  1.0000
  C   C1539     1.0  0.47874  0.90882  0.09785  1.0000
  C   C1540     1.0  0.30597  0.76158  0.12279  1.0000
  C   C1541     1.0  0.29774  0.74605  0.13899  1.0000
  C   C1542     1.0  0.29295  0.75044  0.16646  1.0000
  C   C1543     1.0  0.29595  0.77048  0.17762  1.0000
  C   C1544     1.0  0.30370  0.78637  0.16130  1.0000
  C   C1545     1.0  0.30902  0.78168  0.13390  1.0000
  P   P49       1.0  0.30743  0.81225  0.17599  1.0000
  C   C1546     1.0  0.28446  0.82112  0.19657  1.0000
  C   C1547     1.0  0.33186  0.81100  0.19600  1.0000
  C   C1548     1.0  0.34089  0.82993  0.20322  1.0000
  C   C1549     1.0  0.36057  0.82921  0.21678  1.0000
  C   C1550     1.0  0.37152  0.80965  0.22324  1.0000
  C   C1551     1.0  0.36269  0.79069  0.21624  1.0000
  C   C1552     1.0  0.34291  0.79132  0.20269  1.0000
  C   C1553     1.0  0.26991  0.74743  0.45331  1.0000
  C   C1554     1.0  0.36131  0.81635  0.48079  1.0000
  C   C1555     1.0  0.41374  0.95422  0.99699  1.0000
  H   H1243     1.0  0.26215  0.80331  0.17338  1.0000
  C   C1556     1.0  0.28629  0.83563  0.21832  1.0000
  C   C1557     1.0  0.30997  0.83148  0.14913  1.0000
  C   C1558     1.0  0.33012  0.83411  0.13790  1.0000
  C   C1559     1.0  0.33238  0.84981  0.11832  1.0000
  C   C1560     1.0  0.31456  0.86265  0.10921  1.0000
  C   C1561     1.0  0.29440  0.85990  0.11988  1.0000
  C   C1562     1.0  0.29208  0.84440  0.13980  1.0000
  H   H1244     1.0  0.30960  0.75809  0.10148  1.0000
  H   H1245     1.0  0.29469  0.73076  0.13015  1.0000
  H   H1246     1.0  0.28603  0.73860  0.17884  1.0000
  H   H1247     1.0  0.29173  0.77375  0.19881  1.0000
  H   H1248     1.0  0.31517  0.79360  0.12102  1.0000
  H   H1249     1.0  0.33298  0.84534  0.19788  1.0000
  H   H1250     1.0  0.36748  0.84391  0.22192  1.0000
  H   H1251     1.0  0.38693  0.80933  0.23349  1.0000
  H   H1252     1.0  0.37120  0.77552  0.22127  1.0000
  H   H1253     1.0  0.33647  0.77645  0.19736  1.0000
  H   H1254     1.0  0.27348  0.68403  0.36876  1.0000
  C   C1563     1.0  0.36267  0.97204  0.11920  1.0000
  H   H1255     1.0  0.46231  0.69053  0.38700  1.0000
  H   H1256     1.0  0.46756  0.73720  0.14541  1.0000
  C   C1564     1.0  0.44451  0.97374  0.00648  1.0000
  C   C1565     1.0  0.45190  0.79720  0.19598  1.0000
  C   C1566     1.0  0.30307  0.74723  0.01465  1.0000
  C   C1567     1.0  0.46729  0.97555  0.45901  1.0000
  H   H1257     1.0  0.44075  0.95955  0.28622  1.0000
  C   C1568     1.0  0.31680  0.70609  0.24365  1.0000
  C   C1569     1.0  0.38100  0.96607  0.23503  1.0000
  C   C1570     1.0  0.37766  0.95833  0.35423  1.0000
  C   C1571     1.0  0.41712  0.93394  0.37616  1.0000
  H   H1258     1.0  0.43381  0.97795  0.22196  1.0000
  H   H1259     1.0  0.46812  0.95186  0.06005  1.0000
  H   H1260     1.0  0.33687  0.73106  0.36667  1.0000
  H   H1261     1.0  0.44649  0.81405  0.19660  1.0000
  C   C1572     1.0  0.33209  0.73711  0.46277  1.0000
  C   C1573     1.0  0.34867  0.80685  0.07145  1.0000
  P   P50       1.0  0.39810  0.95676  0.38043  1.0000
  C   C1574     1.0  0.47669  0.96137  0.07426  1.0000
  C   C1575     1.0  0.48621  0.78434  0.38313  1.0000
  C   C1576     1.0  0.28870  0.76158  0.26271  1.0000
  P   P51       1.0  0.48291  0.97304  0.30305  1.0000
  C   C1577     1.0  0.27295  0.71189  0.30773  1.0000
  C   C1578     1.0  0.32296  0.83558  0.03947  1.0000
  H   H1262     1.0  0.27146  0.74240  0.43209  1.0000
  H   H1263     1.0  0.35041  0.95503  0.47913  1.0000
  C   C1579     1.0  0.48628  0.88725  0.09819  1.0000
  C   C1580     1.0  0.47751  0.87329  0.11620  1.0000
  H   H1264     1.0  0.34946  0.85534  0.04144  1.0000
  H   H1265     1.0  0.48005  0.96856  0.36703  1.0000
  C   C1581     1.0  0.29716  0.81356  0.40457  1.0000
  C   C1582     1.0  0.34434  0.96095  0.31542  1.0000
  C   C1583     1.0  0.33690  0.72049  0.34907  1.0000
  H   H1266     1.0  0.34154  0.74890  0.27676  1.0000
  C   C1584     1.0  0.46230  0.73349  0.42990  1.0000
  H   H1267     1.0  0.41731  0.80316  0.42599  1.0000
  P   P52       1.0  0.28872  0.80983  0.03689  1.0000
  C   C1585     1.0  0.28011  0.71407  0.28076  1.0000
  H   H1268     1.0  0.37214  0.78415  0.41762  1.0000
  C   C1586     1.0  0.34982  0.68775  0.32612  1.0000
  C   C1587     1.0  0.34978  0.70123  0.34899  1.0000
  C   C1588     1.0  0.33700  0.69346  0.30331  1.0000
  H   H1269     1.0  0.47692  0.79179  0.44224  1.0000
  H   H1270     1.0  0.46414  0.71490  0.10457  1.0000
  C   C1589     1.0  0.31212  0.68486  0.23942  1.0000
  C   C1590     1.0  0.42596  0.97968  0.17898  1.0000
  C   C1591     1.0  0.44356  0.74652  0.01572  1.0000
  H   H1271     1.0  0.39426  0.92330  0.42248  1.0000
  C   C1592     1.0  0.45029  0.72620  0.45153  1.0000
  C   C1593     1.0  0.42495  0.73809  0.06619  1.0000
  C   C1594     1.0  0.33770  0.70402  0.20180  1.0000
  H   H1272     1.0  0.43107  0.93682  0.41660  1.0000
  C   C1595     1.0  0.26195  0.73402  0.47301  1.0000
  C   C1596     1.0  0.26838  0.84261  0.23384  1.0000
  C   C1597     1.0  0.32408  0.72626  0.32630  1.0000
  H   H1273     1.0  0.40229  0.72158  0.04247  1.0000
  C   C1598     1.0  0.48721  0.70171  0.22839  1.0000
  P   P53       1.0  0.30714  0.72042  0.27403  1.0000
  C   C1599     1.0  0.26660  0.77446  0.02559  1.0000
  C   C1600     1.0  0.48710  0.81516  0.47048  1.0000
  H   H1274     1.0  0.42825  0.97003  0.33358  1.0000
  H   H1275     1.0  0.47275  0.94267  0.47099  1.0000
  H   H1276     1.0  0.27701  0.78496  0.08402  1.0000
  H   H1277     1.0  0.36120  0.79026  0.00830  1.0000
  H   H1278     1.0  0.33077  0.73073  0.41944  1.0000
  C   C1601     1.0  0.25772  0.83065  0.00268  1.0000
  H   H1279     1.0  0.45809  0.90632  0.41031  1.0000
  H   H1280     1.0  0.46859  0.74894  0.43109  1.0000
  C   C1602     1.0  0.45705  0.94555  0.17237  1.0000
  C   C1603     1.0  0.43055  0.77645  0.45014  1.0000
  H   H1281     1.0  0.31062  0.66785  0.01769  1.0000
  P   P54       1.0  0.33311  0.80768  0.43845  1.0000
  H   H1282     1.0  0.35998  0.67289  0.32600  1.0000
  C   C1604     1.0  0.33574  0.84561  0.46765  1.0000
  C   C1605     1.0  0.27546  0.81879  0.39921  1.0000
  C   C1606     1.0  0.29404  0.69551  0.44211  1.0000
  C   C1607     1.0  0.47146  0.79038  0.18390  1.0000
  C   C1608     1.0  0.44271  0.75004  0.06533  1.0000
  C   C1609     1.0  0.33323  0.68284  0.19797  1.0000
  C   C1610     1.0  0.48146  0.73352  0.13285  1.0000
  H   H1283     1.0  0.31232  0.67874  0.37942  1.0000
  C   C1611     1.0  0.33301  0.77423  0.47583  1.0000
  C   C1612     1.0  0.29147  0.82246  0.45249  1.0000
  H   H1284     1.0  0.29999  0.69889  0.46248  1.0000
  H   H1285     1.0  0.33189  0.96170  0.29989  1.0000
  H   H1286     1.0  0.30736  0.80758  0.38794  1.0000
  C   C1613     1.0  0.48626  0.69030  0.29985  1.0000
  H   H1287     1.0  0.33159  0.76854  0.40630  1.0000
  Fe  Fe119     1.0  0.36219  0.66511  0.02440  1.0000
  C   C1614     1.0  0.45274  0.95417  0.19846  1.0000
  C   C1615     1.0  0.24805  0.84151  0.09179  1.0000
  H   H1288     1.0  0.44325  0.67743  0.09964  1.0000
  C   C1616     1.0  0.24850  0.83527  0.22781  1.0000
  C   C1617     1.0  0.46650  0.97890  0.36030  1.0000
  H   H1289     1.0  0.44919  0.75630  0.08409  1.0000
  C   C1618     1.0  0.27923  0.68712  0.38928  1.0000
  H   H1290     1.0  0.24784  0.69643  0.40450  1.0000
  H   H1291     1.0  0.48553  0.91916  0.08333  1.0000
  C   C1619     1.0  0.43007  0.97097  0.15296  1.0000
  H   H1292     1.0  0.48101  0.97356  0.14221  1.0000
  C   C1620     1.0  0.30110  0.68421  0.39526  1.0000
  H   H1293     1.0  0.46547  0.76394  0.03999  1.0000
  H   H1294     1.0  0.24639  0.70564  0.33342  1.0000
  S   S228      1.0  0.39705  0.66974  0.01994  1.0000
  C   C1621     1.0  0.33347  0.78003  0.44811  1.0000
  H   H1295     1.0  0.37816  0.66652  0.14546  1.0000
  C   C1622     1.0  0.46659  0.72068  0.40669  1.0000
  H   H1296     1.0  0.45073  0.97418  0.45340  1.0000
  C   C1623     1.0  0.45970  0.67118  0.10292  1.0000
  H   H1297     1.0  0.30243  0.67713  0.25397  1.0000
  C   C1624     1.0  0.33316  0.66586  0.11149  1.0000
  P   P55       1.0  0.44671  0.74190  0.48258  1.0000
  H   H1298     1.0  0.25332  0.79330  0.12333  1.0000
  C   C1625     1.0  0.25579  0.80555  0.10843  1.0000
  C   C1626     1.0  0.48255  0.76751  0.36511  1.0000
  C   C1627     1.0  0.37986  0.98508  0.21958  1.0000
  H   H1299     1.0  0.42155  0.97800  0.13550  1.0000
  H   H1300     1.0  0.48107  0.80232  0.17596  1.0000
  C   C1628     1.0  0.43827  0.76963  0.47605  1.0000
  C   C1629     1.0  0.42527  0.73515  0.01667  1.0000
  H   H1301     1.0  0.48602  0.72115  0.31975  1.0000
  H   H1302     1.0  0.45813  0.67571  0.14621  1.0000
  C   C1630     1.0  0.43505  0.95433  0.00554  1.0000
  C   C1631     1.0  0.46274  0.98465  0.32638  1.0000
  H   H1303     1.0  0.48936  0.96946  0.24301  1.0000
  C   C1632     1.0  0.26469  0.69406  0.40972  1.0000
  H   H1304     1.0  0.44285  0.79645  0.00057  1.0000
  H   H1305     1.0  0.47619  0.72616  0.39025  1.0000
  H   H1306     1.0  0.40648  0.98348  0.29119  1.0000
  S   S229      1.0  0.44060  0.87210  0.99254  1.0000
  C   C1633     1.0  0.41194  0.97642  0.48454  1.0000
  H   H1307     1.0  0.47252  0.81598  0.48230  1.0000
  H   H1308     1.0  0.24494  0.82988  0.41612  1.0000
  H   H1309     1.0  0.31716  0.73645  0.01073  1.0000
  C   C1634     1.0  0.48389  0.97340  0.12040  1.0000
  H   H1310     1.0  0.40636  0.93937  0.99580  1.0000
  H   H1311     1.0  0.45280  0.98493  0.40598  1.0000
  C   C1635     1.0  0.47972  0.95776  0.46889  1.0000
  H   H1312     1.0  0.45616  0.66000  0.18967  1.0000
  H   H1313     1.0  0.28013  0.66861  0.47869  1.0000
  C   C1636     1.0  0.47189  0.66327  0.08072  1.0000
  C   C1637     1.0  0.27285  0.77495  0.48769  1.0000
  S   S230      1.0  0.24205  0.69708  0.05529  1.0000
  H   H1314     1.0  0.36796  0.98785  0.40710  1.0000
  C   C1638     1.0  0.33320  0.98554  0.09023  1.0000
  H   H1315     1.0  0.31806  0.98336  0.08026  1.0000
  H   H1316     1.0  0.46481  0.66343  0.06037  1.0000
  C   C1639     1.0  0.49089  0.98574  0.24933  1.0000
  C   C1640     1.0  0.49011  0.93337  0.27735  1.0000
  H   H1317     1.0  0.33265  0.78620  0.49188  1.0000
  S   S231      1.0  0.39687  0.65556  0.19780  1.0000
  C   C1641     1.0  0.25313  0.69021  0.49142  1.0000
  C   C1642     1.0  0.35885  0.69951  0.72805  1.0000
  S   S232      1.0  0.40763  0.91014  0.52790  1.0000
  H   H1318     1.0  0.42118  0.94395  0.77348  1.0000
  C   C1643     1.0  0.42758  0.94132  0.91802  1.0000
  S   S233      1.0  0.41474  0.85875  0.53410  1.0000
  H   H1319     1.0  0.45050  0.68740  0.56000  1.0000
  S   S234      1.0  0.38316  0.86178  0.96006  1.0000
  Fe  Fe120     1.0  0.41049  0.88681  0.56243  1.0000
  S   S235      1.0  0.38380  0.89146  0.59328  1.0000
  S   S236      1.0  0.44568  0.88925  0.56874  1.0000
  H   H1320     1.0  0.25575  0.87444  0.57644  1.0000
  Fe  Fe121     1.0  0.37866  0.89456  0.80829  1.0000
  S   S237      1.0  0.34508  0.90993  0.80886  1.0000
  S   S238      1.0  0.40315  0.89593  0.84216  1.0000
  Fe  Fe122     1.0  0.37582  0.88111  0.74900  1.0000
  S   S239      1.0  0.34200  0.89534  0.74451  1.0000
  S   S240      1.0  0.39608  0.86292  0.71710  1.0000
  Fe  Fe123     1.0  0.35305  0.92345  0.76799  1.0000
  S   S241      1.0  0.33929  0.95699  0.75704  1.0000
  Fe  Fe124     1.0  0.33666  0.88071  0.78565  1.0000
  S   S242      1.0  0.30450  0.86719  0.79153  1.0000
  S   S243      1.0  0.38730  0.91023  0.76913  1.0000
  S   S244      1.0  0.36977  0.86421  0.78835  1.0000
  H   H1321     1.0  0.41437  0.95007  0.92845  1.0000
  S   S245      1.0  0.27115  0.78115  0.83711  1.0000
  H   H1322     1.0  0.37909  0.97758  0.83330  1.0000
  H   H1323     1.0  0.34711  0.76794  0.73885  1.0000
  C   C1644     1.0  0.47468  0.69586  0.58881  1.0000
  H   H1324     1.0  0.37114  0.68660  0.73169  1.0000
  H   H1325     1.0  0.35594  0.80170  0.75991  1.0000
  H   H1326     1.0  0.29779  0.83915  0.94446  1.0000
  H   H1327     1.0  0.25142  0.84012  0.67706  1.0000
  C   C1645     1.0  0.29998  0.74003  0.63135  1.0000
  C   C1646     1.0  0.43085  0.94425  0.88985  1.0000
  C   C1647     1.0  0.45961  0.91712  0.92064  1.0000
  S   S246      1.0  0.46870  0.83019  0.54105  1.0000
  C   C1648     1.0  0.30319  0.70942  0.95623  1.0000
  H   H1328     1.0  0.42893  0.89612  0.69445  1.0000
  C   C1649     1.0  0.37528  0.94585  0.57090  1.0000
  C   C1650     1.0  0.33510  0.78125  0.73900  1.0000
  C   C1651     1.0  0.43894  0.82610  0.81515  1.0000
  H   H1329     1.0  0.37360  0.97120  0.66352  1.0000
  C   C1652     1.0  0.28962  0.66418  0.69264  1.0000
  H   H1330     1.0  0.30721  0.72990  0.53245  1.0000
  C   C1653     1.0  0.30444  0.81614  0.74164  1.0000
  H   H1331     1.0  0.24864  0.78885  0.96641  1.0000
  S   S247      1.0  0.41332  0.65967  0.94523  1.0000
  C   C1654     1.0  0.27587  0.90794  0.67001  1.0000
  H   H1332     1.0  0.43549  0.89504  0.64437  1.0000
  C   C1655     1.0  0.41801  0.92951  0.69494  1.0000
  C   C1656     1.0  0.42469  0.92805  0.63834  1.0000
  C   C1657     1.0  0.42580  0.91045  0.68236  1.0000
  C   C1658     1.0  0.42936  0.90980  0.65413  1.0000
  C   C1659     1.0  0.31274  0.69624  0.54045  1.0000
  C   C1660     1.0  0.30530  0.67892  0.55410  1.0000
  C   C1661     1.0  0.28663  0.68180  0.56984  1.0000
  C   C1662     1.0  0.27522  0.70189  0.57189  1.0000
  C   C1663     1.0  0.27883  0.92969  0.67134  1.0000
  C   C1664     1.0  0.46135  0.69437  0.92488  1.0000
  H   H1333     1.0  0.47512  0.68575  0.84040  1.0000
  H   H1334     1.0  0.43594  0.67962  0.64494  1.0000
  H   H1335     1.0  0.43932  0.92573  0.95502  1.0000
  H   H1336     1.0  0.35395  0.66434  0.69007  1.0000
  C   C1665     1.0  0.29637  0.84299  0.80491  1.0000
  C   C1666     1.0  0.27471  0.83940  0.80274  1.0000
  C   C1667     1.0  0.26722  0.82032  0.81173  1.0000
  C   C1668     1.0  0.28109  0.80470  0.82415  1.0000
  C   C1669     1.0  0.30293  0.80812  0.82641  1.0000
  C   C1670     1.0  0.31058  0.82721  0.81677  1.0000
  H   H1337     1.0  0.26351  0.85144  0.79395  1.0000
  C   C1671     1.0  0.26492  0.82707  0.60927  1.0000
  H   H1338     1.0  0.31390  0.79608  0.83571  1.0000
  H   H1339     1.0  0.32733  0.82977  0.81835  1.0000
  C   C1672     1.0  0.45488  0.68887  0.58141  1.0000
  H   H1340     1.0  0.31962  0.84259  0.62956  1.0000
  H   H1341     1.0  0.41527  0.92997  0.71683  1.0000
  C   C1673     1.0  0.27173  0.67584  0.70379  1.0000
  C   C1674     1.0  0.27475  0.83409  0.63306  1.0000
  H   H1342     1.0  0.27439  0.73487  0.56057  1.0000
  C   C1675     1.0  0.38762  0.88328  0.62751  1.0000
  C   C1676     1.0  0.37430  0.89299  0.64774  1.0000
  C   C1677     1.0  0.37677  0.88690  0.67529  1.0000
  C   C1678     1.0  0.39245  0.87081  0.68269  1.0000
  C   C1679     1.0  0.40560  0.86085  0.66238  1.0000
  C   C1680     1.0  0.40326  0.86713  0.63484  1.0000
  H   H1343     1.0  0.36223  0.90548  0.64206  1.0000
  H   H1344     1.0  0.36662  0.89470  0.69078  1.0000
  H   H1345     1.0  0.41776  0.84840  0.66801  1.0000
  H   H1346     1.0  0.41352  0.85949  0.61929  1.0000
  C   C1681     1.0  0.38837  0.87213  0.92761  1.0000
  C   C1682     1.0  0.40766  0.88080  0.92239  1.0000
  C   C1683     1.0  0.41186  0.88810  0.89606  1.0000
  C   C1684     1.0  0.39690  0.88684  0.87484  1.0000
  C   C1685     1.0  0.37746  0.87840  0.88005  1.0000
  C   C1686     1.0  0.37319  0.87113  0.90646  1.0000
  H   H1347     1.0  0.41942  0.88176  0.93852  1.0000
  H   H1348     1.0  0.42680  0.89472  0.89203  1.0000
  H   H1349     1.0  0.36576  0.87752  0.86377  1.0000
  H   H1350     1.0  0.35807  0.86479  0.91046  1.0000
  P   P56       1.0  0.30721  0.75496  0.71240  1.0000
  H   H1351     1.0  0.35557  0.68794  0.57516  1.0000
  H   H1352     1.0  0.24603  0.70018  0.69667  1.0000
  C   C1687     1.0  0.45172  0.84708  0.87366  1.0000
  C   C1688     1.0  0.47151  0.78265  0.84567  1.0000
  H   H1353     1.0  0.26369  0.88113  0.76195  1.0000
  H   H1354     1.0  0.34234  0.96740  0.82774  1.0000
  H   H1355     1.0  0.28852  0.68672  0.62924  1.0000
  H   H1356     1.0  0.28068  0.66831  0.57990  1.0000
  C   C1689     1.0  0.48519  0.75529  0.50388  1.0000
  C   C1690     1.0  0.44184  0.92774  0.93326  1.0000
  C   C1691     1.0  0.35778  0.93619  0.88220  1.0000
  H   H1357     1.0  0.33742  0.65936  0.59594  1.0000
  C   C1692     1.0  0.32289  0.71583  0.73523  1.0000
  C   C1693     1.0  0.37212  0.80613  0.83320  1.0000
  C   C1694     1.0  0.36268  0.81351  0.85770  1.0000
  C   C1695     1.0  0.37541  0.82029  0.87908  1.0000
  C   C1696     1.0  0.39756  0.81983  0.87603  1.0000
  C   C1697     1.0  0.40725  0.81203  0.85170  1.0000
  C   C1698     1.0  0.39432  0.80534  0.83021  1.0000
  H   H1358     1.0  0.33523  0.68572  0.75244  1.0000
  H   H1359     1.0  0.47078  0.90687  0.93267  1.0000
  S   S248      1.0  0.33580  0.69317  0.51996  1.0000
  H   H1360     1.0  0.47054  0.70436  0.50540  1.0000
  C   C1699     1.0  0.29940  0.93650  0.66979  1.0000
  C   C1700     1.0  0.26107  0.86321  0.59230  1.0000
  C   C1701     1.0  0.29350  0.89280  0.66704  1.0000
  H   H1361     1.0  0.34156  0.76440  0.98231  1.0000
  P   P57       1.0  0.41398  0.96406  0.87120  1.0000
  H   H1362     1.0  0.32805  0.88862  0.66278  1.0000
  H   H1363     1.0  0.31371  0.66327  0.55218  1.0000
  H   H1364     1.0  0.42575  0.67729  0.59583  1.0000
  S   S249      1.0  0.24789  0.76771  0.59715  1.0000
  C   C1702     1.0  0.26112  0.87218  0.74332  1.0000
  H   H1365     1.0  0.36214  0.80134  0.81643  1.0000
  H   H1366     1.0  0.34547  0.81430  0.85998  1.0000
  H   H1367     1.0  0.36807  0.82658  0.89774  1.0000
  H   H1368     1.0  0.40686  0.82623  0.89240  1.0000
  H   H1369     1.0  0.40140  0.79998  0.81091  1.0000
  C   C1703     1.0  0.39550  0.65833  0.65200  1.0000
  C   C1704     1.0  0.25996  0.69124  0.68811  1.0000
  C   C1705     1.0  0.43656  0.77345  0.96901  1.0000
  C   C1706     1.0  0.33456  0.67419  0.63616  1.0000
  C   C1707     1.0  0.31471  0.77961  0.72746  1.0000
  H   H1370     1.0  0.41528  0.85196  0.82554  1.0000
  C   C1708     1.0  0.25185  0.80121  0.92580  1.0000
  H   H1371     1.0  0.44345  0.73246  0.54163  1.0000
  C   C1709     1.0  0.39907  0.98111  0.57725  1.0000
  C   C1710     1.0  0.30167  0.73885  0.65990  1.0000
  H   H1372     1.0  0.46652  0.71711  0.89342  1.0000
  H   H1373     1.0  0.42380  0.75396  0.93684  1.0000
  C   C1711     1.0  0.27745  0.85584  0.63692  1.0000
  H   H1374     1.0  0.30587  0.79282  0.62340  1.0000
  C   C1712     1.0  0.36325  0.71657  0.71150  1.0000
  C   C1713     1.0  0.34754  0.73332  0.70687  1.0000
  C   C1714     1.0  0.44930  0.97021  0.59893  1.0000
  H   H1375     1.0  0.29720  0.72594  0.61936  1.0000
  H   H1376     1.0  0.30030  0.72373  0.66984  1.0000
  C   C1715     1.0  0.48204  0.75971  0.98852  1.0000
  H   H1377     1.0  0.44296  0.77947  0.51820  1.0000
  C   C1716     1.0  0.31699  0.92158  0.66655  1.0000
  H   H1378     1.0  0.37890  0.71670  0.70226  1.0000
  H   H1379     1.0  0.35118  0.74646  0.69396  1.0000
  C   C1717     1.0  0.46653  0.69129  0.63676  1.0000
  H   H1380     1.0  0.37962  0.71327  0.54707  1.0000
  H   H1381     1.0  0.38482  0.93771  0.61202  1.0000
  H   H1382     1.0  0.47865  0.72868  0.83913  1.0000
  H   H1383     1.0  0.32873  0.83247  0.76231  1.0000
  C   C1718     1.0  0.30639  0.77664  0.66221  1.0000
  C   C1719     1.0  0.46297  0.91985  0.89264  1.0000
  C   C1720     1.0  0.37877  0.94170  0.88530  1.0000
  C   C1721     1.0  0.38820  0.97795  0.55265  1.0000
  H   H1384     1.0  0.48084  0.79635  0.84680  1.0000
  C   C1722     1.0  0.35494  0.70728  0.61176  1.0000
  C   C1723     1.0  0.34857  0.70901  0.63908  1.0000
  H   H1385     1.0  0.34825  0.98337  0.90730  1.0000
  C   C1724     1.0  0.38605  0.94901  0.59560  1.0000
  C   C1725     1.0  0.34016  0.80033  0.75132  1.0000
  C   C1726     1.0  0.44860  0.93325  0.87724  1.0000
  H   H1386     1.0  0.25065  0.81765  0.80860  1.0000
  C   C1727     1.0  0.31409  0.89982  0.66501  1.0000
  H   H1387     1.0  0.36270  0.72005  0.60228  1.0000
  H   H1388     1.0  0.35132  0.72324  0.65063  1.0000
  C   C1728     1.0  0.32733  0.73324  0.71898  1.0000
  C   C1729     1.0  0.44803  0.74694  0.84207  1.0000
  H   H1389     1.0  0.26503  0.74515  0.68963  1.0000
  C   C1730     1.0  0.33778  0.80520  0.93649  1.0000
  C   C1731     1.0  0.33540  0.78488  0.94706  1.0000
  C   C1732     1.0  0.46321  0.84671  0.92121  1.0000
  P   P58       1.0  0.31980  0.76698  0.92791  1.0000
  C   C1733     1.0  0.32077  0.74064  0.94268  1.0000
  C   C1734     1.0  0.29311  0.78019  0.92685  1.0000
  C   C1735     1.0  0.27965  0.77937  0.94955  1.0000
  C   C1736     1.0  0.25903  0.78967  0.94893  1.0000
  S   S250      1.0  0.39124  0.66426  0.51908  1.0000
  C   C1737     1.0  0.26546  0.80288  0.90361  1.0000
  C   C1738     1.0  0.28610  0.79263  0.90422  1.0000
  C   C1739     1.0  0.34053  0.73009  0.95034  1.0000
  C   C1740     1.0  0.34147  0.70975  0.96187  1.0000
  C   C1741     1.0  0.26519  0.84442  0.95783  1.0000
  H   H1390     1.0  0.25029  0.83611  0.57055  1.0000
  C   C1742     1.0  0.30217  0.72983  0.94486  1.0000
  C   C1743     1.0  0.33061  0.76256  0.89404  1.0000
  C   C1744     1.0  0.35234  0.76455  0.88908  1.0000
  C   C1745     1.0  0.36080  0.76023  0.86299  1.0000
  C   C1746     1.0  0.34760  0.75403  0.84169  1.0000
  C   C1747     1.0  0.32602  0.75177  0.84661  1.0000
  C   C1748     1.0  0.31762  0.75571  0.87276  1.0000
  H   H1391     1.0  0.33247  0.74831  0.50447  1.0000
  H   H1392     1.0  0.37418  0.71939  0.49752  1.0000
  H   H1393     1.0  0.32847  0.94096  0.85894  1.0000
  H   H1394     1.0  0.33098  0.80979  0.91670  1.0000
  C   C1749     1.0  0.43900  0.97783  0.62294  1.0000
  H   H1395     1.0  0.28504  0.77070  0.96767  1.0000
  C   C1750     1.0  0.24476  0.74259  0.72419  1.0000
  C   C1751     1.0  0.36987  0.82940  0.50063  1.0000
  H   H1396     1.0  0.25991  0.81192  0.88569  1.0000
  H   H1397     1.0  0.29634  0.79437  0.88680  1.0000
  H   H1398     1.0  0.35524  0.73759  0.94751  1.0000
  C   C1752     1.0  0.44089  0.68313  0.60164  1.0000
  H   H1399     1.0  0.38880  0.93344  0.90057  1.0000
  C   C1753     1.0  0.29586  0.66790  0.66561  1.0000
  C   C1754     1.0  0.42343  0.76956  0.94629  1.0000
  H   H1400     1.0  0.36279  0.76924  0.90537  1.0000
  H   H1401     1.0  0.37757  0.76178  0.85923  1.0000
  H   H1402     1.0  0.35406  0.75090  0.82140  1.0000
  H   H1403     1.0  0.31562  0.74713  0.83015  1.0000
  H   H1404     1.0  0.30087  0.75365  0.87620  1.0000
  H   H1405     1.0  0.40860  0.96271  0.68969  1.0000
  H   H1406     1.0  0.27283  0.88715  0.61841  1.0000
  H   H1407     1.0  0.33295  0.92686  0.66570  1.0000
  H   H1408     1.0  0.28877  0.70128  0.95827  1.0000
  Fe  Fe125     1.0  0.35581  0.66140  0.51959  1.0000
  H   H1409     1.0  0.42744  0.92719  0.61644  1.0000
  C   C1755     1.0  0.45980  0.85745  0.89642  1.0000
  C   C1756     1.0  0.28670  0.83710  0.96093  1.0000
  H   H1410     1.0  0.43899  0.73305  0.84044  1.0000
  H   H1411     1.0  0.44029  0.97548  0.76119  1.0000
  C   C1757     1.0  0.25807  0.84160  0.58889  1.0000
  C   C1758     1.0  0.40914  0.78584  0.93582  1.0000
  C   C1759     1.0  0.32279  0.69952  0.96506  1.0000
  C   C1760     1.0  0.48471  0.67642  0.85526  1.0000
  H   H1412     1.0  0.30877  0.79103  0.67366  1.0000
  C   C1761     1.0  0.45399  0.82817  0.76956  1.0000
  C   C1762     1.0  0.45097  0.81486  0.90039  1.0000
  H   H1413     1.0  0.35665  0.82682  0.63485  1.0000
  C   C1763     1.0  0.24385  0.85967  0.74126  1.0000
  H   H1414     1.0  0.28362  0.79640  0.72015  1.0000
  C   C1764     1.0  0.48210  0.76224  0.84340  1.0000
  H   H1415     1.0  0.39921  0.78285  0.91822  1.0000
  C   C1765     1.0  0.27981  0.75195  0.75638  1.0000
  P   P59       1.0  0.28956  0.86469  0.66827  1.0000
  C   C1766     1.0  0.27226  0.86151  0.69724  1.0000
  H   H1416     1.0  0.48140  0.68632  0.78337  1.0000
  H   H1417     1.0  0.29245  0.82956  0.74317  1.0000
  C   C1767     1.0  0.42566  0.73269  0.50330  1.0000
  H   H1418     1.0  0.30735  0.71508  0.74441  1.0000
  C   C1768     1.0  0.27529  0.87307  0.72151  1.0000
  C   C1769     1.0  0.31548  0.85029  0.67273  1.0000
  C   C1770     1.0  0.32672  0.84168  0.64984  1.0000
  C   C1771     1.0  0.34780  0.83277  0.65268  1.0000
  C   C1772     1.0  0.35787  0.83254  0.67830  1.0000
  C   C1773     1.0  0.34689  0.84123  0.70106  1.0000
  C   C1774     1.0  0.32579  0.85006  0.69835  1.0000
  H   H1419     1.0  0.33294  0.69449  0.67220  1.0000
  C   C1775     1.0  0.35707  0.81450  0.97745  1.0000
  C   C1776     1.0  0.34076  0.67280  0.60856  1.0000
  C   C1777     1.0  0.28202  0.75010  0.72780  1.0000
  H   H1420     1.0  0.34999  0.83576  0.94368  1.0000
  H   H1421     1.0  0.28844  0.88307  0.72363  1.0000
  H   H1422     1.0  0.48048  0.73818  0.59544  1.0000
  H   H1423     1.0  0.35505  0.84180  0.72066  1.0000
  H   H1424     1.0  0.31791  0.85731  0.71613  1.0000
  C   C1778     1.0  0.29945  0.79726  0.72883  1.0000
  Fe  Fe126     1.0  0.44301  0.91077  0.53174  1.0000
  C   C1779     1.0  0.33829  0.69263  0.65122  1.0000
  C   C1780     1.0  0.34849  0.81995  0.95170  1.0000
  C   C1781     1.0  0.46362  0.71481  0.91496  1.0000
  H   H1425     1.0  0.42010  0.76894  0.84415  1.0000
  C   C1782     1.0  0.25070  0.84103  0.97859  1.0000
  H   H1426     1.0  0.35204  0.92397  0.89508  1.0000
  C   C1783     1.0  0.40755  0.80597  0.94818  1.0000
  H   H1427     1.0  0.41426  0.71997  0.56915  1.0000
  C   C1784     1.0  0.32482  0.81770  0.75271  1.0000
  H   H1428     1.0  0.25988  0.90285  0.67186  1.0000
  C   C1785     1.0  0.44020  0.96396  0.51628  1.0000
  C   C1786     1.0  0.30162  0.75945  0.61822  1.0000
  C   C1787     1.0  0.45736  0.72958  0.96062  1.0000
  H   H1429     1.0  0.25698  0.70709  0.64915  1.0000
  S   S251      1.0  0.45047  0.88426  0.50096  1.0000
  H   H1430     1.0  0.36626  0.93202  0.56837  1.0000
  H   H1431     1.0  0.41799  0.87057  0.78164  1.0000
  H   H1432     1.0  0.30177  0.95332  0.67141  1.0000
  H   H1433     1.0  0.36852  0.95748  0.53006  1.0000
  H   H1434     1.0  0.44130  0.96047  0.58438  1.0000
  C   C1788     1.0  0.35096  0.68921  0.59650  1.0000
  H   H1435     1.0  0.38308  0.67032  0.65812  1.0000
  H   H1436     1.0  0.28689  0.73698  0.93762  1.0000
  C   C1789     1.0  0.26428  0.74554  0.71175  1.0000
  P   P60       1.0  0.41232  0.97102  0.63035  1.0000
  C   C1790     1.0  0.42365  0.96705  0.83674  1.0000
  C   C1791     1.0  0.41661  0.94722  0.65075  1.0000
  H   H1437     1.0  0.46251  0.68076  0.91109  1.0000
  C   C1792     1.0  0.42773  0.85580  0.78528  1.0000
  C   C1793     1.0  0.47221  0.73834  0.50026  1.0000
  H   H1438     1.0  0.29303  0.75616  0.76915  1.0000
  C   C1794     1.0  0.41903  0.95226  0.81631  1.0000
  H   H1439     1.0  0.44875  0.85603  0.85499  1.0000
  H   H1440     1.0  0.44203  0.85526  0.74536  1.0000
  H   H1441     1.0  0.41052  0.93853  0.82130  1.0000
  H   H1442     1.0  0.45161  0.93522  0.85565  1.0000
  H   H1443     1.0  0.26522  0.94126  0.67408  1.0000
  C   C1795     1.0  0.30157  0.71644  0.54295  1.0000
  C   C1796     1.0  0.35230  0.96071  0.84436  1.0000
  C   C1797     1.0  0.42502  0.95530  0.78917  1.0000
  C   C1798     1.0  0.42852  0.72954  0.53162  1.0000
  C   C1799     1.0  0.24279  0.74425  0.75264  1.0000
  C   C1800     1.0  0.33864  0.69907  0.73975  1.0000
  P   P61       1.0  0.43577  0.81208  0.84689  1.0000
  C   C1801     1.0  0.28294  0.71929  0.55880  1.0000
  H   H1444     1.0  0.45557  0.67554  0.96021  1.0000
  H   H1445     1.0  0.36817  0.86076  0.51905  1.0000
  C   C1802     1.0  0.45278  0.81760  0.79457  1.0000
  H   H1446     1.0  0.45612  0.98878  0.53652  1.0000
  C   C1803     1.0  0.41381  0.94796  0.67932  1.0000
  C   C1804     1.0  0.44080  0.98759  0.80254  1.0000
  C   C1805     1.0  0.29378  0.82678  0.98502  1.0000
  H   H1447     1.0  0.25855  0.75105  0.79070  1.0000
  H   H1448     1.0  0.30010  0.76036  0.59610  1.0000
  C   C1806     1.0  0.26572  0.65742  0.51469  1.0000
  Fe  Fe127     1.0  0.44999  0.86258  0.53757  1.0000
  S   S252      1.0  0.45674  0.94296  0.53131  1.0000
  C   C1807     1.0  0.30483  0.75713  0.67557  1.0000
  C   C1808     1.0  0.26610  0.69508  0.66129  1.0000
  C   C1809     1.0  0.41990  0.80972  0.97130  1.0000
  C   C1810     1.0  0.42632  0.84522  0.81019  1.0000
  C   C1811     1.0  0.37324  0.96636  0.84752  1.0000
  H   H1449     1.0  0.26308  0.76734  0.52834  1.0000
  H   H1450     1.0  0.48545  0.70006  0.57293  1.0000
  H   H1451     1.0  0.35670  0.70182  0.96832  1.0000
  H   H1452     1.0  0.44738  0.79843  0.90239  1.0000
  H   H1453     1.0  0.37447  0.82642  0.68039  1.0000
  H   H1454     1.0  0.39656  0.81868  0.94017  1.0000
  C   C1812     1.0  0.39239  0.71898  0.53504  1.0000
  C   C1813     1.0  0.37651  0.96019  0.54935  1.0000
  C   C1814     1.0  0.43483  0.98463  0.82971  1.0000
  H   H1455     1.0  0.31037  0.82071  0.98681  1.0000
  H   H1456     1.0  0.46243  0.80273  0.79739  1.0000
  C   C1815     1.0  0.43737  0.76736  0.84406  1.0000
  S   S253      1.0  0.25121  0.70458  0.59054  1.0000
  C   C1816     1.0  0.28397  0.68348  0.65006  1.0000
  H   H1457     1.0  0.38342  0.82338  0.51304  1.0000
  H   H1458     1.0  0.27973  0.82261  0.64880  1.0000
  H   H1459     1.0  0.47800  0.96881  0.57504  1.0000
  C   C1817     1.0  0.44377  0.98529  0.52204  1.0000
  H   H1460     1.0  0.47078  0.69176  0.65828  1.0000
  C   C1818     1.0  0.44725  0.82566  0.87547  1.0000
  C   C1819     1.0  0.38931  0.72245  0.50700  1.0000
  C   C1820     1.0  0.41194  0.72262  0.54737  1.0000
  C   C1821     1.0  0.46198  0.73230  0.93282  1.0000
  C   C1822     1.0  0.30482  0.77773  0.63362  1.0000
  C   C1823     1.0  0.39845  0.96640  0.59868  1.0000
  C   C1824     1.0  0.44904  0.78541  0.84551  1.0000
  C   C1825     1.0  0.34371  0.77964  0.97320  1.0000
  C   C1826     1.0  0.44142  0.84722  0.76489  1.0000
  C   C1827     1.0  0.45882  0.82540  0.92317  1.0000
  C   C1828     1.0  0.38672  0.95690  0.86803  1.0000
  H   H1461     1.0  0.44150  0.97993  0.91529  1.0000
  C   C1829     1.0  0.26754  0.67192  0.49343  1.0000
  C   C1830     1.0  0.27071  0.87035  0.61623  1.0000
  C   C1831     1.0  0.34452  0.94574  0.86184  1.0000
  C   C1832     1.0  0.43578  0.97302  0.78225  1.0000
  C   C1833     1.0  0.44667  0.68443  0.62928  1.0000
  H   H1462     1.0  0.26229  0.81039  0.60681  1.0000
  H   H1463     1.0  0.43005  0.81693  0.51049  1.0000
  H   H1464     1.0  0.46404  0.74801  0.92485  1.0000
  H   H1465     1.0  0.26696  0.67292  0.72463  1.0000
  C   C1834     1.0  0.37811  0.98740  0.66241  1.0000
  H   H1466     1.0  0.38293  0.97271  0.75536  1.0000
  H   H1467     1.0  0.24848  0.78975  0.72790  1.0000
  C   C1835     1.0  0.45756  0.69142  0.95268  1.0000
  C   C1836     1.0  0.26028  0.74901  0.76871  1.0000
  Fe  Fe128     1.0  0.41500  0.88220  0.49995  1.0000
  C   C1837     1.0  0.35470  0.79435  0.98819  1.0000
  H   H1468     1.0  0.27634  0.79096  0.49330  1.0000
  C   C1838     1.0  0.48001  0.71778  0.50862  1.0000
  C   C1839     1.0  0.47037  0.74441  0.84149  1.0000
  H   H1469     1.0  0.46302  0.87400  0.89493  1.0000
  C   C1840     1.0  0.48079  0.69685  0.61653  1.0000
  H   H1470     1.0  0.25352  0.73151  0.51580  1.0000
  C   C1841     1.0  0.25473  0.84903  0.69534  1.0000
  H   H1471     1.0  0.32357  0.68383  0.97419  1.0000
  H   H1472     1.0  0.46126  0.81720  0.94249  1.0000
  H   H1473     1.0  0.47679  0.91168  0.88283  1.0000
  C   C1842     1.0  0.34920  0.98229  0.75230  1.0000
  H   H1474     1.0  0.25958  0.85213  0.93900  1.0000
  C   C1843     1.0  0.47024  0.97485  0.59363  1.0000
  C   C1844     1.0  0.40189  0.97341  0.99000  1.0000
  H   H1475     1.0  0.46905  0.85496  0.93896  1.0000
  C   C1845     1.0  0.24947  0.66097  0.53400  1.0000
  C   C1846     1.0  0.43398  0.79343  0.98205  1.0000
  C   C1847     1.0  0.42418  0.95963  0.49750  1.0000
  H   H1476     1.0  0.43309  0.66417  0.89302  1.0000
  C   C1848     1.0  0.25975  0.74127  0.50018  1.0000
  C   C1849     1.0  0.48112  0.98699  0.61233  1.0000
  H   H1477     1.0  0.46453  0.82149  0.75363  1.0000
  H   H1478     1.0  0.36544  0.82599  0.98913  1.0000
  C   C1850     1.0  0.26531  0.76161  0.50747  1.0000
  H   H1479     1.0  0.42152  0.94333  0.49242  1.0000
  C   C1851     1.0  0.45588  0.70888  0.97061  1.0000
  H   H1480     1.0  0.48002  0.77121  0.49703  1.0000
  C   C1852     1.0  0.36131  0.85047  0.50408  1.0000
  H   H1481     1.0  0.47610  0.79321  0.97814  1.0000
  S   S254      1.0  0.40753  0.65729  0.70632  1.0000
  H   H1482     1.0  0.38537  0.97319  0.98366  1.0000
  C   C1853     1.0  0.37099  0.98593  0.75240  1.0000
  H   H1483     1.0  0.38637  0.65928  0.60911  1.0000
  H   H1484     1.0  0.48335  0.77674  0.59044  1.0000
  C   C1854     1.0  0.43765  0.78437  0.49783  1.0000
  C   C1855     1.0  0.43013  0.80564  0.49361  1.0000
  P   P62       1.0  0.45497  0.75255  0.98315  1.0000
  C   C1856     1.0  0.48775  0.78053  0.98425  1.0000
  H   H1485     1.0  0.41850  0.82533  0.98090  1.0000
  H   H1486     1.0  0.45329  0.70604  0.99210  1.0000
  C   C1857     1.0  0.62583  0.28475  0.36794  1.0000
  H   H1487     1.0  0.64776  0.19881  0.09958  1.0000
  S   S255      1.0  0.51534  0.28441  0.43964  1.0000
  S   S256      1.0  0.68484  0.22355  0.10143  1.0000
  C   C1858     1.0  0.62400  0.26097  0.22560  1.0000
  C   C1859     1.0  0.64160  0.24940  0.23744  1.0000
  C   C1860     1.0  0.51408  0.30872  0.15586  1.0000
  C   C1861     1.0  0.57213  0.29042  0.32356  1.0000
  C   C1862     1.0  0.50004  0.27331  0.27083  1.0000
  H   H1488     1.0  0.62874  0.20960  0.02978  1.0000
  S   S257      1.0  0.50626  0.28979  0.37311  1.0000
  C   C1863     1.0  0.50081  0.12848  0.08953  1.0000
  H   H1489     1.0  0.60709  0.22664  0.07180  1.0000
  C   C1864     1.0  0.58896  0.28690  0.99343  1.0000
  C   C1865     1.0  0.50569  0.26905  0.03118  1.0000
  H   H1490     1.0  0.49622  0.27650  0.31466  1.0000
  C   C1866     1.0  0.57940  0.01932  0.48472  1.0000
  S   S258      1.0  0.72216  0.26429  0.06588  1.0000
  S   S259      1.0  0.53401  0.24674  0.39679  1.0000
  H   H1491     1.0  0.53252  0.31065  0.19292  1.0000
  C   C1867     1.0  0.50063  0.24356  0.30227  1.0000
  Fe  Fe129     1.0  0.52215  0.20165  0.15741  1.0000
  C   C1868     1.0  0.72439  0.29263  0.99806  1.0000
  S   S260      1.0  0.51406  0.16740  0.16220  1.0000
  Fe  Fe130     1.0  0.56094  0.22816  0.15495  1.0000
  S   S261      1.0  0.53935  0.25818  0.15110  1.0000
  S   S262      1.0  0.59535  0.23566  0.16330  1.0000
  Fe  Fe131     1.0  0.51923  0.24551  0.18356  1.0000
  S   S263      1.0  0.50649  0.26933  0.21554  1.0000
  Fe  Fe132     1.0  0.52007  0.24064  0.12126  1.0000
  H   H1492     1.0  0.54717  0.22203  0.01329  1.0000
  S   S264      1.0  0.54189  0.21652  0.18986  1.0000
  S   S265      1.0  0.54295  0.21106  0.12244  1.0000
  C   C1869     1.0  0.61965  0.23178  0.14486  1.0000
  C   C1870     1.0  0.65521  0.24341  0.13670  1.0000
  C   C1871     1.0  0.63538  0.24591  0.14994  1.0000
  C   C1872     1.0  0.63470  0.22489  0.02566  1.0000
  Fe  Fe133     1.0  0.71808  0.27981  0.31894  1.0000
  C   C1873     1.0  0.50371  0.25918  0.24869  1.0000
  C   C1874     1.0  0.50542  0.23722  0.25331  1.0000
  C   C1875     1.0  0.50376  0.22945  0.28003  1.0000
  H   H1493     1.0  0.52728  0.11569  0.47288  1.0000
  C   C1876     1.0  0.69570  0.30261  0.47392  1.0000
  C   C1877     1.0  0.51410  0.25552  0.05206  1.0000
  C   C1878     1.0  0.52901  0.23852  0.04552  1.0000
  C   C1879     1.0  0.53562  0.23521  0.01825  1.0000
  H   H1494     1.0  0.53521  0.22776  0.06138  1.0000
  S   S266      1.0  0.70703  0.23951  0.37526  1.0000
  C   C1880     1.0  0.51462  0.30749  0.12727  1.0000
  H   H1495     1.0  0.60881  0.23524  0.36154  1.0000
  H   H1496     1.0  0.56082  0.09175  0.47332  1.0000
  C   C1881     1.0  0.49763  0.02170  0.23674  1.0000
  C   C1882     1.0  0.59870  0.31797  0.13307  1.0000
  H   H1497     1.0  0.49190  0.21561  0.05338  1.0000
  H   H1498     1.0  0.50939  0.03600  0.11937  1.0000
  H   H1499     1.0  0.55360  0.27950  0.04445  1.0000
  C   C1883     1.0  0.73803  0.28519  0.47532  1.0000
  Fe  Fe134     1.0  0.70073  0.29457  0.06612  1.0000
  H   H1500     1.0  0.60274  0.28927  0.22690  1.0000
  H   H1501     1.0  0.51870  0.08110  0.11851  1.0000
  C   C1884     1.0  0.51856  0.09764  0.11249  1.0000
  H   H1502     1.0  0.49862  0.29032  0.26731  1.0000
  C   C1885     1.0  0.63369  0.31581  0.45844  1.0000
  H   H1503     1.0  0.52276  0.99434  0.31234  1.0000
  S   S267      1.0  0.64901  0.24906  0.34618  1.0000
  C   C1886     1.0  0.58713  0.28321  0.09813  1.0000
  C   C1887     1.0  0.51227  0.26573  0.00389  1.0000
  Fe  Fe135     1.0  0.72216  0.27025  0.38049  1.0000
  C   C1888     1.0  0.49884  0.26553  0.29765  1.0000
  C   C1889     1.0  0.61625  0.28061  0.23672  1.0000
  H   H1504     1.0  0.62460  0.20921  0.46383  1.0000
  C   C1890     1.0  0.58984  0.29203  0.30675  1.0000
  H   H1505     1.0  0.57718  0.31849  0.24150  1.0000
  H   H1506     1.0  0.50081  0.03321  0.22117  1.0000
  C   C1891     1.0  0.60888  0.27815  0.09233  1.0000
  C   C1892     1.0  0.62501  0.30938  0.16898  1.0000
  H   H1507     1.0  0.53238  0.30778  0.01890  1.0000
  H   H1508     1.0  0.68925  0.28699  0.26436  1.0000
  H   H1509     1.0  0.57657  0.25347  0.38267  1.0000
  C   C1893     1.0  0.56959  0.25390  0.22964  1.0000
  C   C1894     1.0  0.55743  0.26920  0.24498  1.0000
  C   C1895     1.0  0.55315  0.26533  0.27241  1.0000
  C   C1896     1.0  0.56086  0.24612  0.28459  1.0000
  C   C1897     1.0  0.57295  0.23056  0.26922  1.0000
  C   C1898     1.0  0.57742  0.23469  0.24169  1.0000
  P   P63       1.0  0.58182  0.20488  0.28344  1.0000
  C   C1899     1.0  0.61029  0.20143  0.27740  1.0000
  C   C1900     1.0  0.57512  0.20271  0.31930  1.0000
  C   C1901     1.0  0.59085  0.19756  0.33942  1.0000
  C   C1902     1.0  0.58514  0.19585  0.36693  1.0000
  C   C1903     1.0  0.56367  0.19849  0.37446  1.0000
  C   C1904     1.0  0.54788  0.20266  0.35447  1.0000
  C   C1905     1.0  0.55354  0.20476  0.32704  1.0000
  C   C1906     1.0  0.61864  0.18808  0.25618  1.0000
  C   C1907     1.0  0.64070  0.18546  0.25175  1.0000
  C   C1908     1.0  0.65457  0.19617  0.26840  1.0000
  C   C1909     1.0  0.64632  0.20999  0.28894  1.0000
  C   C1910     1.0  0.62424  0.21315  0.29287  1.0000
  C   C1911     1.0  0.56769  0.18464  0.26644  1.0000
  C   C1912     1.0  0.54901  0.19022  0.25120  1.0000
  C   C1913     1.0  0.53816  0.17449  0.23802  1.0000
  C   C1914     1.0  0.54563  0.15305  0.24040  1.0000
  C   C1915     1.0  0.56381  0.14728  0.25631  1.0000
  C   C1916     1.0  0.57473  0.16300  0.26947  1.0000
  H   H1510     1.0  0.57252  0.25671  0.20818  1.0000
  H   H1511     1.0  0.55074  0.28375  0.23538  1.0000
  H   H1512     1.0  0.54334  0.27706  0.28409  1.0000
  H   H1513     1.0  0.55704  0.24351  0.30577  1.0000
  H   H1514     1.0  0.58651  0.22286  0.22924  1.0000
  H   H1515     1.0  0.60752  0.19470  0.33422  1.0000
  H   H1516     1.0  0.59740  0.19246  0.38242  1.0000
  H   H1517     1.0  0.55919  0.19728  0.39576  1.0000
  H   H1518     1.0  0.53118  0.20450  0.36024  1.0000
  H   H1519     1.0  0.54100  0.20812  0.31190  1.0000
  H   H1520     1.0  0.60819  0.17993  0.24271  1.0000
  H   H1521     1.0  0.64705  0.17519  0.23530  1.0000
  H   H1522     1.0  0.67168  0.19404  0.26512  1.0000
  H   H1523     1.0  0.65702  0.21856  0.30163  1.0000
  H   H1524     1.0  0.61813  0.22459  0.30823  1.0000
  H   H1525     1.0  0.54283  0.20670  0.24933  1.0000
  H   H1526     1.0  0.52408  0.17892  0.22561  1.0000
  H   H1527     1.0  0.53728  0.14097  0.22984  1.0000
  H   H1528     1.0  0.56945  0.13062  0.25835  1.0000
  H   H1529     1.0  0.58872  0.15833  0.28185  1.0000
  C   C1917     1.0  0.64311  0.27656  0.27262  1.0000
  C   C1918     1.0  0.50135  0.03466  0.43266  1.0000
  C   C1919     1.0  0.55315  0.30950  0.12829  1.0000
  H   H1530     1.0  0.67937  0.30956  0.47329  1.0000
  H   H1531     1.0  0.65047  0.28194  0.29129  1.0000
  S   S268      1.0  0.49837  0.23318  0.33539  1.0000
  P   P64       1.0  0.64149  0.25073  0.46166  1.0000
  C   C1920     1.0  0.61478  0.24261  0.45732  1.0000
  C   C1921     1.0  0.64256  0.27791  0.45057  1.0000
  C   C1922     1.0  0.63311  0.29465  0.46671  1.0000
  C   C1923     1.0  0.53538  0.02175  0.47309  1.0000
  H   H1532     1.0  0.49407  0.28218  0.03610  1.0000
  C   C1924     1.0  0.65380  0.30387  0.41833  1.0000
  C   C1925     1.0  0.65301  0.28265  0.42634  1.0000
  C   C1926     1.0  0.59748  0.25739  0.45076  1.0000
  C   C1927     1.0  0.57722  0.25048  0.44600  1.0000
  C   C1928     1.0  0.65045  0.26405  0.01434  1.0000
  S   S269      1.0  0.71968  0.31188  0.09719  1.0000
  H   H1533     1.0  0.72339  0.20238  0.12518  1.0000
  C   C1929     1.0  0.65878  0.23229  0.44158  1.0000
  C   C1930     1.0  0.67813  0.22280  0.45225  1.0000
  C   C1931     1.0  0.69072  0.20788  0.43664  1.0000
  C   C1932     1.0  0.68407  0.20228  0.41037  1.0000
  C   C1933     1.0  0.66490  0.21173  0.39958  1.0000
  C   C1934     1.0  0.65231  0.22665  0.41511  1.0000
  S   S270      1.0  0.50537  0.26020  0.08596  1.0000
  C   C1935     1.0  0.71780  0.30101  0.25241  1.0000
  S   S271      1.0  0.72945  0.30086  0.28550  1.0000
  C   C1936     1.0  0.65117  0.25722  0.26094  1.0000
  C   C1937     1.0  0.64405  0.32042  0.43426  1.0000
  H   H1534     1.0  0.50527  0.21246  0.28355  1.0000
  H   H1535     1.0  0.49917  0.30758  0.16659  1.0000
  C   C1938     1.0  0.60149  0.24254  0.07853  1.0000
  C   C1939     1.0  0.70554  0.29453  0.44973  1.0000
  H   H1536     1.0  0.66062  0.27013  0.41357  1.0000
  H   H1537     1.0  0.59949  0.27417  0.44851  1.0000
  H   H1538     1.0  0.56398  0.26197  0.44082  1.0000
  C   C1940     1.0  0.56028  0.28623  0.02645  1.0000
  H   H1539     1.0  0.61636  0.25468  0.20771  1.0000
  C   C1941     1.0  0.57415  0.22880  0.44716  1.0000
  H   H1540     1.0  0.68363  0.22673  0.47253  1.0000
  H   H1541     1.0  0.70573  0.20079  0.44482  1.0000
  H   H1542     1.0  0.69402  0.19106  0.39804  1.0000
  H   H1543     1.0  0.66000  0.20794  0.37889  1.0000
  H   H1544     1.0  0.63758  0.23392  0.40638  1.0000
  H   H1545     1.0  0.50010  0.30541  0.11576  1.0000
  C   C1942     1.0  0.55011  0.02437  0.45211  1.0000
  C   C1943     1.0  0.57203  0.02317  0.45797  1.0000
  C   C1944     1.0  0.55245  0.31082  0.15705  1.0000
  C   C1945     1.0  0.59120  0.21401  0.45381  1.0000
  C   C1946     1.0  0.70236  0.29806  0.99619  1.0000
  H   H1546     1.0  0.54482  0.02750  0.43128  1.0000
  C   C1947     1.0  0.62592  0.28872  0.26016  1.0000
  C   C1948     1.0  0.61598  0.25791  0.08258  1.0000
  H   H1547     1.0  0.56688  0.31159  0.16908  1.0000
  C   C1949     1.0  0.49349  0.11305  0.99673  1.0000
  H   H1548     1.0  0.66380  0.21802  0.04889  1.0000
  C   C1950     1.0  0.68807  0.29574  0.22154  1.0000
  C   C1951     1.0  0.50198  0.03027  0.38302  1.0000
  C   C1952     1.0  0.51760  0.14054  0.09774  1.0000
  C   C1953     1.0  0.53463  0.13119  0.11335  1.0000
  C   C1954     1.0  0.53508  0.10978  0.12081  1.0000
  H   H1549     1.0  0.72760  0.31812  0.18775  1.0000
  S   S272      1.0  0.56613  0.29780  0.39940  1.0000
  Fe  Fe136     1.0  0.53483  0.28205  0.40096  1.0000
  H   H1550     1.0  0.63314  0.30947  0.01735  1.0000
  H   H1551     1.0  0.62519  0.29132  0.48563  1.0000
  C   C1955     1.0  0.72863  0.30954  0.23058  1.0000
  H   H1552     1.0  0.50059  0.10617  0.03890  1.0000
  S   S273      1.0  0.67882  0.28345  0.09807  1.0000
  Fe  Fe137     1.0  0.51279  0.24946  0.43357  1.0000
  H   H1553     1.0  0.56900  0.27517  0.33200  1.0000
  H   H1554     1.0  0.60315  0.28754  0.15381  1.0000
  C   C1956     1.0  0.57264  0.26772  0.09372  1.0000
  C   C1957     1.0  0.62257  0.23996  0.00979  1.0000
  H   H1555     1.0  0.64772  0.23433  0.22846  1.0000
  H   H1556     1.0  0.62049  0.28971  0.09563  1.0000
  C   C1958     1.0  0.58069  0.27878  0.01747  1.0000
  C   C1959     1.0  0.60742  0.29517  0.38005  1.0000
  H   H1557     1.0  0.51740  0.15730  0.09294  1.0000
  H   H1558     1.0  0.54709  0.14082  0.12047  1.0000
  H   H1559     1.0  0.54805  0.10270  0.13339  1.0000
  H   H1560     1.0  0.66210  0.30745  0.39978  1.0000
  H   H1561     1.0  0.58333  0.02524  0.44173  1.0000
  C   C1960     1.0  0.59018  0.26231  0.37881  1.0000
  H   H1562     1.0  0.73108  0.26467  0.20726  1.0000
  C   C1961     1.0  0.63452  0.31466  0.99638  1.0000
  H   H1563     1.0  0.60698  0.31199  0.38490  1.0000
  H   H1564     1.0  0.60035  0.27785  0.30253  1.0000
  H   H1565     1.0  0.63294  0.29800  0.18308  1.0000
  H   H1566     1.0  0.50457  0.26543  0.49160  1.0000
  C   C1962     1.0  0.64430  0.21202  0.11357  1.0000
  S   S274      1.0  0.69711  0.28947  0.35521  1.0000
  C   C1963     1.0  0.65981  0.22654  0.11836  1.0000
  C   C1964     1.0  0.62648  0.26305  0.36147  1.0000
  S   S275      1.0  0.51804  0.22444  0.46643  1.0000
  H   H1567     1.0  0.65744  0.27851  0.00910  1.0000
  C   C1965     1.0  0.60850  0.25197  0.36668  1.0000
  H   H1568     1.0  0.55851  0.22346  0.44302  1.0000
  H   H1569     1.0  0.69695  0.29539  0.43048  1.0000
  C   C1966     1.0  0.50154  0.10694  0.09685  1.0000
  Fe  Fe138     1.0  0.68342  0.25791  0.34757  1.0000
  S   S276      1.0  0.68743  0.30667  0.02544  1.0000
  H   H1570     1.0  0.61242  0.20344  0.12300  1.0000
  H   H1571     1.0  0.66710  0.25444  0.14113  1.0000
  H   H1572     1.0  0.58870  0.19723  0.45490  1.0000
  S   S277      1.0  0.68535  0.31011  0.16844  1.0000
  C   C1967     1.0  0.62424  0.21466  0.12672  1.0000
  Fe  Fe139     1.0  0.70061  0.29660  0.12947  1.0000
  P   P65       1.0  0.57820  0.30966  0.11019  1.0000
  H   H1573     1.0  0.50457  0.02018  0.36508  1.0000
  C   C1968     1.0  0.73581  0.24534  0.24332  1.0000
  S   S278      1.0  0.70285  0.24963  0.30975  1.0000
  H   H1574     1.0  0.49376  0.17727  0.04246  1.0000
  C   C1969     1.0  0.49490  0.02821  0.26398  1.0000
  H   H1575     1.0  0.60037  0.31127  0.05722  1.0000
  C   C1970     1.0  0.58945  0.28401  0.38543  1.0000
  H   H1576     1.0  0.55579  0.27105  0.09769  1.0000
  H   H1577     1.0  0.73246  0.29346  0.01766  1.0000
  H   H1578     1.0  0.63287  0.25399  0.07895  1.0000
  H   H1579     1.0  0.66480  0.24828  0.27023  1.0000
  Fe  Fe140     1.0  0.72764  0.23412  0.33818  1.0000
  P   P66       1.0  0.50696  0.02343  0.46627  1.0000
  H   H1580     1.0  0.49590  0.04481  0.26952  1.0000
  H   H1581     1.0  0.51035  0.00495  0.41134  1.0000
  C   C1971     1.0  0.61144  0.22087  0.45895  1.0000
  Fe  Fe141     1.0  0.50425  0.25432  0.37185  1.0000
  C   C1972     1.0  0.69884  0.30452  0.19978  1.0000
  C   C1973     1.0  0.50503  0.02169  0.40928  1.0000
  Fe  Fe142     1.0  0.70143  0.25419  0.10014  1.0000
  H   H1582     1.0  0.63227  0.25902  0.16411  1.0000
  H   H1583     1.0  0.67769  0.26662  0.48988  1.0000
  H   H1584     1.0  0.55205  0.32065  0.45342  1.0000
  C   C1974     1.0  0.72674  0.28580  0.45036  1.0000
  C   C1975     1.0  0.49691  0.99740  0.46634  1.0000
  H   H1585     1.0  0.63941  0.29349  0.36333  1.0000
  H   H1586     1.0  0.67213  0.29083  0.21826  1.0000
  H   H1587     1.0  0.67782  0.25272  0.03862  1.0000
  H   H1588     1.0  0.50731  0.99635  0.12416  1.0000
  H   H1589     1.0  0.58980  0.26673  0.02929  1.0000
  S   S279      1.0  0.72264  0.26683  0.13273  1.0000
  S   S280      1.0  0.49809  0.22996  0.15368  1.0000
  C   C1976     1.0  0.69769  0.29362  0.24766  1.0000
  C   C1977     1.0  0.65450  0.22956  0.03630  1.0000
  H   H1590     1.0  0.72439  0.25518  0.25540  1.0000
  C   C1978     1.0  0.66236  0.24913  0.03062  1.0000
  H   H1591     1.0  0.50589  0.04560  0.07041  1.0000
  C   C1979     1.0  0.53297  0.31046  0.17073  1.0000
  C   C1980     1.0  0.57986  0.24744  0.08409  1.0000
  H   H1592     1.0  0.56874  0.23540  0.08129  1.0000
  C   C1981     1.0  0.63020  0.25984  0.00435  1.0000
  C   C1982     1.0  0.53403  0.30793  0.11352  1.0000
  H   H1593     1.0  0.50203  0.12513  0.16802  1.0000
  C   C1983     1.0  0.49529  0.05186  0.37988  1.0000
  H   H1594     1.0  0.50801  0.22625  0.23627  1.0000
  H   H1595     1.0  0.60736  0.23601  0.00139  1.0000
  C   C1984     1.0  0.71934  0.31102  0.20427  1.0000
  C   C1985     1.0  0.54822  0.30214  0.01195  1.0000
  C   C1986     1.0  0.60830  0.30351  0.15223  1.0000
  C   C1987     1.0  0.49400  0.05618  0.42927  1.0000
  H   H1596     1.0  0.49255  0.05852  0.35956  1.0000
  C   C1988     1.0  0.49485  0.04462  0.11203  1.0000
  H   H1597     1.0  0.53416  0.30644  0.09138  1.0000
  C   C1989     1.0  0.54695  0.31870  0.47440  1.0000
  S   S281      1.0  0.73981  0.27593  0.42036  1.0000
  H   H1598     1.0  0.49705  0.99572  0.20806  1.0000
  Fe  Fe143     1.0  0.74043  0.28106  0.09817  1.0000
  H   H1599     1.0  0.51424  0.99732  0.07420  1.0000
  H   H1600     1.0  0.57767  0.30501  0.48778  1.0000
  C   C1990     1.0  0.52734  0.24885  0.99741  1.0000
  C   C1991     1.0  0.49547  0.00051  0.22938  1.0000
  C   C1992     1.0  0.73972  0.25074  0.21624  1.0000
  H   H1601     1.0  0.51269  0.06683  0.48566  1.0000
  H   H1602     1.0  0.73927  0.20297  0.17134  1.0000
  C   C1993     1.0  0.55856  0.30848  0.32993  1.0000
  P   P67       1.0  0.61653  0.31447  0.27413  1.0000
  C   C1994     1.0  0.59385  0.31185  0.29588  1.0000
  H   H1603     1.0  0.54516  0.30715  0.34349  1.0000
  H   H1604     1.0  0.59640  0.01835  0.48921  1.0000
  C   C1995     1.0  0.49282  0.04995  0.08421  1.0000
  C   C1996     1.0  0.49257  0.11749  0.02485  1.0000
  C   C1997     1.0  0.74064  0.20150  0.12758  1.0000
  H   H1605     1.0  0.66072  0.32116  0.26096  1.0000
  C   C1998     1.0  0.53497  0.11113  0.49220  1.0000
  H   H1606     1.0  0.61928  0.27939  0.55226  1.0000
  H   H1607     1.0  0.51970  0.16839  0.93726  1.0000
  Fe  Fe144     1.0  0.52480  0.26691  0.92965  1.0000
  H   H1608     1.0  0.69877  0.27454  0.69733  1.0000
  S   S282      1.0  0.71054  0.25122  0.80653  1.0000
  H   H1609     1.0  0.61129  0.22388  0.88810  1.0000
  H   H1610     1.0  0.65173  0.29577  0.86374  1.0000
  H   H1611     1.0  0.69317  0.20782  0.68331  1.0000
  C   C1999     1.0  0.73751  0.23324  0.69960  1.0000
  C   C2000     1.0  0.63793  0.30523  0.54278  1.0000
  S   S283      1.0  0.72993  0.27136  0.57270  1.0000
  C   C2001     1.0  0.55386  0.09767  0.49245  1.0000
  C   C2002     1.0  0.57110  0.23469  0.52023  1.0000
  H   H1612     1.0  0.63484  0.29693  0.80467  1.0000
  C   C2003     1.0  0.61315  0.28879  0.65120  1.0000
  C   C2004     1.0  0.61195  0.23435  0.90574  1.0000
  H   H1613     1.0  0.51411  0.13850  0.78140  1.0000
  C   C2005     1.0  0.69220  0.29721  0.97049  1.0000
  S   S284      1.0  0.54393  0.26052  0.89145  1.0000
  C   C2006     1.0  0.66148  0.28614  0.77926  1.0000
  H   H1614     1.0  0.52079  0.20037  0.96719  1.0000
  Fe  Fe145     1.0  0.52779  0.19419  0.65842  1.0000
  S   S285      1.0  0.50944  0.22628  0.66140  1.0000
  S   S286      1.0  0.51495  0.16188  0.66359  1.0000
  Fe  Fe146     1.0  0.57003  0.21292  0.64295  1.0000
  S   S287      1.0  0.55487  0.24638  0.64489  1.0000
  S   S288      1.0  0.60420  0.20115  0.63123  1.0000
  Fe  Fe147     1.0  0.53872  0.23609  0.68301  1.0000
  S   S289      1.0  0.53745  0.25982  0.71783  1.0000
  Fe  Fe148     1.0  0.52686  0.23380  0.62307  1.0000
  C   C2007     1.0  0.49490  0.03956  0.49377  1.0000
  S   S290      1.0  0.55607  0.20337  0.68300  1.0000
  S   S291      1.0  0.54303  0.20090  0.61815  1.0000
  C   C2008     1.0  0.62951  0.21152  0.62729  1.0000
  C   C2009     1.0  0.70280  0.22065  0.68906  1.0000
  C   C2010     1.0  0.69337  0.24154  0.69065  1.0000
  S   S292      1.0  0.68710  0.29224  0.60492  1.0000
  C   C2011     1.0  0.67137  0.22483  0.62130  1.0000
  C   C2012     1.0  0.52747  0.25438  0.75034  1.0000
  C   C2013     1.0  0.51628  0.23652  0.75519  1.0000
  H   H1615     1.0  0.54237  0.27959  0.58128  1.0000
  C   C2014     1.0  0.61872  0.29580  0.54574  1.0000
  H   H1616     1.0  0.56781  0.28575  0.69455  1.0000
  C   C2015     1.0  0.51287  0.24578  0.55613  1.0000
  C   C2016     1.0  0.52037  0.22488  0.54934  1.0000
  C   C2017     1.0  0.52170  0.21845  0.52175  1.0000
  H   H1617     1.0  0.52471  0.21353  0.56532  1.0000
  H   H1618     1.0  0.64509  0.17977  0.62493  1.0000
  C   C2018     1.0  0.55488  0.30707  0.52107  1.0000
  H   H1619     1.0  0.61083  0.24655  0.84396  1.0000
  H   H1620     1.0  0.52716  0.20216  0.51662  1.0000
  C   C2019     1.0  0.64343  0.31860  0.64709  1.0000
  C   C2020     1.0  0.63599  0.29003  0.86289  1.0000
  C   C2021     1.0  0.61803  0.30308  0.87199  1.0000
  C   C2022     1.0  0.63785  0.24003  0.51715  1.0000
  C   C2023     1.0  0.57689  0.26768  0.54420  1.0000
  C   C2024     1.0  0.59507  0.27536  0.86060  1.0000
  C   C2025     1.0  0.59917  0.30767  0.54061  1.0000
  H   H1621     1.0  0.58165  0.26422  0.73509  1.0000
  Fe  Fe149     1.0  0.49719  0.30374  0.90317  1.0000
  H   H1622     1.0  0.56470  0.22654  0.50280  1.0000
  C   C2026     1.0  0.62313  0.24652  0.69394  1.0000
  H   H1623     1.0  0.62315  0.23313  0.51192  1.0000
  H   H1624     1.0  0.62001  0.31889  0.87987  1.0000
  H   H1625     1.0  0.52646  0.27570  0.81472  1.0000
  C   C2027     1.0  0.58585  0.25571  0.56628  1.0000
  C   C2028     1.0  0.63753  0.31169  0.67291  1.0000
  H   H1626     1.0  0.65932  0.27890  0.71028  1.0000
  Fe  Fe150     1.0  0.51285  0.26532  0.86870  1.0000
  C   C2029     1.0  0.57992  0.22293  0.54232  1.0000
  H   H1627     1.0  0.52931  0.28890  0.62767  1.0000
  H   H1628     1.0  0.57966  0.25802  0.95457  1.0000
  C   C2030     1.0  0.67572  0.25773  0.53196  1.0000
  H   H1629     1.0  0.68478  0.27501  0.74922  1.0000
  C   C2031     1.0  0.65365  0.24004  0.62397  1.0000
  H   H1630     1.0  0.64539  0.23861  0.90086  1.0000
  C   C2032     1.0  0.50121  0.06013  0.49879  1.0000
  C   C2033     1.0  0.56919  0.30059  0.70552  1.0000
  S   S293      1.0  0.50931  0.25385  0.59050  1.0000
  H   H1631     1.0  0.53184  0.01576  0.51640  1.0000
  H   H1632     1.0  0.63631  0.23120  0.55979  1.0000
  C   C2034     1.0  0.65386  0.28322  0.73070  1.0000
  C   C2035     1.0  0.50465  0.16414  0.57062  1.0000
  C   C2036     1.0  0.50226  0.14223  0.56791  1.0000
  H   H1633     1.0  0.57869  0.08187  0.51755  1.0000
  P   P68       1.0  0.52427  0.12246  0.57414  1.0000
  C   C2037     1.0  0.53579  0.11305  0.54198  1.0000
  C   C2038     1.0  0.54514  0.13369  0.59386  1.0000
  C   C2039     1.0  0.55946  0.14623  0.58076  1.0000
  C   C2040     1.0  0.57563  0.15510  0.59579  1.0000
  C   C2041     1.0  0.57761  0.15153  0.62394  1.0000
  C   C2042     1.0  0.56347  0.13910  0.63709  1.0000
  C   C2043     1.0  0.54734  0.13014  0.62215  1.0000
  C   C2044     1.0  0.52600  0.11891  0.51683  1.0000
  C   C2045     1.0  0.70680  0.30147  0.49904  1.0000
  S   S294      1.0  0.57524  0.31199  0.88330  1.0000
  H   H1634     1.0  0.52779  0.31047  0.54861  1.0000
  C   C2046     1.0  0.55498  0.09985  0.54202  1.0000
  C   C2047     1.0  0.51348  0.10109  0.59271  1.0000
  H   H1635     1.0  0.57055  0.01364  0.52643  1.0000
  P   P69       1.0  0.61303  0.28902  0.70805  1.0000
  C   C2048     1.0  0.64018  0.29336  0.78396  1.0000
  C   C2049     1.0  0.50850  0.06351  0.59878  1.0000
  C   C2050     1.0  0.51771  0.07966  0.58467  1.0000
  S   S295      1.0  0.73243  0.27911  0.63844  1.0000
  C   C2051     1.0  0.49980  0.10603  0.61490  1.0000
  H   H1636     1.0  0.58244  0.30889  0.95980  1.0000
  H   H1637     1.0  0.51945  0.16977  0.57801  1.0000
  C   C2052     1.0  0.62933  0.30966  0.94759  1.0000
  H   H1638     1.0  0.55791  0.14946  0.55904  1.0000
  H   H1639     1.0  0.58639  0.16517  0.58588  1.0000
  H   H1640     1.0  0.58985  0.15876  0.63569  1.0000
  H   H1641     1.0  0.56455  0.13691  0.65907  1.0000
  H   H1642     1.0  0.53641  0.12097  0.63307  1.0000
  C   C2053     1.0  0.63446  0.31043  0.62338  1.0000
  C   C2054     1.0  0.56141  0.30979  0.49392  1.0000
  H   H1643     1.0  0.56297  0.09549  0.56120  1.0000
  H   H1644     1.0  0.49730  0.99066  0.60819  1.0000
  C   C2055     1.0  0.72804  0.29272  0.49965  1.0000
  C   C2056     1.0  0.56485  0.01667  0.50568  1.0000
  C   C2057     1.0  0.72788  0.25411  0.70136  1.0000
  H   H1645     1.0  0.52776  0.07529  0.56734  1.0000
  H   H1646     1.0  0.50160  0.27661  0.54037  1.0000
  H   H1647     1.0  0.68129  0.19131  0.61978  1.0000
  C   C2058     1.0  0.63271  0.23336  0.62684  1.0000
  H   H1648     1.0  0.51152  0.04703  0.59235  1.0000
  C   C2059     1.0  0.56962  0.25697  0.52104  1.0000
  C   C2060     1.0  0.58737  0.23345  0.56529  1.0000
  S   S296      1.0  0.49342  0.26861  0.90704  1.0000
  C   C2061     1.0  0.61935  0.29550  0.62544  1.0000
  C   C2062     1.0  0.49511  0.06859  0.62101  1.0000
  H   H1649     1.0  0.61238  0.28923  0.60710  1.0000
  H   H1650     1.0  0.63621  0.25200  0.68237  1.0000
  H   H1651     1.0  0.66991  0.24704  0.57253  1.0000
  H   H1652     1.0  0.69598  0.29077  0.92711  1.0000
  C   C2063     1.0  0.59348  0.24008  0.92078  1.0000
  Fe  Fe151     1.0  0.70797  0.30121  0.57029  1.0000
  C   C2064     1.0  0.50855  0.23289  0.78160  1.0000
  Fe  Fe152     1.0  0.72584  0.28119  0.81688  1.0000
  Fe  Fe153     1.0  0.73349  0.23533  0.83698  1.0000
  C   C2065     1.0  0.52340  0.26483  0.79823  1.0000
  H   H1653     1.0  0.62338  0.30090  0.93040  1.0000
  C   C2066     1.0  0.58998  0.23159  0.72416  1.0000
  H   H1654     1.0  0.53943  0.28246  0.76816  1.0000
  C   C2067     1.0  0.56483  0.30368  0.58042  1.0000
  C   C2068     1.0  0.63195  0.25651  0.93535  1.0000
  H   H1655     1.0  0.57854  0.23388  0.91517  1.0000
  H   H1656     1.0  0.51146  0.12944  0.51601  1.0000
  C   C2069     1.0  0.59241  0.25343  0.72330  1.0000
  H   H1657     1.0  0.57696  0.22594  0.73568  1.0000
  C   C2070     1.0  0.64518  0.23896  0.54433  1.0000
  C   C2071     1.0  0.62559  0.29514  0.76217  1.0000
  C   C2072     1.0  0.72994  0.31165  0.70392  1.0000
  C   C2073     1.0  0.50696  0.18109  0.93611  1.0000
  C   C2074     1.0  0.51608  0.23305  0.50079  1.0000
  H   H1658     1.0  0.69034  0.26468  0.53769  1.0000
  C   C2075     1.0  0.70817  0.31829  0.70230  1.0000
  Fe  Fe154     1.0  0.68963  0.25997  0.84295  1.0000
  Fe  Fe155     1.0  0.72661  0.27195  0.87857  1.0000
  S   S297      1.0  0.51504  0.30045  0.86344  1.0000
  H   H1659     1.0  0.49613  0.12246  0.62131  1.0000
  S   S298      1.0  0.69363  0.31111  0.52913  1.0000
  C   C2076     1.0  0.60427  0.21718  0.71026  1.0000
  H   H1660     1.0  0.49538  0.17724  0.81408  1.0000
  C   C2077     1.0  0.62255  0.29649  0.67509  1.0000
  C   C2078     1.0  0.58921  0.30642  0.71424  1.0000
  C   C2079     1.0  0.60311  0.12472  0.82955  1.0000
  C   C2080     1.0  0.61554  0.12018  0.80626  1.0000
  C   C2081     1.0  0.61456  0.13453  0.78449  1.0000
  C   C2082     1.0  0.60135  0.15354  0.78613  1.0000
  C   C2083     1.0  0.58943  0.15860  0.80988  1.0000
  C   C2084     1.0  0.58991  0.14374  0.83125  1.0000
  P   P70       1.0  0.57140  0.18254  0.81070  1.0000
  C   C2085     1.0  0.56198  0.18896  0.84485  1.0000
  C   C2086     1.0  0.58442  0.20574  0.80060  1.0000
  C   C2087     1.0  0.60681  0.20500  0.79847  1.0000
  C   C2088     1.0  0.61673  0.22345  0.79244  1.0000
  C   C2089     1.0  0.60449  0.24284  0.78916  1.0000
  C   C2090     1.0  0.58232  0.24388  0.79219  1.0000
  C   C2091     1.0  0.57230  0.22541  0.79785  1.0000
  C   C2092     1.0  0.54066  0.19682  0.84927  1.0000
  C   C2093     1.0  0.53393  0.20328  0.87554  1.0000
  C   C2094     1.0  0.54837  0.20196  0.89750  1.0000
  C   C2095     1.0  0.56960  0.19417  0.89324  1.0000
  C   C2096     1.0  0.57650  0.18810  0.86693  1.0000
  C   C2097     1.0  0.54957  0.17642  0.78852  1.0000
  C   C2098     1.0  0.54543  0.18710  0.76363  1.0000
  C   C2099     1.0  0.52983  0.18045  0.74556  1.0000
  H   H1661     1.0  0.49984  0.21911  0.78530  1.0000
  C   C2100     1.0  0.52261  0.15228  0.77668  1.0000
  C   C2101     1.0  0.53800  0.15900  0.79493  1.0000
  H   H1662     1.0  0.60355  0.11337  0.84618  1.0000
  H   H1663     1.0  0.62572  0.10541  0.80493  1.0000
  H   H1664     1.0  0.62389  0.13085  0.76622  1.0000
  H   H1665     1.0  0.60036  0.16428  0.76881  1.0000
  H   H1666     1.0  0.57991  0.14656  0.84908  1.0000
  H   H1667     1.0  0.61681  0.19048  0.80225  1.0000
  H   H1668     1.0  0.63402  0.22299  0.79135  1.0000
  H   H1669     1.0  0.61233  0.25717  0.78538  1.0000
  H   H1670     1.0  0.57297  0.25909  0.79061  1.0000
  H   H1671     1.0  0.55515  0.22657  0.80064  1.0000
  H   H1672     1.0  0.52941  0.19877  0.83235  1.0000
  C   C2102     1.0  0.72481  0.21649  0.69340  1.0000
  H   H1673     1.0  0.54327  0.20762  0.91765  1.0000
  H   H1674     1.0  0.58086  0.19346  0.91022  1.0000
  H   H1675     1.0  0.59324  0.18304  0.86374  1.0000
  H   H1676     1.0  0.55437  0.20027  0.75781  1.0000
  C   C2103     1.0  0.73620  0.28695  0.97436  1.0000
  H   H1677     1.0  0.63209  0.21344  0.68470  1.0000
  H   H1678     1.0  0.67261  0.28430  0.79633  1.0000
  H   H1679     1.0  0.54126  0.15025  0.81375  1.0000
  C   C2104     1.0  0.70590  0.25825  0.69689  1.0000
  H   H1680     1.0  0.51767  0.21006  0.87873  1.0000
  C   C2105     1.0  0.64958  0.24993  0.49721  1.0000
  C   C2106     1.0  0.59415  0.25403  0.94307  1.0000
  H   H1681     1.0  0.73202  0.20035  0.69091  1.0000
  C   C2107     1.0  0.57657  0.30266  0.97871  1.0000
  H   H1682     1.0  0.60098  0.27763  0.65251  1.0000
  H   H1683     1.0  0.51333  0.22575  0.73851  1.0000
  H   H1684     1.0  0.64704  0.26259  0.94099  1.0000
  C   C2108     1.0  0.55065  0.31369  0.71143  1.0000
  H   H1685     1.0  0.59393  0.22434  0.58259  1.0000
  C   C2109     1.0  0.54293  0.01788  0.49992  1.0000
  H   H1686     1.0  0.67520  0.30123  0.96883  1.0000
  C   C2110     1.0  0.56390  0.09210  0.51735  1.0000
  S   S299      1.0  0.53584  0.24400  0.96347  1.0000
  H   H1687     1.0  0.73956  0.31095  0.68561  1.0000
  C   C2111     1.0  0.50903  0.25409  0.50757  1.0000
  C   C2112     1.0  0.72608  0.28632  0.94864  1.0000
  C   C2113     1.0  0.63239  0.29036  0.73529  1.0000
  C   C2114     1.0  0.70396  0.29120  0.94681  1.0000
  C   C2115     1.0  0.54906  0.29240  0.59243  1.0000
  H   H1688     1.0  0.73744  0.26728  0.70519  1.0000
  C   C2116     1.0  0.50753  0.19902  0.95308  1.0000
  H   H1689     1.0  0.61912  0.24499  0.62878  1.0000
  H   H1690     1.0  0.59123  0.26352  0.58457  1.0000
  Fe  Fe156     1.0  0.71032  0.26371  0.60930  1.0000
  S   S300      1.0  0.65500  0.25261  0.83996  1.0000
  H   H1691     1.0  0.52673  0.18852  0.72621  1.0000
  P   P71       1.0  0.61532  0.27799  0.98125  1.0000
  H   H1692     1.0  0.60235  0.20026  0.71083  1.0000
  C   C2117     1.0  0.53083  0.26859  0.77185  1.0000
  H   H1693     1.0  0.49167  0.22933  0.96482  1.0000
  H   H1694     1.0  0.49908  0.12191  0.67298  1.0000
  S   S301      1.0  0.52700  0.30236  0.92932  1.0000
  C   C2118     1.0  0.51847  0.16306  0.75205  1.0000
  H   H1695     1.0  0.64465  0.31830  0.69103  1.0000
  C   C2119     1.0  0.66788  0.20320  0.62181  1.0000
  C   C2120     1.0  0.66411  0.24781  0.55165  1.0000
  C   C2121     1.0  0.61291  0.26244  0.85139  1.0000
  S   S302      1.0  0.71134  0.24133  0.87262  1.0000
  Fe  Fe157     1.0  0.70973  0.30816  0.63282  1.0000
  Fe  Fe158     1.0  0.54467  0.29597  0.88973  1.0000
  C   C2122     1.0  0.66842  0.25893  0.50492  1.0000
  C   C2123     1.0  0.63340  0.26963  0.85246  1.0000
  H   H1696     1.0  0.65609  0.25685  0.62375  1.0000
  C   C2124     1.0  0.53347  0.31278  0.52810  1.0000
  C   C2125     1.0  0.61339  0.26242  0.95042  1.0000
  C   C2126     1.0  0.64726  0.19664  0.62464  1.0000
  C   C2127     1.0  0.50730  0.26039  0.53519  1.0000
  C   C2128     1.0  0.51212  0.24707  0.80317  1.0000
  C   C2129     1.0  0.59753  0.29567  0.87117  1.0000
  C   C2130     1.0  0.63116  0.24266  0.91293  1.0000
  C   C2131     1.0  0.54169  0.29765  0.61876  1.0000
  H   H1697     1.0  0.50577  0.27626  0.98791  1.0000
  S   S303      1.0  0.69823  0.23123  0.61664  1.0000
  C   C2132     1.0  0.62096  0.22464  0.69538  1.0000
  H   H1698     1.0  0.67650  0.24480  0.68620  1.0000
  H   H1699     1.0  0.57941  0.26958  0.85933  1.0000
  S   S304      1.0  0.70332  0.29141  0.85128  1.0000
  P   P72       1.0  0.57408  0.29646  0.54637  1.0000
  C   C2133     1.0  0.60867  0.26110  0.70762  1.0000
  H   H1700     1.0  0.58059  0.20568  0.54190  1.0000
  C   C2134     1.0  0.66828  0.28091  0.75269  1.0000
  H   H1701     1.0  0.65305  0.29618  0.54698  1.0000
  H   H1702     1.0  0.50671  0.15772  0.73775  1.0000
  C   C2135     1.0  0.72726  0.30707  0.75338  1.0000
  C   C2136     1.0  0.69604  0.31972  0.72640  1.0000
  H   H1703     1.0  0.60892  0.29948  0.76661  1.0000
  C   C2137     1.0  0.55034  0.31396  0.63355  1.0000
  C   C2138     1.0  0.49172  0.15538  0.68080  1.0000
  H   H1704     1.0  0.53517  0.30849  0.70579  1.0000
  S   S305      1.0  0.50245  0.24245  0.83615  1.0000
  C   C2139     1.0  0.62782  0.30219  0.97451  1.0000
  H   H1705     1.0  0.73695  0.29222  0.51871  1.0000
  H   H1706     1.0  0.50211  0.09845  0.98952  1.0000
  C   C2140     1.0  0.49265  0.07224  0.52084  1.0000
  S   S306      1.0  0.72770  0.32097  0.59758  1.0000
  C   C2141     1.0  0.57344  0.32013  0.59539  1.0000
  H   H1707     1.0  0.56221  0.26562  0.50390  1.0000
  C   C2142     1.0  0.70552  0.31394  0.75185  1.0000
  H   H1708     1.0  0.49693  0.08833  0.52419  1.0000
  H   H1709     1.0  0.54464  0.31795  0.65396  1.0000
  C   C2143     1.0  0.55642  0.31044  0.98819  1.0000
  C   C2144     1.0  0.73944  0.30642  0.72942  1.0000
  H   H1710     1.0  0.69614  0.31530  0.77036  1.0000
  H   H1711     1.0  0.63933  0.31567  0.60345  1.0000
  S   S307      1.0  0.74029  0.30154  0.78508  1.0000
  C   C2145     1.0  0.51902  0.32158  0.50845  1.0000
  H   H1712     1.0  0.58333  0.34553  0.29482  1.0000
  C   C2146     1.0  0.61987  0.34838  0.23766  1.0000
  H   H1713     1.0  0.57580  0.64274  0.19607  1.0000
  H   H1714     1.0  0.51233  0.49305  0.14256  1.0000
  H   H1715     1.0  0.50051  0.47311  0.28983  1.0000
  H   H1716     1.0  0.55229  0.34233  0.32487  1.0000
  H   H1717     1.0  0.56414  0.34295  0.20463  1.0000
  C   C2147     1.0  0.56947  0.35507  0.03629  1.0000
  C   C2148     1.0  0.58023  0.33000  0.30252  1.0000
  H   H1718     1.0  0.50122  0.48981  0.09386  1.0000
  H   H1719     1.0  0.53796  0.63590  0.19684  1.0000
  H   H1720     1.0  0.54431  0.37175  0.05971  1.0000
  H   H1721     1.0  0.50402  0.63525  0.22141  1.0000
  H   H1722     1.0  0.56725  0.36555  0.01878  1.0000
  C   C2149     1.0  0.52581  0.32477  0.48171  1.0000
  C   C2150     1.0  0.65811  0.32567  0.28221  1.0000
  C   C2151     1.0  0.59227  0.36024  0.20483  1.0000
  C   C2152     1.0  0.56264  0.32829  0.31949  1.0000
  C   C2153     1.0  0.61229  0.36226  0.21682  1.0000
  H   H1723     1.0  0.64543  0.33401  0.17941  1.0000
  C   C2154     1.0  0.57972  0.34442  0.21379  1.0000
  H   H1724     1.0  0.59892  0.34976  0.11636  1.0000
  C   C2155     1.0  0.63217  0.32968  0.16679  1.0000
  H   H1725     1.0  0.63536  0.35039  0.24655  1.0000
  C   C2156     1.0  0.62262  0.34420  0.14792  1.0000
  H   H1726     1.0  0.69081  0.33262  0.28858  1.0000
  C   C2157     1.0  0.49602  0.62952  0.17889  1.0000
  H   H1727     1.0  0.49875  0.59881  0.23635  1.0000
  C   C2158     1.0  0.58721  0.33057  0.23467  1.0000
  C   C2159     1.0  0.55931  0.34487  0.08181  1.0000
  H   H1728     1.0  0.54926  0.34794  0.09957  1.0000
  H   H1729     1.0  0.51721  0.64519  0.11459  1.0000
  C   C2160     1.0  0.60741  0.33235  0.24673  1.0000
  C   C2161     1.0  0.50129  0.65293  0.11153  1.0000
  H   H1730     1.0  0.59531  0.33544  0.01792  1.0000
  C   C2162     1.0  0.55654  0.35851  0.05932  1.0000
  H   H1731     1.0  0.68574  0.34207  0.33758  1.0000
  H   H1732     1.0  0.62008  0.32854  0.33201  1.0000
  C   C2163     1.0  0.60587  0.33842  0.13114  1.0000
  H   H1733     1.0  0.70765  0.64157  0.29515  1.0000
  C   C2164     1.0  0.65236  0.33628  0.33751  1.0000
  C   C2165     1.0  0.49568  0.49624  0.13676  1.0000
  H   H1734     1.0  0.51456  0.33154  0.46649  1.0000
  H   H1735     1.0  0.62855  0.35976  0.14595  1.0000
  C   C2166     1.0  0.58805  0.32434  0.05818  1.0000
  C   C2167     1.0  0.49657  0.60298  0.21492  1.0000
  H   H1736     1.0  0.62206  0.37449  0.20982  1.0000
  H   H1737     1.0  0.66980  0.65082  0.28169  1.0000
  C   C2168     1.0  0.57487  0.32745  0.08125  1.0000
  H   H1738     1.0  0.64473  0.33682  0.42801  1.0000
  H   H1739     1.0  0.68781  0.63964  0.19222  1.0000
  C   C2169     1.0  0.63521  0.32982  0.32196  1.0000
  H   H1740     1.0  0.50199  0.64760  0.06787  1.0000
  H   H1741     1.0  0.51358  0.50691  0.27357  1.0000
  H   H1742     1.0  0.65023  0.34006  0.35906  1.0000
  H   H1743     1.0  0.73602  0.64679  0.25627  1.0000
  H   H1744     1.0  0.58651  0.37090  0.18856  1.0000
  C   C2170     1.0  0.49943  0.62369  0.20639  1.0000
  C   C2171     1.0  0.58531  0.33809  0.03581  1.0000
  C   C2172     1.0  0.67519  0.33213  0.29781  1.0000
  H   H1745     1.0  0.64982  0.34268  0.00826  1.0000
  C   C2173     1.0  0.67234  0.33743  0.32545  1.0000
  H   H1746     1.0  0.72559  0.64760  0.19587  1.0000
  C   C2174     1.0  0.69195  0.65370  0.20334  1.0000
  C   C2175     1.0  0.49274  0.65425  0.08499  1.0000
  C   C2176     1.0  0.54276  0.64845  0.18391  1.0000
  H   H1747     1.0  0.62631  0.32863  0.47092  1.0000
  C   C2177     1.0  0.63795  0.32451  0.29410  1.0000
  C   C2178     1.0  0.56436  0.65225  0.18351  1.0000
  C   C2179     1.0  0.49786  0.50693  0.28255  1.0000
  H   H1748     1.0  0.63982  0.33425  0.92176  1.0000
  C   C2180     1.0  0.56628  0.32513  0.62194  1.0000
  C   C2181     1.0  0.53219  0.38982  0.87747  1.0000
  H   H1749     1.0  0.65511  0.33024  0.64544  1.0000
  C   C2182     1.0  0.64369  0.33371  0.99132  1.0000
  H   H1750     1.0  0.50151  0.49814  0.81536  1.0000
  C   C2183     1.0  0.73501  0.36140  0.77599  1.0000
  C   C2184     1.0  0.51064  0.65179  0.89184  1.0000
  H   H1751     1.0  0.49249  0.34711  0.94241  1.0000
  C   C2185     1.0  0.57210  0.33966  0.73226  1.0000
  H   H1752     1.0  0.73661  0.62846  0.72359  1.0000
  C   C2186     1.0  0.69099  0.63706  0.74396  1.0000
  H   H1753     1.0  0.72938  0.35855  0.73256  1.0000
  C   C2187     1.0  0.68769  0.62595  0.76807  1.0000
  C   C2188     1.0  0.64575  0.34071  0.96445  1.0000
  C   C2189     1.0  0.59064  0.32639  0.72680  1.0000
  C   C2190     1.0  0.49637  0.41828  0.86581  1.0000
  H   H1754     1.0  0.71965  0.65177  0.81136  1.0000
  C   C2191     1.0  0.74123  0.35740  0.74891  1.0000
  H   H1755     1.0  0.50250  0.32588  0.51390  1.0000
  H   H1756     1.0  0.68312  0.63250  0.72525  1.0000
  H   H1757     1.0  0.54703  0.32268  0.97683  1.0000
  H   H1758     1.0  0.67714  0.61319  0.76791  1.0000
  C   C2192     1.0  0.53430  0.40760  0.86101  1.0000
  H   H1759     1.0  0.54976  0.41025  0.85259  1.0000
  H   H1760     1.0  0.57326  0.35487  0.74245  1.0000
  C   C2193     1.0  0.70436  0.65384  0.74412  1.0000
  S   S308      1.0  0.49938  0.64163  0.78783  1.0000
  H   H1761     1.0  0.53763  0.65457  0.69638  1.0000
  H   H1762     1.0  0.61835  0.35489  0.52337  1.0000
  C   C2194     1.0  0.71172  0.64760  0.79252  1.0000
  H   H1763     1.0  0.71836  0.36579  0.78058  1.0000
  H   H1764     1.0  0.60605  0.33163  0.73261  1.0000
  H   H1765     1.0  0.69529  0.62276  0.81107  1.0000
  C   C2195     1.0  0.63840  0.32878  0.94261  1.0000
  H   H1766     1.0  0.54594  0.37868  0.88176  1.0000
  H   H1767     1.0  0.58425  0.33867  0.52896  1.0000
  C   C2196     1.0  0.61841  0.33837  0.52949  1.0000
  H   H1768     1.0  0.51845  0.43522  0.84201  1.0000
  C   C2197     1.0  0.51227  0.38630  0.88827  1.0000
  C   C2198     1.0  0.51647  0.42179  0.85514  1.0000
  C   C2199     1.0  0.69798  0.63127  0.79236  1.0000
  H   H1769     1.0  0.65321  0.35527  0.96055  1.0000
  C   C2200     1.0  0.49198  0.48478  0.81201  1.0000
  C   C2201     1.0  0.49445  0.40047  0.88256  1.0000
  H   H1770     1.0  0.53392  0.64586  0.56369  1.0000
  H   H1771     1.0  0.67924  0.32518  0.72538  1.0000
  H   H1772     1.0  0.52102  0.64196  0.90537  1.0000
  H   H1773     1.0  0.51057  0.37247  0.90094  1.0000
  H   H1774     1.0  0.53769  0.34325  0.72955  1.0000
  H   H1775     1.0  0.49615  0.62489  0.87426  1.0000
  S   S309      1.0  0.69602  0.32543  0.67055  1.0000
  H   H1776     1.0  0.57310  0.33768  0.63353  1.0000
  H   H1777     1.0  0.65273  0.33373  0.53243  1.0000
  C   C2202     1.0  0.55208  0.33318  0.72488  1.0000
  C   C2203     1.0  0.59916  0.32905  0.53250  1.0000
  H   H1778     1.0  0.54126  0.65151  0.80304  1.0000
  H   H1779     1.0  0.58576  0.32904  0.58688  1.0000
  H   H1780     1.0  0.49742  0.47245  0.85259  1.0000
  C   C2204     1.0  0.49663  0.64206  0.87429  1.0000
  C   C2205     1.0  0.63779  0.32646  0.53463  1.0000
  Fe  Fe159     1.0  0.62764  0.76555  0.07446  1.0000
  S   S310      1.0  0.66120  0.77617  0.07693  1.0000
  Fe  Fe160     1.0  0.58207  0.78744  0.06938  1.0000
  S   S311      1.0  0.56774  0.75621  0.07105  1.0000
  S   S312      1.0  0.56342  0.81970  0.06403  1.0000
  C   C2206     1.0  0.51961  0.74569  0.19530  1.0000
  C   C2207     1.0  0.63760  0.77634  0.47223  1.0000
  S   S313      1.0  0.60402  0.77989  0.10515  1.0000
  S   S314      1.0  0.60679  0.77618  0.03857  1.0000
  S   S315      1.0  0.70911  0.77891  0.40852  1.0000
  S   S316      1.0  0.62278  0.78677  0.33773  1.0000
  H   H1781     1.0  0.62533  0.68731  0.20018  1.0000
  H   H1782     1.0  0.70512  0.78438  0.08149  1.0000
  C   C2208     1.0  0.50109  0.74162  0.13918  1.0000
  H   H1783     1.0  0.72384  0.75343  0.36087  1.0000
  C   C2209     1.0  0.63474  0.79731  0.46230  1.0000
  C   C2210     1.0  0.70508  0.75765  0.28520  1.0000
  H   H1784     1.0  0.55784  0.78055  0.40490  1.0000
  C   C2211     1.0  0.51815  0.78062  0.15468  1.0000
  Fe  Fe161     1.0  0.59358  0.74435  0.04171  1.0000
  C   C2212     1.0  0.50944  0.97940  0.47597  1.0000
  H   H1785     1.0  0.57732  0.68899  0.41625  1.0000
  C   C2213     1.0  0.68589  0.78091  0.38728  1.0000
  C   C2214     1.0  0.67023  0.76663  0.39142  1.0000
  C   C2215     1.0  0.65122  0.76792  0.37581  1.0000
  C   C2216     1.0  0.64728  0.78401  0.35638  1.0000
  C   C2217     1.0  0.66273  0.79862  0.35251  1.0000
  C   C2218     1.0  0.68200  0.79702  0.36778  1.0000
  H   H1786     1.0  0.67274  0.75452  0.40694  1.0000
  H   H1787     1.0  0.63939  0.75673  0.37939  1.0000
  H   H1788     1.0  0.65979  0.81125  0.33771  1.0000
  H   H1789     1.0  0.69362  0.80852  0.36491  1.0000
  C   C2219     1.0  0.53576  0.82042  0.05649  1.0000
  C   C2220     1.0  0.52520  0.80176  0.05584  1.0000
  C   C2221     1.0  0.49683  0.71609  0.09225  1.0000
  C   C2222     1.0  0.61093  0.83783  0.01231  1.0000
  C   C2223     1.0  0.50939  0.94670  0.33700  1.0000
  C   C2224     1.0  0.52398  0.84006  0.05171  1.0000
  H   H1790     1.0  0.53394  0.78660  0.05969  1.0000
  C   C2225     1.0  0.51804  0.72739  0.44301  1.0000
  C   C2226     1.0  0.57607  0.70148  0.45759  1.0000
  H   H1791     1.0  0.53200  0.85460  0.05221  1.0000
  H   H1792     1.0  0.60924  0.69985  0.15598  1.0000
  C   C2227     1.0  0.68117  0.68532  0.22991  1.0000
  C   C2228     1.0  0.72062  0.73489  0.10598  1.0000
  C   C2229     1.0  0.70101  0.72591  0.10322  1.0000
  C   C2230     1.0  0.68269  0.73818  0.09363  1.0000
  C   C2231     1.0  0.68399  0.75947  0.08649  1.0000
  C   C2232     1.0  0.70390  0.76805  0.08762  1.0000
  C   C2233     1.0  0.72216  0.75578  0.09723  1.0000
  Fe  Fe162     1.0  0.59158  0.74765  0.10454  1.0000
  H   H1793     1.0  0.66754  0.73129  0.09209  1.0000
  C   C2234     1.0  0.70613  0.73790  0.29833  1.0000
  C   C2235     1.0  0.67592  0.77642  0.46733  1.0000
  C   C2236     1.0  0.49746  0.68905  0.20795  1.0000
  H   H1794     1.0  0.58121  0.75627  0.19585  1.0000
  H   H1795     1.0  0.52838  0.74916  0.26434  1.0000
  C   C2237     1.0  0.60014  0.73426  0.22172  1.0000
  H   H1796     1.0  0.67150  0.71199  0.32042  1.0000
  H   H1797     1.0  0.52349  0.68753  0.13997  1.0000
  Fe  Fe163     1.0  0.56610  0.73116  0.32455  1.0000
  C   C2238     1.0  0.67622  0.70679  0.41060  1.0000
  H   H1798     1.0  0.65930  0.66372  0.21403  1.0000
  C   C2239     1.0  0.54173  0.81003  0.33754  1.0000
  C   C2240     1.0  0.56330  0.80567  0.34447  1.0000
  C   C2241     1.0  0.56896  0.79544  0.36906  1.0000
  C   C2242     1.0  0.71980  0.78941  0.15647  1.0000
  S   S317      1.0  0.52972  0.73251  0.32074  1.0000
  S   S318      1.0  0.58619  0.74851  0.29550  1.0000
  P   P73       1.0  0.71455  0.71057  0.34301  1.0000
  S   S319      1.0  0.57825  0.73494  0.14351  1.0000
  S   S320      1.0  0.61859  0.69706  0.39538  1.0000
  C   C2243     1.0  0.60708  0.70973  0.17411  1.0000
  H   H1799     1.0  0.54738  0.69413  0.29265  1.0000
  H   H1800     1.0  0.53734  0.81775  0.31830  1.0000
  H   H1801     1.0  0.57571  0.80991  0.33070  1.0000
  H   H1802     1.0  0.58570  0.79190  0.37433  1.0000
  H   H1803     1.0  0.53736  0.72294  0.16877  1.0000
  C   C2244     1.0  0.60662  0.71951  0.47265  1.0000
  C   C2245     1.0  0.53041  0.69321  0.29487  1.0000
  H   H1804     1.0  0.53196  0.69692  0.42842  1.0000
  H   H1805     1.0  0.71006  0.79098  0.28918  1.0000
  C   C2246     1.0  0.54489  0.72622  0.23745  1.0000
  C   C2247     1.0  0.68371  0.70578  0.38367  1.0000
  C   C2248     1.0  0.51797  0.70980  0.30771  1.0000
  C   C2249     1.0  0.55315  0.78910  0.38642  1.0000
  H   H1806     1.0  0.66353  0.80416  0.03119  1.0000
  H   H1807     1.0  0.66862  0.69565  0.23950  1.0000
  C   C2250     1.0  0.64902  0.81366  0.02551  1.0000
  H   H1808     1.0  0.70009  0.75892  0.26395  1.0000
  H   H1809     1.0  0.54831  0.77084  0.17473  1.0000
  C   C2251     1.0  0.67954  0.69668  0.31491  1.0000
  H   H1810     1.0  0.62404  0.82818  0.36348  1.0000
  H   H1811     1.0  0.59727  0.74379  0.23994  1.0000
  Fe  Fe164     1.0  0.60696  0.71774  0.29442  1.0000
  C   C2252     1.0  0.65811  0.76597  0.47470  1.0000
  C   C2253     1.0  0.53145  0.79331  0.37963  1.0000
  H   H1812     1.0  0.54315  0.71111  0.38400  1.0000
  H   H1813     1.0  0.69906  0.79268  0.99397  1.0000
  C   C2254     1.0  0.71333  0.65830  0.20537  1.0000
  H   H1814     1.0  0.63199  0.80991  0.40710  1.0000
  S   S321      1.0  0.58004  0.72865  0.00399  1.0000
  C   C2255     1.0  0.59440  0.72906  0.17271  1.0000
  C   C2256     1.0  0.61606  0.70257  0.19923  1.0000
  C   C2257     1.0  0.49579  0.70837  0.30993  1.0000
  Fe  Fe165     1.0  0.60461  0.71288  0.35727  1.0000
  S   S322      1.0  0.62782  0.72677  0.32940  1.0000
  C   C2258     1.0  0.69399  0.74309  0.01855  1.0000
  H   H1815     1.0  0.49459  0.75435  0.36200  1.0000
  H   H1816     1.0  0.68237  0.71618  0.45222  1.0000
  C   C2259     1.0  0.61272  0.83029  0.38012  1.0000
  C   C2260     1.0  0.52231  0.82684  0.46328  1.0000
  C   C2261     1.0  0.71875  0.67661  0.21950  1.0000
  H   H1817     1.0  0.56181  0.69357  0.13883  1.0000
  C   C2262     1.0  0.60275  0.82292  0.42681  1.0000
  H   H1818     1.0  0.65110  0.82423  0.44868  1.0000
  S   S323      1.0  0.62147  0.70369  0.25499  1.0000
  C   C2263     1.0  0.53478  0.67736  0.15191  1.0000
  H   H1819     1.0  0.49617  0.71246  0.24044  1.0000
  C   C2264     1.0  0.52493  0.81338  0.44042  1.0000
  C   C2265     1.0  0.67588  0.66722  0.21556  1.0000
  C   C2266     1.0  0.59129  0.74149  0.19653  1.0000
  H   H1820     1.0  0.66089  0.70104  0.41528  1.0000
  C   C2267     1.0  0.49896  0.98638  0.11023  1.0000
  C   C2268     1.0  0.58659  0.71233  0.47809  1.0000
  H   H1821     1.0  0.63184  0.72062  0.44296  1.0000
  C   C2269     1.0  0.52582  0.80397  0.35509  1.0000
  Fe  Fe166     1.0  0.60592  0.75645  0.33242  1.0000
  C   C2270     1.0  0.71771  0.77393  0.32648  1.0000
  H   H1822     1.0  0.57225  0.74633  0.44048  1.0000
  C   C2271     1.0  0.57210  0.76073  0.45284  1.0000
  H   H1823     1.0  0.61184  0.85767  0.45598  1.0000
  C   C2272     1.0  0.51337  0.74898  0.43687  1.0000
  H   H1824     1.0  0.57173  0.83726  0.43912  1.0000
  C   C2273     1.0  0.60834  0.83245  0.48529  1.0000
  H   H1825     1.0  0.67381  0.69908  0.36825  1.0000
  H   H1826     1.0  0.69992  0.70950  0.10896  1.0000
  H   H1827     1.0  0.53506  0.74901  0.37317  1.0000
  C   C2274     1.0  0.59342  0.84269  0.37627  1.0000
  C   C2275     1.0  0.52386  0.97946  0.32337  1.0000
  H   H1828     1.0  0.59592  0.84682  0.00736  1.0000
  S   S324      1.0  0.58334  0.74295  0.36186  1.0000
  C   C2276     1.0  0.58753  0.77510  0.44872  1.0000
  H   H1829     1.0  0.62416  0.76789  0.47837  1.0000
  C   C2277     1.0  0.71081  0.77568  0.29929  1.0000
  H   H1830     1.0  0.55479  0.71884  0.25366  1.0000
  C   C2278     1.0  0.58787  0.79342  0.46526  1.0000
  H   H1831     1.0  0.53499  0.83646  0.46968  1.0000
  S   S325      1.0  0.61636  0.73246  0.07557  1.0000
  H   H1832     1.0  0.50697  0.93491  0.28080  1.0000
  C   C2279     1.0  0.71934  0.80296  0.20291  1.0000
  C   C2280     1.0  0.70009  0.79394  0.20754  1.0000
  C   C2281     1.0  0.69053  0.78249  0.18659  1.0000
  C   C2282     1.0  0.70063  0.78027  0.16103  1.0000
  P   P74       1.0  0.66502  0.77163  0.19135  1.0000
  C   C2283     1.0  0.66605  0.74627  0.17379  1.0000
  C   C2284     1.0  0.65986  0.76774  0.22731  1.0000
  C   C2285     1.0  0.65915  0.74716  0.23805  1.0000
  C   C2286     1.0  0.65578  0.74440  0.26600  1.0000
  C   C2287     1.0  0.65285  0.76208  0.28337  1.0000
  C   C2288     1.0  0.65260  0.78261  0.27275  1.0000
  C   C2289     1.0  0.65589  0.78547  0.24477  1.0000
  C   C2290     1.0  0.64913  0.74097  0.15682  1.0000
  C   C2291     1.0  0.64991  0.72095  0.14411  1.0000
  C   C2292     1.0  0.66730  0.70600  0.14865  1.0000
  C   C2293     1.0  0.68429  0.71127  0.16531  1.0000
  C   C2294     1.0  0.68377  0.73139  0.17768  1.0000
  C   C2295     1.0  0.64397  0.78971  0.17713  1.0000
  C   C2296     1.0  0.64735  0.80106  0.15311  1.0000
  C   C2297     1.0  0.63113  0.81534  0.14248  1.0000
  C   C2298     1.0  0.61138  0.81825  0.15559  1.0000
  C   C2299     1.0  0.60773  0.80665  0.17915  1.0000
  C   C2300     1.0  0.62385  0.79222  0.18970  1.0000
  H   H1833     1.0  0.49295  0.85610  0.04194  1.0000
  C   C2301     1.0  0.53031  0.74321  0.39280  1.0000
  H   H1834     1.0  0.59949  0.77163  0.43303  1.0000
  H   H1835     1.0  0.69299  0.79592  0.22751  1.0000
  H   H1836     1.0  0.69361  0.77155  0.14451  1.0000
  H   H1837     1.0  0.66079  0.73319  0.22504  1.0000
  H   H1838     1.0  0.65523  0.72854  0.27421  1.0000
  H   H1839     1.0  0.65071  0.75988  0.30509  1.0000
  H   H1840     1.0  0.64971  0.79624  0.28633  1.0000
  H   H1841     1.0  0.65538  0.80151  0.23676  1.0000
  H   H1842     1.0  0.63530  0.75214  0.15332  1.0000
  H   H1843     1.0  0.63698  0.71710  0.13064  1.0000
  H   H1844     1.0  0.66785  0.69055  0.13866  1.0000
  H   H1845     1.0  0.69803  0.69992  0.16819  1.0000
  H   H1846     1.0  0.69709  0.73531  0.19042  1.0000
  H   H1847     1.0  0.66229  0.79872  0.14217  1.0000
  H   H1848     1.0  0.63375  0.82374  0.12366  1.0000
  C   C2302     1.0  0.71575  0.72149  0.39853  1.0000
  H   H1849     1.0  0.55526  0.98424  0.33912  1.0000
  H   H1850     1.0  0.62046  0.78295  0.20752  1.0000
  C   C2303     1.0  0.49144  0.82220  0.04527  1.0000
  S   S326      1.0  0.58617  0.69991  0.32205  1.0000
  C   C2304     1.0  0.54726  0.71884  0.21051  1.0000
  C   C2305     1.0  0.53476  0.72858  0.18949  1.0000
  C   C2306     1.0  0.50330  0.82795  0.47801  1.0000
  H   H1851     1.0  0.50644  0.76675  0.22746  1.0000
  C   C2307     1.0  0.54082  0.81180  0.12995  1.0000
  H   H1852     1.0  0.68716  0.80544  0.45226  1.0000
  H   H1853     1.0  0.72744  0.78768  0.13668  1.0000
  C   C2308     1.0  0.69173  0.77805  0.99783  1.0000
  C   C2309     1.0  0.72923  0.80061  0.17744  1.0000
  H   H1854     1.0  0.71949  0.76389  0.01927  1.0000
  C   C2310     1.0  0.55114  0.79747  0.14842  1.0000
  C   C2311     1.0  0.53984  0.78207  0.16100  1.0000
  C   C2312     1.0  0.49790  0.74387  0.99679  1.0000
  H   H1855     1.0  0.65178  0.68591  0.29464  1.0000
  C   C2313     1.0  0.53484  0.72165  0.39886  1.0000
  C   C2314     1.0  0.71102  0.67164  0.31552  1.0000
  C   C2315     1.0  0.69988  0.65702  0.30057  1.0000
  C   C2316     1.0  0.57183  0.79772  0.48493  1.0000
  C   C2317     1.0  0.67303  0.74056  0.01011  1.0000
  C   C2318     1.0  0.61727  0.82008  0.40510  1.0000
  C   C2319     1.0  0.51937  0.75703  0.41159  1.0000
  H   H1856     1.0  0.66018  0.74983  0.48246  1.0000
  C   C2320     1.0  0.50315  0.80267  0.05049  1.0000
  H   H1857     1.0  0.55920  0.70589  0.20584  1.0000
  H   H1858     1.0  0.72221  0.78786  0.33746  1.0000
  P   P75       1.0  0.60843  0.81132  0.46004  1.0000
  C   C2321     1.0  0.70251  0.69000  0.23198  1.0000
  H   H1859     1.0  0.51151  0.82104  0.10836  1.0000
  H   H1860     1.0  0.50923  0.80727  0.34915  1.0000
  H   H1861     1.0  0.56807  0.79785  0.15236  1.0000
  H   H1862     1.0  0.54221  0.69636  0.01318  1.0000
  H   H1863     1.0  0.70619  0.70411  0.24321  1.0000
  H   H1864     1.0  0.73735  0.76259  0.09813  1.0000
  H   H1865     1.0  0.70284  0.73079  0.03048  1.0000
  C   C2322     1.0  0.61205  0.71446  0.22331  1.0000
  C   C2323     1.0  0.58325  0.83520  0.42270  1.0000
  C   C2324     1.0  0.58538  0.69782  0.43172  1.0000
  H   H1866     1.0  0.58985  0.85014  0.35664  1.0000
  C   C2325     1.0  0.68836  0.71523  0.43144  1.0000
  C   C2326     1.0  0.51844  0.73704  0.12141  1.0000
  C   C2327     1.0  0.57859  0.84500  0.39750  1.0000
  C   C2328     1.0  0.53005  0.74340  0.24340  1.0000
  H   H1867     1.0  0.49521  0.78809  0.05006  1.0000
  H   H1868     1.0  0.72678  0.81160  0.21918  1.0000
  C   C2329     1.0  0.70811  0.72261  0.42538  1.0000
  C   C2330     1.0  0.57122  0.66834  0.16708  1.0000
  C   C2331     1.0  0.51757  0.75322  0.22243  1.0000
  C   C2332     1.0  0.50718  0.96594  0.32239  1.0000
  C   C2333     1.0  0.70335  0.76179  0.01232  1.0000
  H   H1869     1.0  0.71746  0.72939  0.44144  1.0000
  C   C2334     1.0  0.54445  0.95462  0.35306  1.0000
  C   C2335     1.0  0.52794  0.94110  0.35227  1.0000
  H   H1870     1.0  0.54965  0.82363  0.12006  1.0000
  C   C2336     1.0  0.50187  0.84097  0.04600  1.0000
  C   C2337     1.0  0.49888  0.67365  0.28723  1.0000
  C   C2338     1.0  0.71849  0.75430  0.33980  1.0000
  H   H1871     1.0  0.59233  0.80860  0.18912  1.0000
  H   H1872     1.0  0.70210  0.72414  0.28671  1.0000
  H   H1873     1.0  0.58797  0.67116  0.16678  1.0000
  C   C2339     1.0  0.63711  0.82463  0.04606  1.0000
  H   H1874     1.0  0.54093  0.77329  0.99968  1.0000
  C   C2340     1.0  0.71252  0.73612  0.32596  1.0000
  C   C2341     1.0  0.55697  0.76451  0.47349  1.0000
  C   C2342     1.0  0.51931  0.81034  0.12336  1.0000
  H   H1875     1.0  0.69179  0.76826  0.46875  1.0000
  C   C2343     1.0  0.61793  0.83648  0.03953  1.0000
  H   H1876     1.0  0.52990  0.72090  0.08471  1.0000
  C   C2344     1.0  0.55645  0.68090  0.15129  1.0000
  H   H1877     1.0  0.55887  0.95023  0.36479  1.0000
  H   H1878     1.0  0.52948  0.92625  0.36350  1.0000
  C   C2345     1.0  0.52853  0.71369  0.42386  1.0000
  H   H1879     1.0  0.60826  0.84428  0.05560  1.0000
  H   H1880     1.0  0.59875  0.82909  0.14703  1.0000
  C   C2346     1.0  0.70363  0.71312  0.37732  1.0000
  C   C2347     1.0  0.67328  0.79741  0.45801  1.0000
  C   C2348     1.0  0.52092  0.67532  0.28466  1.0000
  H   H1881     1.0  0.53978  0.81290  0.42938  1.0000
  C   C2349     1.0  0.60555  0.70459  0.42633  1.0000
  H   H1882     1.0  0.53363  0.74352  0.12535  1.0000
  H   H1883     1.0  0.64247  0.82326  0.06718  1.0000
  C   C2350     1.0  0.64170  0.81426  0.99828  1.0000
  C   C2351     1.0  0.61616  0.71548  0.44687  1.0000
  H   H1884     1.0  0.53079  0.66259  0.27483  1.0000
  C   C2352     1.0  0.52779  0.66089  0.16795  1.0000
  C   C2353     1.0  0.65281  0.80791  0.45576  1.0000
  H   H1885     1.0  0.56345  0.85430  0.39437  1.0000
  C   C2354     1.0  0.66840  0.68200  0.30019  1.0000
  H   H1886     1.0  0.56081  0.69559  0.46196  1.0000
  P   P76       1.0  0.50407  0.75924  0.16823  1.0000
  C   C2355     1.0  0.51635  0.72424  0.09820  1.0000
  H   H1887     1.0  0.51015  0.94592  0.48566  1.0000
  C   C2356     1.0  0.50848  0.80086  0.43218  1.0000
  H   H1888     1.0  0.54584  0.75274  0.47768  1.0000
  C   C2357     1.0  0.70084  0.69156  0.32296  1.0000
  H   H1889     1.0  0.53132  0.73659  0.00696  1.0000
  H   H1890     1.0  0.51374  0.67361  0.02723  1.0000
  H   H1891     1.0  0.51353  0.72120  0.46257  1.0000
  C   C2358     1.0  0.55662  0.78316  0.48921  1.0000
  P   P77       1.0  0.51123  0.78417  0.40183  1.0000
  C   C2359     1.0  0.50815  0.79447  0.13512  1.0000
  H   H1892     1.0  0.49597  0.90313  0.25648  1.0000
  H   H1893     1.0  0.61104  0.88626  0.49073  1.0000
  C   C2360     1.0  0.53279  0.68871  0.99785  1.0000
  C   C2361     1.0  0.51906  0.74876  0.00057  1.0000
  H   H1894     1.0  0.51424  0.69041  0.20451  1.0000
  C   C2362     1.0  0.50284  0.98696  0.08210  1.0000
  H   H1895     1.0  0.72789  0.79464  0.48282  1.0000
  C   C2363     1.0  0.66139  0.75673  0.99547  1.0000
  C   C2364     1.0  0.61014  0.85364  0.47732  1.0000
  C   C2365     1.0  0.54241  0.97379  0.33862  1.0000
  H   H1896     1.0  0.62541  0.71852  0.99240  1.0000
  C   C2366     1.0  0.52456  0.76948  0.99628  1.0000
  H   H1897     1.0  0.49663  0.93612  0.33683  1.0000
  H   H1898     1.0  0.50508  0.75924  0.45184  1.0000
  H   H1899     1.0  0.73544  0.75997  0.45975  1.0000
  H   H1900     1.0  0.73624  0.67744  0.37701  1.0000
  C   C2367     1.0  0.51682  0.67592  0.00570  1.0000
  H   H1901     1.0  0.73120  0.72714  0.39446  1.0000
  H   H1902     1.0  0.61487  0.72786  0.48840  1.0000
  H   H1903     1.0  0.49465  0.97487  0.04230  1.0000
  H   H1904     1.0  0.49395  0.72770  0.00023  1.0000
  H   H1905     1.0  0.66561  0.72626  0.01547  1.0000
  C   C2368     1.0  0.67855  0.66218  0.29300  1.0000
  H   H1906     1.0  0.72744  0.66726  0.32130  1.0000
  C   C2369     1.0  0.50079  0.95967  0.47732  1.0000
  C   C2370     1.0  0.73921  0.76156  0.48135  1.0000
  H   H1907     1.0  0.73491  0.68321  0.16329  1.0000
  H   H1908     1.0  0.49869  0.88129  0.08411  1.0000
  H   H1909     1.0  0.52567  0.98052  0.48300  1.0000
  H   H1910     1.0  0.49515  0.70628  0.07416  1.0000
  C   C2371     1.0  0.49174  0.97441  0.06414  1.0000
  P   P78       1.0  0.49971  0.65644  0.16836  1.0000
  H   H1911     1.0  0.49181  0.79287  0.12868  1.0000
  Fe  Fe167     1.0  0.62774  0.75546  0.56749  1.0000
  S   S327      1.0  0.66231  0.76223  0.56244  1.0000
  Fe  Fe168     1.0  0.58407  0.78097  0.56742  1.0000
  S   S328      1.0  0.56693  0.75173  0.57337  1.0000
  S   S329      1.0  0.56860  0.81471  0.56333  1.0000
  C   C2372     1.0  0.49315  0.74542  0.60614  1.0000
  Fe  Fe169     1.0  0.58944  0.73638  0.54215  1.0000
  S   S330      1.0  0.60824  0.77254  0.60066  1.0000
  S   S331      1.0  0.60481  0.76644  0.53383  1.0000
  S   S332      1.0  0.71773  0.82013  0.85242  1.0000
  S   S333      1.0  0.62227  0.79520  0.83261  1.0000
  H   H1912     1.0  0.50920  0.66282  0.59803  1.0000
  H   H1913     1.0  0.70704  0.76561  0.57026  1.0000
  C   C2373     1.0  0.54406  0.70134  0.59377  1.0000
  C   C2374     1.0  0.51147  0.67403  0.89164  1.0000
  C   C2375     1.0  0.72258  0.80377  0.59186  1.0000
  Fe  Fe170     1.0  0.61156  0.76194  0.82692  1.0000
  H   H1914     1.0  0.67062  0.77204  0.77419  1.0000
  C   C2376     1.0  0.60988  0.86994  0.49700  1.0000
  C   C2377     1.0  0.68177  0.73907  0.91115  1.0000
  C   C2378     1.0  0.70388  0.72704  0.87236  1.0000
  C   C2379     1.0  0.58338  0.72544  0.94811  1.0000
  C   C2380     1.0  0.69152  0.81171  0.84864  1.0000
  C   C2381     1.0  0.67607  0.82620  0.83672  1.0000
  C   C2382     1.0  0.65514  0.82076  0.83223  1.0000
  C   C2383     1.0  0.64926  0.80052  0.83889  1.0000
  C   C2384     1.0  0.66464  0.78578  0.85089  1.0000
  C   C2385     1.0  0.68570  0.79147  0.85613  1.0000
  H   H1915     1.0  0.68026  0.84189  0.83109  1.0000
  H   H1916     1.0  0.64340  0.83237  0.82340  1.0000
  H   H1917     1.0  0.66025  0.77019  0.85641  1.0000
  H   H1918     1.0  0.69742  0.78015  0.86552  1.0000
  C   C2386     1.0  0.54067  0.81896  0.55821  1.0000
  C   C2387     1.0  0.52799  0.80187  0.55539  1.0000
  C   C2388     1.0  0.50592  0.80567  0.55049  1.0000
  C   C2389     1.0  0.72576  0.80068  0.62000  1.0000
  C   C2390     1.0  0.50884  0.84370  0.55193  1.0000
  C   C2391     1.0  0.53102  0.83989  0.55647  1.0000
  H   H1919     1.0  0.53519  0.78572  0.55685  1.0000
  H   H1920     1.0  0.67863  0.69262  0.87019  1.0000
  H   H1921     1.0  0.72564  0.67143  0.76910  1.0000
  H   H1922     1.0  0.54072  0.85320  0.55871  1.0000
  H   H1923     1.0  0.61274  0.78417  0.98388  1.0000
  H   H1924     1.0  0.62685  0.72769  0.65279  1.0000
  C   C2392     1.0  0.71599  0.71600  0.59709  1.0000
  C   C2393     1.0  0.69525  0.70948  0.59432  1.0000
  C   C2394     1.0  0.67854  0.72353  0.58389  1.0000
  C   C2395     1.0  0.68267  0.74396  0.57548  1.0000
  C   C2396     1.0  0.70358  0.75010  0.57725  1.0000
  C   C2397     1.0  0.72013  0.73626  0.58817  1.0000
  H   H1925     1.0  0.69202  0.69374  0.60090  1.0000
  H   H1926     1.0  0.66253  0.71854  0.58231  1.0000
  H   H1927     1.0  0.60506  0.84038  0.55429  1.0000
  C   C2398     1.0  0.66683  0.68160  0.79366  1.0000
  H   H1928     1.0  0.66255  0.67298  0.72269  1.0000
  C   C2399     1.0  0.73757  0.68580  0.84828  1.0000
  P   P79       1.0  0.65511  0.79736  0.97246  1.0000
  C   C2400     1.0  0.53608  0.74533  0.88122  1.0000
  C   C2401     1.0  0.51013  0.66655  0.79279  1.0000
  C   C2402     1.0  0.70922  0.81957  0.53044  1.0000
  C   C2403     1.0  0.52605  0.69137  0.60212  1.0000
  C   C2404     1.0  0.52525  0.68153  0.94977  1.0000
  C   C2405     1.0  0.50031  0.71430  0.52069  1.0000
  C   C2406     1.0  0.49883  0.68620  0.87263  1.0000
  H   H1929     1.0  0.54749  0.71660  0.60217  1.0000
  C   C2407     1.0  0.63811  0.78392  0.92249  1.0000
  C   C2408     1.0  0.70394  0.84117  0.52443  1.0000
  C   C2409     1.0  0.68591  0.66795  0.69022  1.0000
  C   C2410     1.0  0.66679  0.83441  0.51820  1.0000
  C   C2411     1.0  0.67188  0.81292  0.52419  1.0000
  C   C2412     1.0  0.69302  0.80547  0.53000  1.0000
  H   H1930     1.0  0.57190  0.67708  0.94310  1.0000
  H   H1931     1.0  0.65290  0.78732  0.91289  1.0000
  H   H1932     1.0  0.51270  0.79402  0.61350  1.0000
  C   C2413     1.0  0.50789  0.73321  0.62270  1.0000
  H   H1933     1.0  0.69882  0.79715  0.77948  1.0000
  P   P80       1.0  0.53026  0.68622  0.91380  1.0000
  C   C2414     1.0  0.51122  0.77713  0.61627  1.0000
  H   H1934     1.0  0.53887  0.77256  0.64277  1.0000
  C   C2415     1.0  0.52290  0.68340  0.71440  1.0000
  H   H1935     1.0  0.72134  0.75334  0.74561  1.0000
  H   H1936     1.0  0.50108  0.83874  0.49532  1.0000
  H   H1937     1.0  0.70670  0.80291  0.58344  1.0000
  H   H1938     1.0  0.65548  0.84311  0.96004  1.0000
  C   C2416     1.0  0.51637  0.72856  0.92633  1.0000
  C   C2417     1.0  0.73139  0.70312  0.83121  1.0000
  C   C2418     1.0  0.62284  0.82691  0.99170  1.0000
  H   H1939     1.0  0.50007  0.70314  0.87076  1.0000
  H   H1940     1.0  0.65954  0.80184  0.52399  1.0000
  H   H1941     1.0  0.69663  0.78866  0.53409  1.0000
  P   P81       1.0  0.50701  0.70466  0.62558  1.0000
  C   C2419     1.0  0.59458  0.72475  0.97316  1.0000
  C   C2420     1.0  0.72035  0.75668  0.81952  1.0000
  H   H1942     1.0  0.70875  0.84350  0.90557  1.0000
  C   C2421     1.0  0.73640  0.72223  0.73603  1.0000
  H   H1943     1.0  0.60737  0.87781  0.54002  1.0000
  H   H1944     1.0  0.70411  0.66386  0.65253  1.0000
  H   H1945     1.0  0.72145  0.88143  0.74683  1.0000
  C   C2422     1.0  0.73667  0.83745  0.78452  1.0000
  H   H1946     1.0  0.71718  0.85422  0.66319  1.0000
  C   C2423     1.0  0.68654  0.74820  0.80008  1.0000
  H   H1947     1.0  0.64503  0.75462  0.98973  1.0000
  C   C2424     1.0  0.53679  0.69170  0.97008  1.0000
  C   C2425     1.0  0.49476  0.76733  0.60312  1.0000
  H   H1948     1.0  0.67385  0.73785  0.79756  1.0000
  H   H1949     1.0  0.57176  0.69948  0.56781  1.0000
  H   H1950     1.0  0.50153  0.85986  0.55057  1.0000
  S   S334      1.0  0.62914  0.70536  0.89298  1.0000
  H   H1951     1.0  0.66343  0.67838  0.77234  1.0000
  C   C2426     1.0  0.50728  0.70537  0.79505  1.0000
  H   H1952     1.0  0.50714  0.71361  0.72655  1.0000
  C   C2427     1.0  0.53668  0.66140  0.57201  1.0000
  C   C2428     1.0  0.60796  0.86519  0.52475  1.0000
  C   C2429     1.0  0.51197  0.70328  0.70943  1.0000
  H   H1953     1.0  0.49859  0.72513  0.67909  1.0000
  H   H1954     1.0  0.54887  0.70210  0.96455  1.0000
  C   C2430     1.0  0.71886  0.73717  0.73939  1.0000
  H   H1955     1.0  0.73508  0.68174  0.66810  1.0000
  H   H1956     1.0  0.51545  0.76476  0.51875  1.0000
  C   C2431     1.0  0.53801  0.72332  0.88560  1.0000
  C   C2432     1.0  0.55659  0.67546  0.90314  1.0000
  C   C2433     1.0  0.69822  0.73125  0.73447  1.0000
  H   H1957     1.0  0.73027  0.73252  0.67242  1.0000
  C   C2434     1.0  0.55800  0.69159  0.57436  1.0000
  C   C2435     1.0  0.64884  0.80801  0.60643  1.0000
  C   C2436     1.0  0.63024  0.82078  0.61287  1.0000
  C   C2437     1.0  0.62522  0.82541  0.64020  1.0000
  C   C2438     1.0  0.63874  0.81719  0.66118  1.0000
  C   C2439     1.0  0.65720  0.80388  0.65492  1.0000
  C   C2440     1.0  0.66225  0.79947  0.62734  1.0000
  P   P82       1.0  0.67471  0.79319  0.68196  1.0000
  C   C2441     1.0  0.68485  0.76645  0.67204  1.0000
  C   C2442     1.0  0.69610  0.81014  0.68818  1.0000
  C   C2443     1.0  0.71050  0.80572  0.71000  1.0000
  H   H1958     1.0  0.73888  0.81449  0.73076  1.0000
  H   H1959     1.0  0.54484  0.78620  0.50511  1.0000
  C   C2444     1.0  0.71531  0.84067  0.67627  1.0000
  C   C2445     1.0  0.69844  0.82793  0.67160  1.0000
  C   C2446     1.0  0.67090  0.75258  0.66025  1.0000
  C   C2447     1.0  0.67806  0.73146  0.65431  1.0000
  C   C2448     1.0  0.69929  0.72415  0.65938  1.0000
  C   C2449     1.0  0.71363  0.73811  0.66941  1.0000
  C   C2450     1.0  0.70650  0.75919  0.67576  1.0000
  C   C2451     1.0  0.65891  0.79208  0.71273  1.0000
  C   C2452     1.0  0.64520  0.77582  0.71613  1.0000
  C   C2453     1.0  0.63160  0.77598  0.73863  1.0000
  C   C2454     1.0  0.63142  0.79244  0.75793  1.0000
  C   C2455     1.0  0.64509  0.80864  0.75497  1.0000
  C   C2456     1.0  0.65873  0.80855  0.73241  1.0000
  H   H1960     1.0  0.65252  0.80412  0.58522  1.0000
  H   H1961     1.0  0.61940  0.82659  0.59672  1.0000
  H   H1962     1.0  0.61061  0.83507  0.64513  1.0000
  H   H1963     1.0  0.63446  0.82094  0.68221  1.0000
  H   H1964     1.0  0.67618  0.78900  0.62185  1.0000
  H   H1965     1.0  0.70883  0.79223  0.72326  1.0000
  C   C2457     1.0  0.53171  0.66654  0.80067  1.0000
  C   C2458     1.0  0.60236  0.77248  0.91773  1.0000
  H   H1966     1.0  0.65050  0.84007  0.51325  1.0000
  H   H1967     1.0  0.68746  0.83188  0.65483  1.0000
  H   H1968     1.0  0.65439  0.75797  0.65575  1.0000
  H   H1969     1.0  0.66719  0.72076  0.64548  1.0000
  C   C2459     1.0  0.66512  0.67100  0.70089  1.0000
  C   C2460     1.0  0.51371  0.69645  0.66030  1.0000
  H   H1970     1.0  0.71808  0.76947  0.68350  1.0000
  H   H1971     1.0  0.64445  0.76318  0.70127  1.0000
  H   H1972     1.0  0.62101  0.76339  0.74094  1.0000
  H   H1973     1.0  0.62066  0.79260  0.77519  1.0000
  H   H1974     1.0  0.64492  0.82129  0.77018  1.0000
  H   H1975     1.0  0.66868  0.82161  0.73013  1.0000
  C   C2461     1.0  0.64730  0.67219  0.68343  1.0000
  H   H1976     1.0  0.58967  0.76706  0.90514  1.0000
  H   H1977     1.0  0.59144  0.71731  0.74179  1.0000
  H   H1978     1.0  0.73406  0.75287  0.83271  1.0000
  C   C2462     1.0  0.52469  0.67648  0.66548  1.0000
  C   C2463     1.0  0.68214  0.69562  0.80064  1.0000
  C   C2464     1.0  0.57382  0.67303  0.92173  1.0000
  C   C2465     1.0  0.70429  0.74258  0.81696  1.0000
  C   C2466     1.0  0.59771  0.66108  0.88495  1.0000
  H   H1979     1.0  0.69070  0.70284  0.78448  1.0000
  H   H1980     1.0  0.72753  0.68198  0.86521  1.0000
  C   C2467     1.0  0.72220  0.72840  0.88878  1.0000
  C   C2468     1.0  0.65996  0.67619  0.84160  1.0000
  C   C2469     1.0  0.56018  0.67013  0.87543  1.0000
  H   H1981     1.0  0.63135  0.67499  0.69184  1.0000
  C   C2470     1.0  0.65551  0.67213  0.81409  1.0000
  H   H1982     1.0  0.49943  0.76020  0.84248  1.0000
  C   C2471     1.0  0.67541  0.69002  0.84868  1.0000
  C   C2472     1.0  0.50892  0.78535  0.98813  1.0000
  H   H1983     1.0  0.68448  0.74275  0.73681  1.0000
  H   H1984     1.0  0.67901  0.70631  0.72289  1.0000
  Fe  Fe171     1.0  0.61917  0.72274  0.79067  1.0000
  C   C2473     1.0  0.68919  0.80146  0.93729  1.0000
  S   S335      1.0  0.61397  0.72391  0.57326  1.0000
  S   S336      1.0  0.59984  0.70235  0.81705  1.0000
  H   H1985     1.0  0.58506  0.72027  0.90441  1.0000
  C   C2474     1.0  0.63494  0.78694  0.95076  1.0000
  C   C2475     1.0  0.68471  0.76770  0.78643  1.0000
  H   H1986     1.0  0.70476  0.70778  0.65476  1.0000
  H   H1987     1.0  0.53574  0.73423  0.64899  1.0000
  C   C2476     1.0  0.73192  0.86932  0.75700  1.0000
  C   C2477     1.0  0.52410  0.74331  0.63624  1.0000
  C   C2478     1.0  0.68175  0.84571  0.93284  1.0000
  C   C2479     1.0  0.61666  0.71930  0.97320  1.0000
  H   H1988     1.0  0.54692  0.71313  0.87098  1.0000
  C   C2480     1.0  0.68845  0.66608  0.66167  1.0000
  H   H1989     1.0  0.62432  0.77416  0.88434  1.0000
  C   C2481     1.0  0.63145  0.72207  0.69627  1.0000
  C   C2482     1.0  0.61916  0.72557  0.67220  1.0000
  H   H1990     1.0  0.63617  0.67193  0.64161  1.0000
  C   C2483     1.0  0.59923  0.77520  0.94579  1.0000
  H   H1991     1.0  0.67878  0.86282  0.93081  1.0000
  H   H1992     1.0  0.67885  0.86516  0.51342  1.0000
  C   C2484     1.0  0.52923  0.67001  0.69244  1.0000
  Fe  Fe172     1.0  0.59275  0.74189  0.60404  1.0000
  C   C2485     1.0  0.58063  0.66300  0.86640  1.0000
  C   C2486     1.0  0.59689  0.72574  0.67323  1.0000
  H   H1993     1.0  0.52885  0.72851  0.53356  1.0000
  C   C2487     1.0  0.59927  0.71968  0.72252  1.0000
  C   C2488     1.0  0.71275  0.69536  0.72256  1.0000
  C   C2489     1.0  0.52458  0.75897  0.89948  1.0000
  C   C2490     1.0  0.62154  0.71919  0.72149  1.0000
  S   S337      1.0  0.63719  0.71468  0.75140  1.0000
  H   H1994     1.0  0.54343  0.75181  0.86346  1.0000
  C   C2491     1.0  0.59401  0.72026  0.92341  1.0000
  C   C2492     1.0  0.70239  0.81276  0.92097  1.0000
  C   C2493     1.0  0.69516  0.71043  0.72624  1.0000
  C   C2494     1.0  0.70006  0.73988  0.92751  1.0000
  S   S338      1.0  0.63683  0.73511  0.82673  1.0000
  P   P83       1.0  0.70618  0.71841  0.83695  1.0000
  H   H1995     1.0  0.70605  0.85198  0.77145  1.0000
  P   P84       1.0  0.70885  0.66816  0.71304  1.0000
  C   C2495     1.0  0.67224  0.81222  0.95175  1.0000
  H   H1996     1.0  0.56505  0.66438  0.54809  1.0000
  C   C2496     1.0  0.71856  0.77610  0.80561  1.0000
  C   C2497     1.0  0.58702  0.72270  0.69843  1.0000
  H   H1997     1.0  0.69214  0.78432  0.93840  1.0000
  H   H1998     1.0  0.71607  0.85236  0.52419  1.0000
  H   H1999     1.0  0.56640  0.73005  0.94772  1.0000
  C   C2498     1.0  0.60679  0.84410  0.53284  1.0000
  C   C2499     1.0  0.49797  0.68610  0.78966  1.0000
  H   H2000     1.0  0.56980  0.72267  0.69934  1.0000
  H   H2001     1.0  0.60655  0.81149  0.52003  1.0000
  C   C2500     1.0  0.62727  0.71381  0.94846  1.0000
  C   C2501     1.0  0.68280  0.84852  0.51828  1.0000
  C   C2502     1.0  0.68604  0.70055  0.82821  1.0000
  C   C2503     1.0  0.55424  0.67173  0.56330  1.0000
  C   C2504     1.0  0.61549  0.78222  0.96222  1.0000
  H   H2002     1.0  0.50574  0.76116  0.93605  1.0000
  H   H2003     1.0  0.66605  0.74295  0.91980  1.0000
  H   H2004     1.0  0.64423  0.70903  0.94870  1.0000
  H   H2005     1.0  0.49778  0.72041  0.79276  1.0000
  C   C2505     1.0  0.70065  0.78171  0.78924  1.0000
  H   H2006     1.0  0.73613  0.74120  0.58932  1.0000
  H   H2007     1.0  0.64866  0.72157  0.69538  1.0000
  C   C2506     1.0  0.72747  0.81836  0.71441  1.0000
  C   C2507     1.0  0.52268  0.67111  0.59144  1.0000
  C   C2508     1.0  0.54106  0.68574  0.80561  1.0000
  C   C2509     1.0  0.67056  0.66734  0.64427  1.0000
  C   C2510     1.0  0.62186  0.77656  0.90611  1.0000
  H   H2008     1.0  0.58427  0.77166  0.95491  1.0000
  C   C2511     1.0  0.52828  0.71474  0.90835  1.0000
  S   S339      1.0  0.53988  0.72965  0.81103  1.0000
  C   C2512     1.0  0.61595  0.71412  0.92348  1.0000
  C   C2513     1.0  0.60734  0.82775  0.51327  1.0000
  C   C2514     1.0  0.52886  0.70526  0.80316  1.0000
  C   C2515     1.0  0.50900  0.66892  0.95792  1.0000
  C   C2516     1.0  0.69866  0.83487  0.91867  1.0000
  H   H2009     1.0  0.71532  0.80432  0.90971  1.0000
  S   S340      1.0  0.57387  0.71681  0.50996  1.0000
  C   C2517     1.0  0.51299  0.73127  0.52448  1.0000
  C   C2518     1.0  0.72988  0.83582  0.69757  1.0000
  Fe  Fe173     1.0  0.57591  0.73114  0.81722  1.0000
  C   C2519     1.0  0.68369  0.73302  0.88360  1.0000
  H   H2010     1.0  0.49625  0.79240  0.54797  1.0000
  Fe  Fe174     1.0  0.61463  0.71848  0.85323  1.0000
  H   H2011     1.0  0.60767  0.66500  0.92682  1.0000
  C   C2520     1.0  0.73342  0.70142  0.72773  1.0000
  C   C2521     1.0  0.72322  0.85276  0.77082  1.0000
  S   S341      1.0  0.59475  0.75075  0.78927  1.0000
  H   H2012     1.0  0.72987  0.82501  0.79594  1.0000
  H   H2013     1.0  0.55764  0.68539  0.81169  1.0000
  C   C2522     1.0  0.52588  0.76511  0.63282  1.0000
  S   S342      1.0  0.58082  0.72877  0.64349  1.0000
  C   C2523     1.0  0.49626  0.82654  0.54879  1.0000
  H   H2014     1.0  0.66932  0.73256  0.87128  1.0000
  C   C2524     1.0  0.66856  0.83444  0.94937  1.0000
  S   S343      1.0  0.58970  0.74600  0.85486  1.0000
  C   C2525     1.0  0.51467  0.75058  0.92197  1.0000
  C   C2526     1.0  0.50728  0.70977  0.68252  1.0000
  H   H2015     1.0  0.50832  0.72242  0.94370  1.0000
  H   H2016     1.0  0.61692  0.82773  0.97079  1.0000
  H   H2017     1.0  0.71258  0.79698  0.63270  1.0000
  C   C2527     1.0  0.71497  0.65882  0.76850  1.0000
  C   C2528     1.0  0.50543  0.75172  0.51607  1.0000
  C   C2529     1.0  0.65002  0.67053  0.65512  1.0000
  H   H2018     1.0  0.52334  0.77603  0.89609  1.0000
  H   H2019     1.0  0.54728  0.67191  0.86055  1.0000
  H   H2020     1.0  0.69862  0.74455  0.94889  1.0000
  C   C2530     1.0  0.72026  0.73486  0.91623  1.0000
  H   H2021     1.0  0.73053  0.78726  0.80869  1.0000
  H   H2022     1.0  0.52640  0.67834  0.73529  1.0000
  H   H2023     1.0  0.64321  0.66178  0.80857  1.0000
  H   H2024     1.0  0.67264  0.66605  0.62228  1.0000
  H   H2025     1.0  0.73995  0.72062  0.79535  1.0000
  H   H2026     1.0  0.73801  0.72469  0.88044  1.0000
  H   H2027     1.0  0.65113  0.66900  0.85757  1.0000
  C   C2531     1.0  0.59427  0.66594  0.91260  1.0000
  H   H2028     1.0  0.52972  0.66583  0.64885  1.0000
  C   C2532     1.0  0.67071  0.77556  0.98901  1.0000
  C   C2533     1.0  0.73513  0.78127  0.49446  1.0000
  S   S344      1.0  0.73621  0.69906  0.61298  1.0000
  H   H2029     1.0  0.50643  0.69838  0.52676  1.0000
  H   H2030     1.0  0.57107  0.81201  0.49743  1.0000
  H   H2031     1.0  0.51315  0.80156  0.98555  1.0000
  P   P85       1.0  0.73648  0.80973  0.53823  1.0000
  H   H2032     1.0  0.73447  0.73610  0.92879  1.0000
  C   C2534     1.0  0.73993  0.80713  0.57491  1.0000
  C   C2535     1.0  0.50486  0.66612  0.98574  1.0000
  H   H2033     1.0  0.58329  0.65940  0.84489  1.0000
  H   H2034     1.0  0.49921  0.66143  0.94303  1.0000
  C   C2536     1.0  0.74095  0.78384  0.52207  1.0000
  C   C2537     1.0  0.73304  0.65620  0.69719  1.0000
  H   H2035     1.0  0.61371  0.65628  0.87785  1.0000
  H   H2036     1.0  0.49234  0.65630  0.99177  1.0000
  H   H2037     1.0  0.74410  0.22113  0.41653  1.0000
  H   H2038     1.0  0.80034  0.19927  0.37215  1.0000
  H   H2039     1.0  0.77624  0.16640  0.32050  1.0000
  S   S345      1.0  0.88922  0.14331  0.46656  1.0000
  Fe  Fe175     1.0  0.91252  0.14172  0.05955  1.0000
  S   S346      1.0  0.93865  0.11585  0.06688  1.0000
  S   S347      1.0  0.88917  0.15548  0.09123  1.0000
  Fe  Fe176     1.0  0.95701  0.13357  0.03628  1.0000
  P   P86       1.0  0.87348  0.30770  0.33366  1.0000
  Fe  Fe177     1.0  0.92549  0.09950  0.03003  1.0000
  S   S348      1.0  0.91544  0.06594  0.03419  1.0000
  S   S349      1.0  0.93182  0.16081  0.03179  1.0000
  S   S350      1.0  0.89793  0.12432  0.02507  1.0000
  C   C2538     1.0  0.80791  0.29382  0.99728  1.0000
  C   C2539     1.0  0.81240  0.14299  0.37797  1.0000
  C   C2540     1.0  0.95548  0.31118  0.19613  1.0000
  H   H2040     1.0  0.81294  0.16410  0.30137  1.0000
  S   S351      1.0  0.90323  0.00937  0.21582  1.0000
  Fe  Fe178     1.0  0.86070  0.16706  0.27950  1.0000
  S   S352      1.0  0.89527  0.17360  0.27934  1.0000
  S   S353      1.0  0.83821  0.19717  0.28006  1.0000
  Fe  Fe179     1.0  0.87169  0.11905  0.27951  1.0000
  S   S354      1.0  0.90704  0.12200  0.27953  1.0000
  S   S355      1.0  0.85752  0.08724  0.28292  1.0000
  Fe  Fe180     1.0  0.89996  0.14791  0.31077  1.0000
  S   S356      1.0  0.92254  0.15334  0.34602  1.0000
  Fe  Fe181     1.0  0.89941  0.14743  0.24807  1.0000
  S   S357      1.0  0.92293  0.15050  0.21381  1.0000
  S   S358      1.0  0.86504  0.14322  0.31340  1.0000
  S   S359      1.0  0.86435  0.14266  0.24546  1.0000
  H   H2041     1.0  0.79031  0.27832  0.43637  1.0000
  C   C2541     1.0  0.77204  0.20159  0.15709  1.0000
  C   C2542     1.0  0.85080  0.28154  0.48399  1.0000
  C   C2543     1.0  0.89067  0.03042  0.23560  1.0000
  C   C2544     1.0  0.89794  0.05082  0.23344  1.0000
  C   C2545     1.0  0.88799  0.06823  0.24800  1.0000
  C   C2546     1.0  0.87067  0.06539  0.26501  1.0000
  C   C2547     1.0  0.86353  0.04492  0.26750  1.0000
  C   C2548     1.0  0.87352  0.02746  0.25288  1.0000
  H   H2042     1.0  0.91116  0.05327  0.22014  1.0000
  H   H2043     1.0  0.89357  0.08389  0.24575  1.0000
  H   H2044     1.0  0.85012  0.04253  0.28052  1.0000
  H   H2045     1.0  0.86778  0.01181  0.25471  1.0000
  C   C2549     1.0  0.76189  0.19299  0.43268  1.0000
  H   H2046     1.0  0.80173  0.10196  0.32045  1.0000
  H   H2047     1.0  0.98179  0.14188  0.46364  1.0000
  C   C2550     1.0  0.93541  0.03937  0.99410  1.0000
  C   C2551     1.0  0.79989  0.19610  0.02663  1.0000
  C   C2552     1.0  0.85738  0.25193  0.29758  1.0000
  H   H2048     1.0  0.97279  0.17983  0.05685  1.0000
  C   C2553     1.0  0.91320  0.15222  0.17993  1.0000
  C   C2554     1.0  0.92780  0.15140  0.15828  1.0000
  C   C2555     1.0  0.92057  0.15210  0.13098  1.0000
  C   C2556     1.0  0.89864  0.15418  0.12524  1.0000
  C   C2557     1.0  0.88400  0.15550  0.14688  1.0000
  C   C2558     1.0  0.89126  0.15432  0.17419  1.0000
  H   H2049     1.0  0.94475  0.15005  0.16264  1.0000
  H   H2050     1.0  0.93197  0.15127  0.11442  1.0000
  H   H2051     1.0  0.86703  0.15715  0.14250  1.0000
  H   H2052     1.0  0.87991  0.15510  0.19076  1.0000
  C   C2559     1.0  0.89982  0.14362  0.43343  1.0000
  C   C2560     1.0  0.88721  0.13809  0.41112  1.0000
  C   C2561     1.0  0.89421  0.14066  0.38422  1.0000
  C   C2562     1.0  0.91386  0.14879  0.37951  1.0000
  C   C2563     1.0  0.92669  0.15386  0.40188  1.0000
  C   C2564     1.0  0.91979  0.15109  0.42883  1.0000
  H   H2053     1.0  0.87176  0.13233  0.41465  1.0000
  H   H2054     1.0  0.88417  0.13684  0.36718  1.0000
  H   H2055     1.0  0.94186  0.16024  0.39835  1.0000
  H   H2056     1.0  0.92957  0.15538  0.44600  1.0000
  C   C2565     1.0  0.97828  0.17397  0.21911  1.0000
  C   C2566     1.0  0.87866  0.21420  0.46852  1.0000
  H   H2057     1.0  0.74333  0.22298  0.27578  1.0000
  H   H2058     1.0  0.76963  0.12661  0.19875  1.0000
  S   S360      1.0  0.74524  0.20167  0.33091  1.0000
  C   C2567     1.0  0.90528  0.02675  0.01755  1.0000
  C   C2568     1.0  0.84244  0.32037  0.41818  1.0000
  C   C2569     1.0  0.92689  0.99640  0.41596  1.0000
  H   H2059     1.0  0.94925  0.01279  0.47772  1.0000
  H   H2060     1.0  0.89294  0.02908  0.03273  1.0000
  C   C2570     1.0  0.77150  0.20060  0.31801  1.0000
  C   C2571     1.0  0.78066  0.21913  0.31039  1.0000
  C   C2572     1.0  0.80119  0.21780  0.29899  1.0000
  C   C2573     1.0  0.81289  0.19799  0.29555  1.0000
  C   C2574     1.0  0.80400  0.17946  0.30377  1.0000
  C   C2575     1.0  0.78328  0.18078  0.31477  1.0000
  C   C2576     1.0  0.80463  0.11329  0.33661  1.0000
  H   H2061     1.0  0.80790  0.23219  0.29250  1.0000
  H   H2062     1.0  0.74938  0.22732  0.47937  1.0000
  H   H2063     1.0  0.90057  0.26948  0.34821  1.0000
  C   C2577     1.0  0.81202  0.30067  0.16759  1.0000
  H   H2064     1.0  0.98164  0.02756  0.13945  1.0000
  H   H2065     1.0  0.80917  0.31024  0.00346  1.0000
  C   C2578     1.0  0.80177  0.17203  0.22707  1.0000
  H   H2066     1.0  0.75240  0.10359  0.03822  1.0000
  C   C2579     1.0  0.90779  0.99982  0.13403  1.0000
  H   H2067     1.0  0.81569  0.18787  0.02491  1.0000
  C   C2580     1.0  0.77591  0.19884  0.10762  1.0000
  C   C2581     1.0  0.78510  0.19963  0.13381  1.0000
  C   C2582     1.0  0.78711  0.17626  0.20551  1.0000
  C   C2583     1.0  0.80925  0.21352  0.18993  1.0000
  C   C2584     1.0  0.82751  0.20030  0.18254  1.0000
  C   C2585     1.0  0.84760  0.20832  0.18232  1.0000
  C   C2586     1.0  0.84963  0.22959  0.18947  1.0000
  C   C2587     1.0  0.83154  0.24289  0.19671  1.0000
  C   C2588     1.0  0.80884  0.30657  0.08133  1.0000
  C   C2589     1.0  0.79338  0.13521  0.22790  1.0000
  C   C2590     1.0  0.77861  0.13932  0.20661  1.0000
  C   C2591     1.0  0.77543  0.15978  0.19545  1.0000
  H   H2068     1.0  0.78601  0.19743  0.08970  1.0000
  H   H2069     1.0  0.80232  0.19882  0.13572  1.0000
  H   H2070     1.0  0.82631  0.18368  0.17731  1.0000
  H   H2071     1.0  0.86167  0.19791  0.17703  1.0000
  H   H2072     1.0  0.86528  0.23563  0.18970  1.0000
  H   H2073     1.0  0.83310  0.25933  0.20249  1.0000
  C   C2592     1.0  0.92187  0.01034  0.09059  1.0000
  H   H2074     1.0  0.75519  0.08315  0.99456  1.0000
  H   H2075     1.0  0.94060  0.99418  0.42954  1.0000
  C   C2593     1.0  0.90118  0.31387  0.33333  1.0000
  H   H2076     1.0  0.84204  0.02009  0.03379  1.0000
  H   H2077     1.0  0.94438  0.05068  0.19105  1.0000
  C   C2594     1.0  0.81650  0.24597  0.11351  1.0000
  C   C2595     1.0  0.74974  0.20200  0.15375  1.0000
  H   H2078     1.0  0.93122  0.02021  0.07825  1.0000
  C   C2596     1.0  0.94956  0.05505  0.09276  1.0000
  C   C2597     1.0  0.95511  0.04246  0.11576  1.0000
  C   C2598     1.0  0.99126  0.18622  0.46503  1.0000
  P   P87       1.0  0.93436  0.03316  0.13698  1.0000
  C   C2599     1.0  0.94627  0.02121  0.16766  1.0000
  C   C2600     1.0  0.91598  0.05543  0.14752  1.0000
  C   C2601     1.0  0.89671  0.05181  0.16042  1.0000
  C   C2602     1.0  0.88305  0.06892  0.17005  1.0000
  C   C2603     1.0  0.88852  0.08981  0.16697  1.0000
  C   C2604     1.0  0.90767  0.09359  0.15431  1.0000
  C   C2605     1.0  0.92144  0.07653  0.14485  1.0000
  H   H2079     1.0  0.88415  0.32164  0.08226  1.0000
  H   H2080     1.0  0.81627  0.14845  0.25474  1.0000
  C   C2606     1.0  0.98061  0.13863  0.44186  1.0000
  H   H2081     1.0  0.83992  0.25889  0.13977  1.0000
  C   C2607     1.0  0.86030  0.02664  0.06937  1.0000
  C   C2608     1.0  0.92013  0.01327  0.11912  1.0000
  H   H2082     1.0  0.80528  0.24414  0.12991  1.0000
  C   C2609     1.0  0.87743  0.30630  0.12024  1.0000
  H   H2083     1.0  0.86854  0.29552  0.15983  1.0000
  C   C2610     1.0  0.83152  0.15047  0.48528  1.0000
  C   C2611     1.0  0.98922  0.13324  0.17659  1.0000
  C   C2612     1.0  0.86239  0.23010  0.46247  1.0000
  H   H2084     1.0  0.86501  0.24158  0.44668  1.0000
  H   H2085     1.0  0.93291  0.05922  0.08767  1.0000
  C   C2613     1.0  0.98641  0.24815  0.02569  1.0000
  H   H2086     1.0  0.89244  0.03580  0.16401  1.0000
  H   H2087     1.0  0.86854  0.06589  0.18069  1.0000
  H   H2088     1.0  0.87814  0.10307  0.17485  1.0000
  H   H2089     1.0  0.91201  0.10978  0.15224  1.0000
  H   H2090     1.0  0.93646  0.08000  0.13600  1.0000
  C   C2614     1.0  0.94547  0.31784  0.17159  1.0000
  C   C2615     1.0  0.87562  0.19913  0.48865  1.0000
  C   C2616     1.0  0.84288  0.23113  0.47660  1.0000
  H   H2091     1.0  0.95103  0.98931  0.15042  1.0000
  H   H2092     1.0  0.86148  0.01019  0.07598  1.0000
  H   H2093     1.0  0.78762  0.28073  0.15426  1.0000
  C   C2617     1.0  0.79141  0.14055  0.36909  1.0000
  C   C2618     1.0  0.77639  0.22846  0.03223  1.0000
  C   C2619     1.0  0.75453  0.23807  0.20069  1.0000
  H   H2094     1.0  0.90654  0.00127  0.15610  1.0000
  C   C2620     1.0  0.82932  0.27784  0.47900  1.0000
  C   C2621     1.0  0.79013  0.19758  0.38957  1.0000
  C   C2622     1.0  0.89999  0.31511  0.23961  1.0000
  C   C2623     1.0  0.82514  0.16056  0.46075  1.0000
  H   H2095     1.0  0.87792  0.07455  0.08664  1.0000
  C   C2624     1.0  0.84006  0.17626  0.39259  1.0000
  H   H2096     1.0  0.82127  0.28118  0.03487  1.0000
  C   C2625     1.0  0.87429  0.19063  0.40085  1.0000
  C   C2626     1.0  0.87600  0.19496  0.37297  1.0000
  C   C2627     1.0  0.85961  0.19039  0.35496  1.0000
  C   C2628     1.0  0.84177  0.18105  0.36468  1.0000
  C   C2629     1.0  0.82552  0.11554  0.34544  1.0000
  C   C2630     1.0  0.82941  0.13038  0.36593  1.0000
  C   C2631     1.0  0.81487  0.27724  0.01503  1.0000
  H   H2097     1.0  0.82093  0.17761  0.46083  1.0000
  H   H2098     1.0  0.85791  0.08517  0.04469  1.0000
  C   C2632     1.0  0.81288  0.25598  0.00732  1.0000
  H   H2099     1.0  0.89037  0.20106  0.36518  1.0000
  H   H2100     1.0  0.86106  0.19333  0.33324  1.0000
  H   H2101     1.0  0.82961  0.17699  0.35019  1.0000
  H   H2102     1.0  0.83874  0.10593  0.33610  1.0000
  H   H2103     1.0  0.84573  0.13206  0.37237  1.0000
  H   H2104     1.0  0.78350  0.30187  0.23801  1.0000
  H   H2105     1.0  0.96258  0.22361  0.12232  1.0000
  C   C2633     1.0  0.97683  0.03730  0.12194  1.0000
  C   C2634     1.0  0.88020  0.28835  0.99641  1.0000
  C   C2635     1.0  0.95280  0.99930  0.16831  1.0000
  P   P88       1.0  0.81971  0.23428  0.03073  1.0000
  C   C2636     1.0  0.78380  0.28981  0.19664  1.0000
  C   C2637     1.0  0.82515  0.24347  0.06507  1.0000
  C   C2638     1.0  0.81108  0.24054  0.08664  1.0000
  H   H2106     1.0  0.96092  0.07160  0.05805  1.0000
  C   C2639     1.0  0.83592  0.25446  0.11902  1.0000
  C   C2640     1.0  0.84997  0.25753  0.09764  1.0000
  C   C2641     1.0  0.84462  0.25211  0.07077  1.0000
  C   C2642     1.0  0.93595  0.31056  0.31122  1.0000
  S   S361      1.0  0.94609  0.11488  0.99982  1.0000
  H   H2107     1.0  0.96733  0.19600  0.99503  1.0000
  C   C2643     1.0  0.79406  0.28933  0.17132  1.0000
  C   C2644     1.0  0.78698  0.30336  0.07915  1.0000
  H   H2108     1.0  0.85031  0.29893  0.22935  1.0000
  C   C2645     1.0  0.91160  0.99419  0.07744  1.0000
  H   H2109     1.0  0.97001  0.18784  0.39200  1.0000
  H   H2110     1.0  0.75461  0.27897  0.47586  1.0000
  H   H2111     1.0  0.79570  0.23459  0.08287  1.0000
  C   C2646     1.0  0.87044  0.04184  0.08445  1.0000
  H   H2112     1.0  0.89365  0.21344  0.45757  1.0000
  H   H2113     1.0  0.86503  0.26407  0.10186  1.0000
  H   H2114     1.0  0.85577  0.25442  0.05446  1.0000
  C   C2647     1.0  0.94916  0.03375  0.19108  1.0000
  H   H2115     1.0  0.77797  0.15020  0.37771  1.0000
  H   H2116     1.0  0.87349  0.22046  0.30115  1.0000
  H   H2117     1.0  0.83103  0.11721  0.41822  1.0000
  C   C2648     1.0  0.79412  0.26839  0.39461  1.0000
  C   C2649     1.0  0.80486  0.25430  0.37616  1.0000
  C   C2650     1.0  0.82058  0.23905  0.38571  1.0000
  C   C2651     1.0  0.82548  0.23780  0.41372  1.0000
  C   C2652     1.0  0.81529  0.25244  0.43236  1.0000
  C   C2653     1.0  0.79930  0.26752  0.42252  1.0000
  P   P89       1.0  0.82173  0.25174  0.46871  1.0000
  H   H2118     1.0  0.98105  0.13263  0.09774  1.0000
  H   H2119     1.0  0.95516  0.17556  0.25155  1.0000
  C   C2654     1.0  0.77995  0.17852  0.42967  1.0000
  H   H2120     1.0  0.75079  0.19106  0.44915  1.0000
  H   H2121     1.0  0.81079  0.18454  0.23538  1.0000
  C   C2655     1.0  0.85638  0.18142  0.41072  1.0000
  H   H2122     1.0  0.80058  0.25482  0.35459  1.0000
  H   H2123     1.0  0.82857  0.22782  0.37142  1.0000
  H   H2124     1.0  0.83690  0.22513  0.42050  1.0000
  C   C2656     1.0  0.98237  0.20116  0.14648  1.0000
  H   H2125     1.0  0.87930  0.03724  0.10290  1.0000
  C   C2657     1.0  0.85499  0.20516  0.03905  1.0000
  H   H2126     1.0  0.78237  0.23192  0.45381  1.0000
  C   C2658     1.0  0.93390  0.06211  0.33574  1.0000
  C   C2659     1.0  0.92847  0.08375  0.33100  1.0000
  C   C2660     1.0  0.91050  0.09406  0.34352  1.0000
  C   C2661     1.0  0.89799  0.08285  0.36092  1.0000
  C   C2662     1.0  0.90362  0.06121  0.36641  1.0000
  C   C2663     1.0  0.92151  0.05083  0.35330  1.0000
  P   P90       1.0  0.88726  0.04666  0.38879  1.0000
  C   C2664     1.0  0.88604  0.05758  0.42331  1.0000
  C   C2665     1.0  0.86056  0.04578  0.37467  1.0000
  C   C2666     1.0  0.84533  0.03491  0.38861  1.0000
  C   C2667     1.0  0.82498  0.03337  0.37734  1.0000
  C   C2668     1.0  0.81949  0.04292  0.35224  1.0000
  C   C2669     1.0  0.83447  0.05382  0.33823  1.0000
  C   C2670     1.0  0.85500  0.05501  0.34915  1.0000
  C   C2671     1.0  0.87940  0.04498  0.44484  1.0000
  C   C2672     1.0  0.88023  0.05210  0.47197  1.0000
  C   C2673     1.0  0.88844  0.26478  0.33402  1.0000
  C   C2674     1.0  0.89451  0.08441  0.45688  1.0000
  C   C2675     1.0  0.89368  0.07740  0.42967  1.0000
  C   C2676     1.0  0.89965  0.01998  0.39345  1.0000
  H   H2127     1.0  0.76961  0.20054  0.24891  1.0000
  H   H2128     1.0  0.84232  0.28633  0.42121  1.0000
  C   C2677     1.0  0.84794  0.05361  0.03601  1.0000
  C   C2678     1.0  0.81885  0.31472  0.49173  1.0000
  C   C2679     1.0  0.96349  0.00243  0.21585  1.0000
  H   H2129     1.0  0.94758  0.05402  0.32555  1.0000
  H   H2130     1.0  0.93799  0.09253  0.31733  1.0000
  H   H2131     1.0  0.90617  0.11074  0.33945  1.0000
  H   H2132     1.0  0.88382  0.09104  0.36990  1.0000
  H   H2133     1.0  0.92586  0.03400  0.35624  1.0000
  H   H2134     1.0  0.84931  0.02675  0.40761  1.0000
  H   H2135     1.0  0.81370  0.02420  0.38782  1.0000
  H   H2136     1.0  0.80380  0.04149  0.34339  1.0000
  H   H2137     1.0  0.83039  0.06100  0.31855  1.0000
  H   H2138     1.0  0.86642  0.06282  0.33716  1.0000
  H   H2139     1.0  0.87450  0.02915  0.44097  1.0000
  H   H2140     1.0  0.94631  0.30435  0.29482  1.0000
  H   H2141     1.0  0.96050  0.10270  0.39833  1.0000
  H   H2142     1.0  0.91383  0.00124  0.29166  1.0000
  H   H2143     1.0  0.89969  0.08734  0.41413  1.0000
  H   H2144     1.0  0.92540  0.03048  0.41860  1.0000
  H   H2145     1.0  0.86351  0.26906  0.48174  1.0000
  H   H2146     1.0  0.97707  0.12516  0.36432  1.0000
  H   H2147     1.0  0.86734  0.15578  0.99439  1.0000
  C   C2680     1.0  0.96742  0.24048  0.03457  1.0000
  C   C2681     1.0  0.78205  0.18424  0.02510  1.0000
  C   C2682     1.0  0.75369  0.20004  0.10452  1.0000
  H   H2148     1.0  0.76948  0.28161  0.19922  1.0000
  H   H2149     1.0  0.78134  0.27975  0.38744  1.0000
  P   P91       1.0  0.78348  0.20271  0.19115  1.0000
  H   H2150     1.0  0.79774  0.24534  0.20316  1.0000
  C   C2683     1.0  0.96891  0.11614  0.40515  1.0000
  H   H2151     1.0  0.87568  0.04195  0.48839  1.0000
  C   C2684     1.0  0.87290  0.28003  0.32350  1.0000
  C   C2685     1.0  0.81143  0.23489  0.19698  1.0000
  C   C2686     1.0  0.96067  0.22170  0.02330  1.0000
  C   C2687     1.0  0.85719  0.27338  0.30541  1.0000
  H   H2152     1.0  0.98999  0.24971  0.11986  1.0000
  H   H2153     1.0  0.95888  0.17950  0.45491  1.0000
  C   C2688     1.0  0.83643  0.14391  0.99860  1.0000
  C   C2689     1.0  0.78758  0.12576  0.34845  1.0000
  H   H2154     1.0  0.77170  0.23446  0.31246  1.0000
  C   C2690     1.0  0.76539  0.21970  0.21207  1.0000
  H   H2155     1.0  0.91322  0.99182  0.05554  1.0000
  H   H2156     1.0  0.84291  0.10000  0.46124  1.0000
  C   C2691     1.0  0.90724  0.00775  0.00228  1.0000
  H   H2157     1.0  0.81911  0.29633  0.09440  1.0000
  C   C2692     1.0  0.77396  0.31656  0.06186  1.0000
  C   C2693     1.0  0.86170  0.31239  0.36701  1.0000
  H   H2158     1.0  0.88746  0.19323  0.41457  1.0000
  C   C2694     1.0  0.97948  0.11648  0.16396  1.0000
  C   C2695     1.0  0.80535  0.08661  0.04081  1.0000
  H   H2159     1.0  0.90095  0.23177  0.33365  1.0000
  H   H2160     1.0  0.95908  0.03399  0.23339  1.0000
  H   H2161     1.0  0.78449  0.10580  0.06779  1.0000
  C   C2696     1.0  0.80952  0.31286  0.21479  1.0000
  P   P92       1.0  0.81782  0.16228  0.40423  1.0000
  C   C2697     1.0  0.82473  0.14880  0.43618  1.0000
  C   C2698     1.0  0.88867  0.24340  0.32594  1.0000
  C   C2699     1.0  0.87320  0.23700  0.30765  1.0000
  H   H2162     1.0  0.76388  0.16262  0.17904  1.0000
  H   H2163     1.0  0.95815  0.24889  0.05050  1.0000
  Fe  Fe182     1.0  0.91940  0.14099  0.99765  1.0000
  S   S362      1.0  0.74425  0.26366  0.34493  1.0000
  H   H2164     1.0  0.85603  0.17741  0.43220  1.0000
  H   H2165     1.0  0.84533  0.24672  0.28358  1.0000
  C   C2700     1.0  0.86603  0.30805  0.14477  1.0000
  H   H2166     1.0  0.74409  0.31544  0.23413  1.0000
  C   C2701     1.0  0.88785  0.07179  0.47801  1.0000
  H   H2167     1.0  0.75728  0.24251  0.17968  1.0000
  H   H2168     1.0  0.77139  0.12416  0.34140  1.0000
  C   C2702     1.0  0.91917  0.04269  0.01357  1.0000
  H   H2169     1.0  0.74265  0.22455  0.03203  1.0000
  C   C2703     1.0  0.88331  0.19728  0.00629  1.0000
  H   H2170     1.0  0.88863  0.29257  0.11641  1.0000
  H   H2171     1.0  0.84489  0.28458  0.29707  1.0000
  C   C2704     1.0  0.97286  0.21058  0.00312  1.0000
  C   C2705     1.0  0.84920  0.03242  0.04522  1.0000
  C   C2706     1.0  0.97113  0.17901  0.24562  1.0000
  C   C2707     1.0  0.84377  0.21868  0.02008  1.0000
  H   H2172     1.0  0.75720  0.31411  0.05959  1.0000
  C   C2708     1.0  0.79447  0.18096  0.40837  1.0000
  H   H2173     1.0  0.96344  0.11088  0.44795  1.0000
  C   C2709     1.0  0.83089  0.12678  0.43667  1.0000
  H   H2174     1.0  0.87619  0.00393  0.36998  1.0000
  C   C2710     1.0  0.83754  0.11682  0.46118  1.0000
  H   H2175     1.0  0.98519  0.30431  0.21749  1.0000
  H   H2176     1.0  0.85921  0.26324  0.99527  1.0000
  H   H2177     1.0  0.84878  0.20306  0.05943  1.0000
  H   H2178     1.0  0.78235  0.16534  0.44377  1.0000
  C   C2711     1.0  0.95765  0.02435  0.21512  1.0000
  H   H2179     1.0  0.74646  0.19985  0.08432  1.0000
  S   S363      1.0  0.77648  0.28246  0.09761  1.0000
  C   C2712     1.0  0.98067  0.21549  0.37270  1.0000
  H   H2180     1.0  0.96879  0.10345  0.12573  1.0000
  C   C2713     1.0  0.79795  0.24704  0.48760  1.0000
  C   C2714     1.0  0.79715  0.21834  0.03007  1.0000
  H   H2181     1.0  0.90086  0.09945  0.46166  1.0000
  H   H2182     1.0  0.94617  0.21548  0.03053  1.0000
  C   C2715     1.0  0.98450  0.18844  0.26434  1.0000
  H   H2183     1.0  0.88344  0.18439  0.04697  1.0000
  C   C2716     1.0  0.75863  0.21656  0.03052  1.0000
  C   C2717     1.0  0.98987  0.17938  0.05998  1.0000
  C   C2718     1.0  0.87470  0.19458  0.03215  1.0000
  C   C2719     1.0  0.85225  0.22079  0.99381  1.0000
  C   C2720     1.0  0.91816  0.01695  0.40979  1.0000
  C   C2721     1.0  0.85619  0.29539  0.38326  1.0000
  H   H2184     1.0  0.77391  0.24562  0.03512  1.0000
  C   C2722     1.0  0.78124  0.23707  0.47499  1.0000
  C   C2723     1.0  0.78571  0.09697  0.04863  1.0000
  H   H2185     1.0  0.82737  0.31594  0.32430  1.0000
  C   C2724     1.0  0.98320  0.13286  0.11978  1.0000
  C   C2725     1.0  0.77211  0.21203  0.39272  1.0000
  H   H2186     1.0  0.91415  0.31172  0.25220  1.0000
  H   H2187     1.0  0.85910  0.27905  0.37635  1.0000
  C   C2726     1.0  0.81991  0.31252  0.18937  1.0000
  C   C2727     1.0  0.98869  0.14644  0.39472  1.0000
  C   C2728     1.0  0.89042  0.00216  0.38270  1.0000
  C   C2729     1.0  0.97822  0.12882  0.38599  1.0000
  C   C2730     1.0  0.93635  0.01605  0.49209  1.0000
  C   C2731     1.0  0.97785  0.22038  0.13258  1.0000
  C   C2732     1.0  0.96541  0.06225  0.07608  1.0000
  C   C2733     1.0  0.76145  0.21446  0.23939  1.0000
  C   C2734     1.0  0.85831  0.06877  0.05133  1.0000
  H   H2188     1.0  0.96733  0.21704  0.35845  1.0000
  H   H2189     1.0  0.89873  0.18928  0.00113  1.0000
  H   H2190     1.0  0.81900  0.08780  0.05414  1.0000
  H   H2191     1.0  0.98938  0.21243  0.07260  1.0000
  H   H2192     1.0  0.80650  0.02564  0.01400  1.0000
  C   C2735     1.0  0.97638  0.11635  0.13557  1.0000
  C   C2736     1.0  0.76144  0.19447  0.02689  1.0000
  H   H2193     1.0  0.76876  0.22473  0.37801  1.0000
  H   H2194     1.0  0.78418  0.16710  0.02248  1.0000
  H   H2195     1.0  0.97028  0.18988  0.14730  1.0000
  H   H2196     1.0  0.88239  0.29102  0.25796  1.0000
  H   H2197     1.0  0.80481  0.13319  0.99643  1.0000
  C   C2737     1.0  0.80488  0.15158  0.23817  1.0000
  H   H2198     1.0  0.96744  0.16713  0.20479  1.0000
  C   C2738     1.0  0.88209  0.30359  0.24289  1.0000
  C   C2739     1.0  0.74660  0.22721  0.25484  1.0000
  H   H2199     1.0  0.97897  0.19223  0.28492  1.0000
  C   C2740     1.0  0.86954  0.06287  0.07535  1.0000
  C   C2741     1.0  0.79167  0.30137  0.21847  1.0000
  C   C2742     1.0  0.97779  0.30863  0.19795  1.0000
  H   H2200     1.0  0.84045  0.13618  0.01797  1.0000
  C   C2743     1.0  0.86379  0.30826  0.22670  1.0000
  H   H2201     1.0  0.79596  0.11935  0.23649  1.0000
  C   C2744     1.0  0.75805  0.20983  0.41430  1.0000
  H   H2202     1.0  0.81905  0.30082  0.14740  1.0000
  C   C2745     1.0  0.83788  0.12866  0.48546  1.0000
  C   C2746     1.0  0.98696  0.05727  0.08250  1.0000
  C   C2747     1.0  0.91474  0.30543  0.31243  1.0000
  H   H2203     1.0  0.89635  0.99567  0.00585  1.0000
  C   C2748     1.0  0.96921  0.18644  0.46973  1.0000
  C   C2749     1.0  0.98239  0.19879  0.39159  1.0000
  C   C2750     1.0  0.80707  0.07480  0.01625  1.0000
  H   H2204     1.0  0.90890  0.29499  0.29694  1.0000
  C   C2751     1.0  0.76765  0.09574  0.03199  1.0000
  C   C2752     1.0  0.97037  0.12088  0.43308  1.0000
  H   H2205     1.0  0.88647  0.28431  0.01662  1.0000
  H   H2206     1.0  0.97418  0.10370  0.17625  1.0000
  C   C2753     1.0  0.98917  0.15199  0.42264  1.0000
  H   H2207     1.0  0.94605  0.30852  0.21407  1.0000
  C   C2754     1.0  0.84659  0.29943  0.40875  1.0000
  H   H2208     1.0  0.79663  0.29234  0.48003  1.0000
  P   P93       1.0  0.83245  0.06158  0.00561  1.0000
  C   C2755     1.0  0.76922  0.08420  0.00743  1.0000
  C   C2756     1.0  0.96118  0.98993  0.19242  1.0000
  H   H2209     1.0  0.87705  0.07345  0.00227  1.0000
  C   C2757     1.0  0.81309  0.02427  0.99355  1.0000
  H   H2210     1.0  0.74759  0.18531  0.02559  1.0000
  C   C2758     1.0  0.98014  0.31985  0.15079  1.0000
  C   C2759     1.0  0.81339  0.29469  0.48299  1.0000
  C   C2760     1.0  0.99030  0.31248  0.17510  1.0000
  H   H2211     1.0  0.92819  0.32016  0.17026  1.0000
  C   C2761     1.0  0.78882  0.07381  0.99954  1.0000
  H   H2212     1.0  0.84114  0.99158  0.34225  1.0000
  H   H2213     1.0  0.96950  0.99505  0.23466  1.0000
  C   C2762     1.0  0.76256  0.23427  0.48949  1.0000
  C   C2763     1.0  0.80391  0.25162  0.98163  1.0000
  H   H2214     1.0  0.79783  0.23206  0.59190  1.0000
  H   H2215     1.0  0.77851  0.16479  0.82357  1.0000
  S   S364      1.0  0.90501  0.15763  0.96010  1.0000
  Fe  Fe183     1.0  0.91437  0.14016  0.56312  1.0000
  S   S365      1.0  0.94209  0.11555  0.56794  1.0000
  S   S366      1.0  0.89627  0.15861  0.59654  1.0000
  Fe  Fe184     1.0  0.95471  0.13072  0.53041  1.0000
  C   C2764     1.0  0.94081  0.01435  0.58248  1.0000
  Fe  Fe185     1.0  0.92465  0.09571  0.53794  1.0000
  S   S367      1.0  0.91686  0.06214  0.54795  1.0000
  S   S368      1.0  0.92813  0.15693  0.52781  1.0000
  S   S369      1.0  0.89587  0.11929  0.53638  1.0000
  C   C2765     1.0  0.93074  0.24872  0.69443  1.0000
  H   H2216     1.0  0.84209  0.21029  0.93770  1.0000
  H   H2217     1.0  0.81684  0.08958  0.96112  1.0000
  H   H2218     1.0  0.81648  0.15913  0.80938  1.0000
  C   C2766     1.0  0.76064  0.19806  0.74092  1.0000
  Fe  Fe186     1.0  0.86247  0.15596  0.78542  1.0000
  S   S370      1.0  0.89837  0.15345  0.78798  1.0000
  S   S371      1.0  0.84681  0.18918  0.79355  1.0000
  Fe  Fe187     1.0  0.86135  0.10904  0.77105  1.0000
  S   S372      1.0  0.89688  0.10301  0.77247  1.0000
  S   S373      1.0  0.84169  0.08094  0.76498  1.0000
  Fe  Fe188     1.0  0.89505  0.12310  0.81048  1.0000
  S   S374      1.0  0.91620  0.11094  0.84539  1.0000
  Fe  Fe189     1.0  0.89727  0.13369  0.74969  1.0000
  S   S375      1.0  0.92344  0.13486  0.71833  1.0000
  S   S376      1.0  0.85927  0.12698  0.81117  1.0000
  S   S377      1.0  0.86148  0.13845  0.74496  1.0000
  C   C2767     1.0  0.84853  0.20686  0.91755  1.0000
  S   S378      1.0  0.74178  0.28022  0.91926  1.0000
  P   P94       1.0  0.81999  0.17547  0.91508  1.0000
  C   C2768     1.0  0.87730  0.02359  0.72192  1.0000
  C   C2769     1.0  0.88121  0.04447  0.71501  1.0000
  C   C2770     1.0  0.87067  0.06201  0.72861  1.0000
  C   C2771     1.0  0.85536  0.05886  0.74841  1.0000
  C   C2772     1.0  0.85073  0.03798  0.75465  1.0000
  C   C2773     1.0  0.86191  0.02033  0.74171  1.0000
  H   H2219     1.0  0.89242  0.04714  0.69904  1.0000
  H   H2220     1.0  0.87415  0.07802  0.72346  1.0000
  H   H2221     1.0  0.83883  0.03546  0.76992  1.0000
  H   H2222     1.0  0.85869  0.00428  0.74708  1.0000
  C   C2774     1.0  0.90446  0.31358  0.59848  1.0000
  C   C2775     1.0  0.90458  0.30789  0.84570  1.0000
  H   H2223     1.0  0.78983  0.03840  0.64520  1.0000
  H   H2224     1.0  0.95016  0.01751  0.96392  1.0000
  C   C2776     1.0  0.89738  0.00001  0.84989  1.0000
  C   C2777     1.0  0.95330  0.99791  0.56953  1.0000
  S   S379      1.0  0.89260  0.00229  0.70579  1.0000
  C   C2778     1.0  0.91565  0.14132  0.68455  1.0000
  C   C2779     1.0  0.93075  0.13863  0.66351  1.0000
  C   C2780     1.0  0.92484  0.14351  0.63632  1.0000
  C   C2781     1.0  0.90387  0.15142  0.63016  1.0000
  C   C2782     1.0  0.88885  0.15431  0.65123  1.0000
  C   C2783     1.0  0.89466  0.14904  0.67834  1.0000
  H   H2225     1.0  0.94703  0.13270  0.66818  1.0000
  H   H2226     1.0  0.93659  0.14153  0.62024  1.0000
  H   H2227     1.0  0.87262  0.16042  0.64651  1.0000
  H   H2228     1.0  0.88296  0.15113  0.69443  1.0000
  C   C2784     1.0  0.90779  0.14427  0.92846  1.0000
  C   C2785     1.0  0.89652  0.15272  0.90552  1.0000
  C   C2786     1.0  0.89867  0.14244  0.87992  1.0000
  C   C2787     1.0  0.91241  0.12386  0.87718  1.0000
  C   C2788     1.0  0.92365  0.11546  0.90010  1.0000
  C   C2789     1.0  0.92110  0.12545  0.92579  1.0000
  H   H2229     1.0  0.88622  0.16730  0.90754  1.0000
  H   H2230     1.0  0.88999  0.14903  0.86226  1.0000
  H   H2231     1.0  0.93437  0.10115  0.89797  1.0000
  H   H2232     1.0  0.92982  0.11882  0.94334  1.0000
  C   C2790     1.0  0.91810  0.03967  0.52580  1.0000
  H   H2233     1.0  0.94351  0.06441  0.77420  1.0000
  C   C2791     1.0  0.79707  0.17176  0.72674  1.0000
  C   C2792     1.0  0.78588  0.26652  0.70592  1.0000
  H   H2234     1.0  0.88655  0.03484  0.79348  1.0000
  C   C2793     1.0  0.90358  0.02427  0.52990  1.0000
  C   C2794     1.0  0.80610  0.22986  0.63479  1.0000
  H   H2235     1.0  0.84448  0.27256  0.94928  1.0000
  H   H2236     1.0  0.77089  0.23717  0.75989  1.0000
  H   H2237     1.0  0.89113  0.02709  0.54495  1.0000
  C   C2795     1.0  0.77704  0.19900  0.82090  1.0000
  C   C2796     1.0  0.78845  0.21650  0.81495  1.0000
  C   C2797     1.0  0.80992  0.21329  0.80679  1.0000
  C   C2798     1.0  0.82006  0.19259  0.80450  1.0000
  C   C2799     1.0  0.80878  0.17513  0.81097  1.0000
  C   C2800     1.0  0.78732  0.17836  0.81912  1.0000
  H   H2238     1.0  0.79418  0.20028  0.87488  1.0000
  H   H2239     1.0  0.81859  0.22685  0.80179  1.0000
  H   H2240     1.0  0.97353  0.27380  0.71811  1.0000
  H   H2241     1.0  0.85430  0.18852  0.51886  1.0000
  H   H2242     1.0  0.86274  0.00306  0.65887  1.0000
  H   H2243     1.0  0.75907  0.22986  0.59967  1.0000
  C   C2801     1.0  0.98809  0.15729  0.78104  1.0000
  C   C2802     1.0  0.87529  0.31039  0.62994  1.0000
  H   H2244     1.0  0.74653  0.23476  0.92427  1.0000
  H   H2245     1.0  0.85723  0.07818  0.52975  1.0000
  C   C2803     1.0  0.86729  0.08274  0.98759  1.0000
  H   H2246     1.0  0.95467  0.06269  0.82312  1.0000
  H   H2247     1.0  0.91755  0.99743  0.88633  1.0000
  C   C2804     1.0  0.96552  0.32048  0.56285  1.0000
  C   C2805     1.0  0.94727  0.27139  0.60098  1.0000
  H   H2248     1.0  0.92387  0.01671  0.57814  1.0000
  H   H2249     1.0  0.83313  0.05479  0.50549  1.0000
  C   C2806     1.0  0.89941  0.00630  0.63112  1.0000
  C   C2807     1.0  0.83360  0.09164  0.96430  1.0000
  C   C2808     1.0  0.82669  0.16337  0.94786  1.0000
  H   H2250     1.0  0.97039  0.17374  0.81394  1.0000
  C   C2809     1.0  0.79864  0.28933  0.97200  1.0000
  H   H2251     1.0  0.79239  0.30224  0.95885  1.0000
  H   H2252     1.0  0.85474  0.19259  0.73625  1.0000
  H   H2253     1.0  0.96674  0.21130  0.53197  1.0000
  H   H2254     1.0  0.93052  0.27470  0.59610  1.0000
  Fe  Fe190     1.0  0.74913  0.29067  0.60124  1.0000
  H   H2255     1.0  0.87882  0.21185  0.96691  1.0000
  C   C2810     1.0  0.79587  0.25379  0.51505  1.0000
  H   H2256     1.0  0.87078  0.06912  0.57562  1.0000
  H   H2257     1.0  0.97076  0.19489  0.75481  1.0000
  H   H2258     1.0  0.76327  0.21871  0.96617  1.0000
  C   C2811     1.0  0.94069  0.28645  0.72106  1.0000
  C   C2812     1.0  0.98137  0.28301  0.61568  1.0000
  C   C2813     1.0  0.90173  0.21449  0.69670  1.0000
  C   C2814     1.0  0.81576  0.00558  0.95001  1.0000
  P   P95       1.0  0.92400  0.22402  0.67850  1.0000
  C   C2815     1.0  0.91567  0.22835  0.64325  1.0000
  C   C2816     1.0  0.87202  0.21015  0.98702  1.0000
  C   C2817     1.0  0.91442  0.26414  0.70247  1.0000
  C   C2818     1.0  0.91941  0.28301  0.71544  1.0000
  H   H2259     1.0  0.97289  0.06053  0.57483  1.0000
  C   C2819     1.0  0.76620  0.17941  0.75561  1.0000
  C   C2820     1.0  0.81166  0.30888  0.81963  1.0000
  C   C2821     1.0  0.90522  0.24791  0.63495  1.0000
  C   C2822     1.0  0.89692  0.25028  0.60835  1.0000
  C   C2823     1.0  0.89921  0.23328  0.58973  1.0000
  C   C2824     1.0  0.90970  0.21384  0.59774  1.0000
  C   C2825     1.0  0.91779  0.21131  0.62439  1.0000
  H   H2260     1.0  0.88024  0.99697  0.81155  1.0000
  S   S380      1.0  0.78530  0.29174  0.59806  1.0000
  C   C2826     1.0  0.95939  0.28761  0.61071  1.0000
  H   H2261     1.0  0.80947  0.22883  0.67857  1.0000
  H   H2262     1.0  0.88346  0.20883  0.76181  1.0000
  C   C2827     1.0  0.76950  0.21857  0.89712  1.0000
  H   H2263     1.0  0.94201  0.14882  0.81446  1.0000
  C   C2828     1.0  0.98415  0.07030  0.58467  1.0000
  C   C2829     1.0  0.79839  0.22849  0.66148  1.0000
  C   C2830     1.0  0.76067  0.22366  0.92273  1.0000
  C   C2831     1.0  0.96704  0.15715  0.92220  1.0000
  H   H2264     1.0  0.89778  0.26156  0.69880  1.0000
  C   C2832     1.0  0.85162  0.15500  0.98531  1.0000
  H   H2265     1.0  0.80151  0.19417  0.69505  1.0000
  H   H2266     1.0  0.90034  0.05647  0.96262  1.0000
  H   H2267     1.0  0.84620  0.04756  0.94987  1.0000
  H   H2268     1.0  0.90304  0.26125  0.64896  1.0000
  H   H2269     1.0  0.88853  0.26527  0.60223  1.0000
  H   H2270     1.0  0.89259  0.23503  0.56921  1.0000
  H   H2271     1.0  0.91106  0.20044  0.58356  1.0000
  H   H2272     1.0  0.92497  0.19575  0.63044  1.0000
  S   S381      1.0  0.93946  0.10874  0.50061  1.0000
  C   C2833     1.0  0.88350  0.31527  0.83951  1.0000
  C   C2834     1.0  0.95214  0.25243  0.69998  1.0000
  C   C2835     1.0  0.96081  0.07330  0.66403  1.0000
  H   H2273     1.0  0.96455  0.17975  0.88925  1.0000
  H   H2274     1.0  0.96361  0.21933  0.64714  1.0000
  H   H2275     1.0  0.88130  0.00976  0.90555  1.0000
  C   C2836     1.0  0.84694  0.01081  0.65536  1.0000
  H   H2276     1.0  0.79759  0.99580  0.98422  1.0000
  H   H2277     1.0  0.78897  0.15208  0.76038  1.0000
  C   C2837     1.0  0.97871  0.24639  0.60167  1.0000
  C   C2838     1.0  0.96419  0.05180  0.65594  1.0000
  C   C2839     1.0  0.98728  0.16875  0.56487  1.0000
  C   C2840     1.0  0.95688  0.25080  0.59670  1.0000
  H   H2278     1.0  0.75632  0.30196  0.73062  1.0000
  H   H2279     1.0  0.97082  0.16540  0.56766  1.0000
  H   H2280     1.0  0.95391  0.23182  0.75455  1.0000
  H   H2281     1.0  0.94633  0.05149  0.99091  1.0000
  C   C2841     1.0  0.97101  0.16059  0.79944  1.0000
  C   C2842     1.0  0.76237  0.22776  0.64349  1.0000
  C   C2843     1.0  0.93426  0.06422  0.69676  1.0000
  C   C2844     1.0  0.93736  0.04286  0.68863  1.0000
  C   C2845     1.0  0.95209  0.03669  0.66816  1.0000
  C   C2846     1.0  0.87870  0.31143  0.95698  1.0000
  H   H2282     1.0  0.84355  0.12103  0.50430  1.0000
  C   C2847     1.0  0.98762  0.16693  0.96183  1.0000
  C   C2848     1.0  0.97105  0.17620  0.90948  1.0000
  C   C2849     1.0  0.84008  0.21598  0.49703  1.0000
  C   C2850     1.0  0.95013  0.02806  0.60072  1.0000
  H   H2283     1.0  0.78047  0.28520  0.88978  1.0000
  C   C2851     1.0  0.77778  0.24956  0.74857  1.0000
  H   H2284     1.0  0.74672  0.20824  0.74719  1.0000
  C   C2852     1.0  0.86778  0.19879  0.72525  1.0000
  H   H2285     1.0  0.75925  0.32052  0.83110  1.0000
  H   H2286     1.0  0.85619  0.18960  0.68569  1.0000
  H   H2287     1.0  0.93242  0.04638  0.85708  1.0000
  C   C2853     1.0  0.99107  0.08755  0.57025  1.0000
  C   C2854     1.0  0.90132  0.04095  0.80029  1.0000
  H   H2288     1.0  0.90967  0.04993  0.75959  1.0000
  H   H2289     1.0  0.92266  0.06909  0.71243  1.0000
  C   C2855     1.0  0.88367  0.99532  0.58840  1.0000
  H   H2290     1.0  0.98525  0.09090  0.54961  1.0000
  H   H2291     1.0  0.80135  0.29564  0.70974  1.0000
  C   C2856     1.0  0.80990  0.01599  0.66912  1.0000
  H   H2292     1.0  0.78905  0.26479  0.94476  1.0000
  C   C2857     1.0  0.79148  0.13313  0.86532  1.0000
  C   C2858     1.0  0.80861  0.11840  0.85864  1.0000
  C   C2859     1.0  0.82901  0.12103  0.86907  1.0000
  C   C2860     1.0  0.83238  0.13862  0.88571  1.0000
  C   C2861     1.0  0.81529  0.15362  0.89229  1.0000
  C   C2862     1.0  0.79473  0.15062  0.88224  1.0000
  C   C2863     1.0  0.84066  0.19064  0.90155  1.0000
  C   C2864     1.0  0.86484  0.21851  0.90771  1.0000
  C   C2865     1.0  0.87303  0.21435  0.88149  1.0000
  C   C2866     1.0  0.86461  0.19887  0.86494  1.0000
  C   C2867     1.0  0.84835  0.18718  0.87477  1.0000
  H   H2293     1.0  0.97555  0.30590  0.56630  1.0000
  H   H2294     1.0  0.80612  0.10501  0.84526  1.0000
  H   H2295     1.0  0.84229  0.10956  0.86397  1.0000
  H   H2296     1.0  0.84835  0.14051  0.89345  1.0000
  H   H2297     1.0  0.96273  0.29931  0.66801  1.0000
  H   H2298     1.0  0.88575  0.22323  0.87383  1.0000
  H   H2299     1.0  0.87065  0.19586  0.84438  1.0000
  H   H2300     1.0  0.84189  0.17562  0.86120  1.0000
  H   H2301     1.0  0.85929  0.17233  0.94973  1.0000
  H   H2302     1.0  0.92825  0.03101  0.69810  1.0000
  H   H2303     1.0  0.98622  0.23062  0.59768  1.0000
  H   H2304     1.0  0.89403  0.09862  0.97286  1.0000
  C   C2868     1.0  0.92343  0.00422  0.98292  1.0000
  H   H2305     1.0  0.91688  0.30827  0.83029  1.0000
  H   H2306     1.0  0.80849  0.26161  0.52525  1.0000
  P   P96       1.0  0.89063  0.02841  0.85264  1.0000
  C   C2869     1.0  0.89334  0.03775  0.88741  1.0000
  C   C2870     1.0  0.77716  0.25101  0.52944  1.0000
  Fe  Fe191     1.0  0.91185  0.13391  0.50129  1.0000
  H   H2307     1.0  0.78117  0.16174  0.88714  1.0000
  H   H2308     1.0  0.85834  0.30976  0.63364  1.0000
  C   C2871     1.0  0.93360  0.05742  0.78916  1.0000
  C   C2872     1.0  0.77004  0.21446  0.94632  1.0000
  C   C2873     1.0  0.89977  0.05818  0.89298  1.0000
  C   C2874     1.0  0.90231  0.06488  0.92010  1.0000
  C   C2875     1.0  0.89783  0.05156  0.94166  1.0000
  C   C2876     1.0  0.89002  0.03189  0.93625  1.0000
  C   C2877     1.0  0.88750  0.02508  0.90925  1.0000
  C   C2878     1.0  0.86259  0.03432  0.84552  1.0000
  C   C2879     1.0  0.84791  0.02058  0.85509  1.0000
  C   C2880     1.0  0.82597  0.02555  0.85134  1.0000
  C   C2881     1.0  0.81853  0.04438  0.83810  1.0000
  C   C2882     1.0  0.83305  0.05837  0.82902  1.0000
  C   C2883     1.0  0.85502  0.05347  0.83282  1.0000
  C   C2884     1.0  0.81160  0.29527  0.89961  1.0000
  C   C2885     1.0  0.93987  0.05644  0.81669  1.0000
  C   C2886     1.0  0.86525  0.10797  0.95022  1.0000
  P   P97       1.0  0.94729  0.31452  0.61429  1.0000
  H   H2309     1.0  0.94581  0.04729  0.50341  1.0000
  C   C2887     1.0  0.88268  0.31216  0.60321  1.0000
  C   C2888     1.0  0.78756  0.20407  0.89494  1.0000
  C   C2889     1.0  0.92697  0.04755  0.83602  1.0000
  H   H2310     1.0  0.90288  0.06896  0.87654  1.0000
  H   H2311     1.0  0.90782  0.08036  0.92444  1.0000
  C   C2890     1.0  0.79474  0.31347  0.57998  1.0000
  H   H2312     1.0  0.88615  0.02178  0.95302  1.0000
  C   C2891     1.0  0.85665  0.28173  0.95814  1.0000
  H   H2313     1.0  0.85344  0.00604  0.86561  1.0000
  H   H2314     1.0  0.81481  0.01469  0.85867  1.0000
  H   H2315     1.0  0.80155  0.04811  0.83480  1.0000
  H   H2316     1.0  0.82732  0.07295  0.81869  1.0000
  H   H2317     1.0  0.86599  0.06463  0.82582  1.0000
  C   C2892     1.0  0.84355  0.10522  0.94692  1.0000
  C   C2893     1.0  0.80773  0.00750  0.97660  1.0000
  H   H2318     1.0  0.83439  0.11362  0.93096  1.0000
  H   H2319     1.0  0.87294  0.11864  0.93689  1.0000
  H   H2320     1.0  0.93395  0.18439  0.71028  1.0000
  C   C2894     1.0  0.79674  0.19426  0.91842  1.0000
  H   H2321     1.0  0.82298  0.23103  0.63139  1.0000
  C   C2895     1.0  0.80551  0.26165  0.87762  1.0000
  C   C2896     1.0  0.84373  0.29787  0.79414  1.0000
  C   C2897     1.0  0.81622  0.31812  0.58265  1.0000
  C   C2898     1.0  0.95704  0.27114  0.71343  1.0000
  C   C2899     1.0  0.88429  0.01018  0.60997  1.0000
  H   H2322     1.0  0.76216  0.22568  0.87886  1.0000
  P   P98       1.0  0.86446  0.03272  0.61257  1.0000
  C   C2900     1.0  0.84295  0.02551  0.63403  1.0000
  C   C2901     1.0  0.87692  0.05472  0.62812  1.0000
  C   C2902     1.0  0.86701  0.06678  0.64953  1.0000
  C   C2903     1.0  0.87657  0.08428  0.66046  1.0000
  C   C2904     1.0  0.89605  0.08978  0.65021  1.0000
  C   C2905     1.0  0.90608  0.07775  0.62909  1.0000
  C   C2906     1.0  0.89660  0.06021  0.61823  1.0000
  C   C2907     1.0  0.82224  0.03549  0.63055  1.0000
  C   C2908     1.0  0.80576  0.03064  0.64796  1.0000
  P   P99       1.0  0.85230  0.30813  0.91186  1.0000
  H   H2323     1.0  0.94324  0.09601  0.69054  1.0000
  C   C2909     1.0  0.85408  0.04037  0.57895  1.0000
  C   C2910     1.0  0.83996  0.02765  0.56536  1.0000
  C   C2911     1.0  0.83257  0.03275  0.53894  1.0000
  S   S382      1.0  0.75036  0.26460  0.84490  1.0000
  C   C2912     1.0  0.85231  0.06408  0.53966  1.0000
  C   C2913     1.0  0.86000  0.05883  0.56594  1.0000
  H   H2324     1.0  0.79606  0.15033  0.95177  1.0000
  H   H2325     1.0  0.78065  0.23244  0.81619  1.0000
  H   H2326     1.0  0.89986  0.01719  0.64838  1.0000
  H   H2327     1.0  0.96942  0.08545  0.65463  1.0000
  H   H2328     1.0  0.85194  0.06281  0.65786  1.0000
  H   H2329     1.0  0.86882  0.09367  0.67684  1.0000
  H   H2330     1.0  0.90331  0.10344  0.65853  1.0000
  H   H2331     1.0  0.92101  0.08222  0.62080  1.0000
  H   H2332     1.0  0.90419  0.05126  0.60145  1.0000
  H   H2333     1.0  0.81887  0.04719  0.61460  1.0000
  C   C2914     1.0  0.98829  0.14031  0.76217  1.0000
  C   C2915     1.0  0.96545  0.31600  0.66661  1.0000
  C   C2916     1.0  0.82746  0.29303  0.81183  1.0000
  P   P100      1.0  0.76626  0.22834  0.70079  1.0000
  H   H2334     1.0  0.79903  0.30457  0.83289  1.0000
  C   C2917     1.0  0.89425  0.30096  0.89225  1.0000
  C   C2918     1.0  0.96441  0.17110  0.69623  1.0000
  H   H2335     1.0  0.87114  0.23075  0.92035  1.0000
  H   H2336     1.0  0.77567  0.13116  0.85711  1.0000
  H   H2337     1.0  0.94753  0.23833  0.58898  1.0000
  C   C2919     1.0  0.79146  0.19033  0.71182  1.0000
  C   C2920     1.0  0.87708  0.09679  0.97060  1.0000
  H   H2338     1.0  0.78596  0.26622  0.78536  1.0000
  H   H2339     1.0  0.88593  0.20282  0.66047  1.0000
  C   C2921     1.0  0.84691  0.16453  0.95993  1.0000
  H   H2340     1.0  0.79721  0.01237  0.68279  1.0000
  H   H2341     1.0  0.98563  0.24427  0.94574  1.0000
  C   C2922     1.0  0.93434  0.03566  0.50648  1.0000
  C   C2923     1.0  0.97819  0.20715  0.76621  1.0000
  C   C2924     1.0  0.94592  0.07942  0.68440  1.0000
  S   S383      1.0  0.98945  0.13705  0.52517  1.0000
  C   C2925     1.0  0.84533  0.08045  0.98502  1.0000
  H   H2342     1.0  0.81134  0.16165  0.72154  1.0000
  C   C2926     1.0  0.78654  0.26596  0.76318  1.0000
  H   H2343     1.0  0.77543  0.25689  0.55035  1.0000
  H   H2344     1.0  0.74530  0.22742  0.64612  1.0000
  C   C2927     1.0  0.90726  0.04035  0.82810  1.0000
  H   H2345     1.0  0.87211  0.99753  0.57193  1.0000
  H   H2346     1.0  0.98596  0.19373  0.59527  1.0000
  H   H2347     1.0  0.82536  0.21628  0.50845  1.0000
  C   C2928     1.0  0.86769  0.31526  0.85953  1.0000
  C   C2929     1.0  0.76049  0.24129  0.51665  1.0000
  C   C2930     1.0  0.99098  0.26245  0.61110  1.0000
  C   C2931     1.0  0.79535  0.28237  0.74922  1.0000
  H   H2348     1.0  0.85588  0.28553  0.78797  1.0000
  C   C2932     1.0  0.79514  0.28258  0.72059  1.0000
  H   H2349     1.0  0.80193  0.23538  0.97547  1.0000
  C   C2933     1.0  0.97203  0.02517  0.60673  1.0000
  C   C2934     1.0  0.98458  0.00851  0.59379  1.0000
  C   C2935     1.0  0.81640  0.14228  0.98647  1.0000
  C   C2936     1.0  0.81156  0.15190  0.96114  1.0000
  H   H2350     1.0  0.79459  0.25073  0.86940  1.0000
  C   C2937     1.0  0.78811  0.19991  0.94426  1.0000
  C   C2938     1.0  0.87301  0.30861  0.88631  1.0000
  H   H2351     1.0  0.80162  0.29532  0.76058  1.0000
  C   C2939     1.0  0.83873  0.05097  0.52607  1.0000
  H   H2352     1.0  0.80502  0.31028  0.90818  1.0000
  H   H2353     1.0  0.94346  0.19519  0.49758  1.0000
  H   H2354     1.0  0.95410  0.02007  0.66198  1.0000
  C   C2940     1.0  0.83049  0.00612  0.67283  1.0000
  H   H2355     1.0  0.79525  0.19334  0.96289  1.0000
  H   H2356     1.0  0.94027  0.04109  0.60984  1.0000
  C   C2941     1.0  0.86490  0.27637  0.98419  1.0000
  C   C2942     1.0  0.88715  0.30583  0.98271  1.0000
  C   C2943     1.0  0.83528  0.03670  0.95761  1.0000
  H   H2357     1.0  0.82685  0.30850  0.59602  1.0000
  C   C2944     1.0  0.96375  0.20601  0.66108  1.0000
  H   H2358     1.0  0.75326  0.28325  0.97602  1.0000
  C   C2945     1.0  0.77642  0.22758  0.66611  1.0000
  H   H2359     1.0  0.94236  0.11926  0.78079  1.0000
  H   H2360     1.0  0.96511  0.24085  0.69444  1.0000
  C   C2946     1.0  0.82753  0.25631  0.87664  1.0000
  H   H2361     1.0  0.88385  0.30941  0.67276  1.0000
  H   H2362     1.0  0.98626  0.20531  0.91263  1.0000
  C   C2947     1.0  0.84164  0.27040  0.88727  1.0000
  C   C2948     1.0  0.82699  0.03898  0.98427  1.0000
  C   C2949     1.0  0.92187  0.00059  0.49653  1.0000
  C   C2950     1.0  0.77757  0.24957  0.71977  1.0000
  C   C2951     1.0  0.79757  0.28110  0.88906  1.0000
  C   C2952     1.0  0.83377  0.28998  0.89890  1.0000
  C   C2953     1.0  0.95484  0.14665  0.79969  1.0000
  H   H2363     1.0  0.85869  0.26610  0.88624  1.0000
  C   C2954     1.0  0.90534  0.00494  0.51528  1.0000
  H   H2364     1.0  0.83359  0.24128  0.86747  1.0000
  H   H2365     1.0  0.89897  0.29525  0.91240  1.0000
  H   H2366     1.0  0.82691  0.27689  0.81924  1.0000
  C   C2955     1.0  0.86371  0.29926  0.94428  1.0000
  C   C2956     1.0  0.94711  0.18663  0.69668  1.0000
  C   C2957     1.0  0.95513  0.12982  0.78086  1.0000
  C   C2958     1.0  0.91142  0.31170  0.64734  1.0000
  C   C2959     1.0  0.79196  0.23037  0.61251  1.0000
  H   H2367     1.0  0.83609  0.01826  0.92008  1.0000
  C   C2960     1.0  0.90992  0.30064  0.87202  1.0000
  H   H2368     1.0  0.83205  0.15959  0.50410  1.0000
  C   C2961     1.0  0.82949  0.02018  0.94050  1.0000
  C   C2962     1.0  0.85618  0.30168  0.49254  1.0000
  H   H2369     1.0  0.97215  0.13779  0.95826  1.0000
  H   H2370     1.0  0.97044  0.26036  0.78061  1.0000
  C   C2963     1.0  0.88401  0.20801  0.73961  1.0000
  H   H2371     1.0  0.82231  0.02228  0.52837  1.0000
  C   C2964     1.0  0.97782  0.24411  0.78068  1.0000
  H   H2372     1.0  0.96432  0.15730  0.70940  1.0000
  C   C2965     1.0  0.98126  0.17288  0.67808  1.0000
  H   H2373     1.0  0.94450  0.30098  0.73145  1.0000
  C   C2966     1.0  0.79677  0.26822  0.96408  1.0000
  C   C2967     1.0  0.91447  0.04941  0.78094  1.0000
  H   H2374     1.0  0.78493  0.26763  0.68380  1.0000
  H   H2375     1.0  0.91353  0.22272  0.73691  1.0000
  C   C2968     1.0  0.86852  0.19722  0.69674  1.0000
  H   H2376     1.0  0.87959  0.32158  0.81937  1.0000
  C   C2969     1.0  0.96860  0.22807  0.76595  1.0000
  H   H2377     1.0  0.83384  0.99497  0.68944  1.0000
  C   C2970     1.0  0.88550  0.20484  0.68249  1.0000
  C   C2971     1.0  0.77321  0.20369  0.71885  1.0000
  C   C2972     1.0  0.93761  0.02008  0.97892  1.0000
  C   C2973     1.0  0.90096  0.21584  0.72544  1.0000
  H   H2378     1.0  0.89427  0.99309  0.51926  1.0000
  C   C2974     1.0  0.98332  0.19069  0.92291  1.0000
  C   C2975     1.0  0.91899  0.31368  0.62056  1.0000
  H   H2379     1.0  0.90680  0.29502  0.72132  1.0000
  H   H2380     1.0  0.92635  0.29524  0.87692  1.0000
  C   C2976     1.0  0.78445  0.16630  0.74860  1.0000
  C   C2977     1.0  0.94664  0.20422  0.67908  1.0000
  H   H2381     1.0  0.87274  0.30449  0.49637  1.0000
  S   S384      1.0  0.74997  0.20221  0.83060  1.0000
  H   H2382     1.0  0.97160  0.11393  0.74707  1.0000
  C   C2978     1.0  0.77013  0.22918  0.61687  1.0000
  H   H2383     1.0  0.83496  0.01346  0.57489  1.0000
  H   H2384     1.0  0.95745  0.14601  0.91181  1.0000
  H   H2385     1.0  0.92208  0.31198  0.66482  1.0000
  H   H2386     1.0  0.78966  0.06499  0.98039  1.0000
  C   C2979     1.0  0.91085  0.98909  0.86926  1.0000
  P   P101      1.0  0.98373  0.04335  0.63012  1.0000
  C   C2980     1.0  0.97532  0.15252  0.94834  1.0000
  C   C2981     1.0  0.98101  0.19041  0.66063  1.0000
  H   H2387     1.0  0.81180  0.99243  0.93696  1.0000
  C   C2982     1.0  0.97173  0.12677  0.76196  1.0000
  C   C2983     1.0  0.96039  0.19551  0.49378  1.0000
  C   C2984     1.0  0.85643  0.20012  0.50302  1.0000
  C   C2985     1.0  0.97345  0.20470  0.51305  1.0000
  H   H2388     1.0  0.85139  0.32076  0.85420  1.0000
  H   H2389     1.0  0.87148  0.31267  0.58616  1.0000
  H   H2390     1.0  0.74167  0.31134  0.87388  1.0000
  H   H2391     1.0  0.88920  0.07700  0.49912  1.0000
  H   H2392     1.0  0.84400  0.23100  0.97877  1.0000
  C   C2986     1.0  0.97520  0.99496  0.57522  1.0000
  S   S385      1.0  0.97375  0.31657  0.77447  1.0000
  H   H2393     1.0  0.99121  0.29539  0.62235  1.0000
  C   C2987     1.0  0.88967  0.31004  0.65196  1.0000
  H   H2394     1.0  0.97884  0.31716  0.70751  1.0000
  H   H2395     1.0  0.74580  0.23958  0.52762  1.0000
  H   H2396     1.0  0.75658  0.17542  0.77289  1.0000
  C   C2988     1.0  0.84022  0.31823  0.49649  1.0000
  C   C2989     1.0  0.84430  0.31863  0.78437  1.0000
  H   H2397     1.0  0.90986  0.31476  0.57757  1.0000
  H   H2398     1.0  0.88812  0.18659  0.49309  1.0000
  C   C2990     1.0  0.89016  0.98882  0.82716  1.0000
  H   H2399     1.0  0.89886  0.31539  0.99210  1.0000
  C   C2991     1.0  0.85072  0.51081  0.01262  1.0000
  S   S386      1.0  0.90220  0.58105  0.26139  1.0000
  S   S387      1.0  0.90020  0.57812  0.19376  1.0000
  Fe  Fe192     1.0  0.89427  0.60334  0.22630  1.0000
  S   S388      1.0  0.86436  0.62614  0.22998  1.0000
  Fe  Fe193     1.0  0.91087  0.55654  0.22896  1.0000
  S   S389      1.0  0.89844  0.52409  0.23314  1.0000
  Fe  Fe194     1.0  0.94390  0.41599  0.28036  1.0000
  S   S390      1.0  0.90834  0.41592  0.28281  1.0000
  C   C2992     1.0  0.88307  0.49178  0.10094  1.0000
  Fe  Fe195     1.0  0.91480  0.38729  0.30942  1.0000
  S   S391      1.0  0.89054  0.38279  0.34242  1.0000
  Fe  Fe196     1.0  0.91185  0.39335  0.24724  1.0000
  H   H2400     1.0  0.93436  0.50150  0.36650  1.0000
  S   S392      1.0  0.95047  0.38903  0.31053  1.0000
  S   S393      1.0  0.94717  0.39519  0.24274  1.0000
  Fe  Fe197     1.0  0.88910  0.37606  0.05903  1.0000
  S   S394      1.0  0.85646  0.39362  0.06023  1.0000
  S   S395      1.0  0.91064  0.36583  0.09487  1.0000
  S   S396      1.0  0.92738  0.61381  0.22463  1.0000
  S   S397      1.0  0.87598  0.55045  0.46472  1.0000
  S   S398      1.0  0.91670  0.38115  0.46807  1.0000
  Fe  Fe198     1.0  0.86750  0.41191  0.02415  1.0000
  C   C2993     1.0  0.91848  0.37180  0.14945  1.0000
  Fe  Fe199     1.0  0.84726  0.36924  0.02945  1.0000
  S   S399      1.0  0.81447  0.35620  0.02881  1.0000
  S   S400      1.0  0.90101  0.39633  0.02556  1.0000
  S   S401      1.0  0.87919  0.35038  0.03065  1.0000
  C   C2994     1.0  0.81755  0.32283  0.06634  1.0000
  H   H2401     1.0  0.87561  0.38239  0.44040  1.0000
  C   C2995     1.0  0.95634  0.56093  0.32031  1.0000
  H   H2402     1.0  0.98117  0.42150  0.19658  1.0000
  H   H2403     1.0  0.93891  0.52314  0.26318  1.0000
  C   C2996     1.0  0.83351  0.35272  0.27491  1.0000
  C   C2997     1.0  0.81977  0.43643  0.07596  1.0000
  C   C2998     1.0  0.77930  0.65069  0.29765  1.0000
  H   H2404     1.0  0.95884  0.53101  0.34186  1.0000
  C   C2999     1.0  0.90345  0.37475  0.12809  1.0000
  S   S402      1.0  0.96468  0.54104  0.39919  1.0000
  H   H2405     1.0  0.81555  0.43822  0.05445  1.0000
  C   C3000     1.0  0.89319  0.38920  0.18147  1.0000
  C   C3001     1.0  0.87805  0.39186  0.16023  1.0000
  C   C3002     1.0  0.88323  0.38487  0.13355  1.0000
  C   C3003     1.0  0.96759  0.56528  0.07519  1.0000
  H   H2406     1.0  0.86230  0.39933  0.16438  1.0000
  H   H2407     1.0  0.87157  0.38732  0.11725  1.0000
  C   C3004     1.0  0.89834  0.38294  0.37714  1.0000
  C   C3005     1.0  0.88254  0.38274  0.39720  1.0000
  C   C3006     1.0  0.88795  0.38269  0.42514  1.0000
  C   C3007     1.0  0.90937  0.38239  0.43320  1.0000
  C   C3008     1.0  0.92527  0.38258  0.41315  1.0000
  C   C3009     1.0  0.91975  0.38306  0.38515  1.0000
  H   H2408     1.0  0.86607  0.38254  0.39104  1.0000
  H   H2409     1.0  0.96229  0.49287  0.28233  1.0000
  H   H2410     1.0  0.94188  0.38237  0.41932  1.0000
  H   H2411     1.0  0.93205  0.38328  0.36980  1.0000
  C   C3010     1.0  0.91631  0.50308  0.24530  1.0000
  C   C3011     1.0  0.91131  0.48203  0.24111  1.0000
  C   C3012     1.0  0.92462  0.46492  0.25163  1.0000
  C   C3013     1.0  0.94287  0.46873  0.26690  1.0000
  H   H2412     1.0  0.89711  0.47892  0.22966  1.0000
  H   H2413     1.0  0.92070  0.44879  0.24793  1.0000
  H   H2414     1.0  0.81489  0.32248  0.23156  1.0000
  C   C3014     1.0  0.78262  0.33284  0.04708  1.0000
  H   H2415     1.0  0.91354  0.34011  0.21739  1.0000
  C   C3015     1.0  0.80441  0.33616  0.04929  1.0000
  C   C3016     1.0  0.86790  0.33867  0.29279  1.0000
  C   C3017     1.0  0.84489  0.49296  0.20116  1.0000
  C   C3018     1.0  0.86983  0.52610  0.47985  1.0000
  H   H2416     1.0  0.86197  0.64606  0.35432  1.0000
  S   S403      1.0  0.92151  0.58156  0.01282  1.0000
  H   H2417     1.0  0.83953  0.35704  0.13449  1.0000
  S   S404      1.0  0.85535  0.44692  0.02133  1.0000
  P   P102      1.0  0.86174  0.46159  0.12939  1.0000
  C   C3019     1.0  0.86549  0.52211  0.07723  1.0000
  C   C3020     1.0  0.84967  0.34257  0.13073  1.0000
  H   H2418     1.0  0.92560  0.45652  0.05537  1.0000
  H   H2419     1.0  0.98730  0.46301  0.32935  1.0000
  H   H2420     1.0  0.85921  0.35334  0.09129  1.0000
  H   H2421     1.0  0.88811  0.63759  0.18228  1.0000
  C   C3021     1.0  0.85229  0.32634  0.15035  1.0000
  H   H2422     1.0  0.89945  0.51385  0.07686  1.0000
  C   C3022     1.0  0.93495  0.50694  0.25975  1.0000
  C   C3023     1.0  0.82534  0.39879  0.37926  1.0000
  C   C3024     1.0  0.82468  0.39990  0.40785  1.0000
  C   C3025     1.0  0.83325  0.41677  0.42160  1.0000
  C   C3026     1.0  0.84215  0.43271  0.40682  1.0000
  C   C3027     1.0  0.84220  0.43219  0.37804  1.0000
  C   C3028     1.0  0.83422  0.41476  0.36439  1.0000
  P   P103      1.0  0.85112  0.45447  0.35919  1.0000
  C   C3029     1.0  0.83891  0.45513  0.32553  1.0000
  C   C3030     1.0  0.84338  0.47854  0.37846  1.0000
  C   C3031     1.0  0.82329  0.48086  0.39116  1.0000
  C   C3032     1.0  0.81802  0.49805  0.40884  1.0000
  C   C3033     1.0  0.83266  0.51314  0.41376  1.0000
  C   C3034     1.0  0.85238  0.51136  0.40063  1.0000
  C   C3035     1.0  0.85781  0.49414  0.38303  1.0000
  C   C3036     1.0  0.84722  0.44086  0.30522  1.0000
  C   C3037     1.0  0.83777  0.44071  0.27922  1.0000
  C   C3038     1.0  0.82017  0.45504  0.27311  1.0000
  C   C3039     1.0  0.81198  0.46950  0.29307  1.0000
  C   C3040     1.0  0.82127  0.46954  0.31925  1.0000
  C   C3041     1.0  0.87958  0.45218  0.35394  1.0000
  C   C3042     1.0  0.89328  0.43842  0.36985  1.0000
  C   C3043     1.0  0.91530  0.43677  0.36507  1.0000
  C   C3044     1.0  0.92364  0.44862  0.34422  1.0000
  C   C3045     1.0  0.91011  0.46252  0.32858  1.0000
  C   C3046     1.0  0.88818  0.46437  0.33342  1.0000
  H   H2423     1.0  0.81912  0.38547  0.36859  1.0000
  H   H2424     1.0  0.81773  0.38763  0.41944  1.0000
  H   H2425     1.0  0.83278  0.41765  0.44377  1.0000
  H   H2426     1.0  0.84842  0.44573  0.41794  1.0000
  H   H2427     1.0  0.83463  0.41340  0.34234  1.0000
  H   H2428     1.0  0.81199  0.46896  0.38818  1.0000
  H   H2429     1.0  0.80283  0.49935  0.41936  1.0000
  H   H2430     1.0  0.82890  0.52608  0.42812  1.0000
  H   H2431     1.0  0.86370  0.52305  0.40492  1.0000
  H   H2432     1.0  0.87354  0.49277  0.37396  1.0000
  H   H2433     1.0  0.86088  0.42959  0.30964  1.0000
  H   H2434     1.0  0.84414  0.42936  0.26393  1.0000
  H   H2435     1.0  0.81288  0.45493  0.25290  1.0000
  H   H2436     1.0  0.79832  0.48060  0.28832  1.0000
  H   H2437     1.0  0.81463  0.48075  0.33444  1.0000
  H   H2438     1.0  0.88702  0.42876  0.38563  1.0000
  H   H2439     1.0  0.92587  0.42606  0.37723  1.0000
  H   H2440     1.0  0.94051  0.44686  0.33975  1.0000
  H   H2441     1.0  0.91665  0.47160  0.31240  1.0000
  H   H2442     1.0  0.87795  0.47521  0.32097  1.0000
  C   C3047     1.0  0.89605  0.44666  0.43898  1.0000
  C   C3048     1.0  0.88666  0.46753  0.43676  1.0000
  C   C3049     1.0  0.89951  0.48441  0.43389  1.0000
  C   C3050     1.0  0.92174  0.48062  0.43474  1.0000
  C   C3051     1.0  0.93129  0.45983  0.43795  1.0000
  C   C3052     1.0  0.91832  0.44273  0.43879  1.0000
  P   P104      1.0  0.96003  0.45557  0.43973  1.0000
  C   C3053     1.0  0.96923  0.45773  0.40496  1.0000
  H   H2443     1.0  0.89666  0.46552  0.01004  1.0000
  H   H2444     1.0  0.77235  0.34283  0.03363  1.0000
  C   C3054     1.0  0.85578  0.35240  0.27515  1.0000
  C   C3055     1.0  0.94829  0.63818  0.03959  1.0000
  H   H2445     1.0  0.97978  0.49545  0.35825  1.0000
  H   H2446     1.0  0.83610  0.53505  0.47661  1.0000
  H   H2447     1.0  0.95665  0.53213  0.17066  1.0000
  C   C3056     1.0  0.96871  0.45442  0.19754  1.0000
  H   H2448     1.0  0.86440  0.44549  0.22827  1.0000
  H   H2449     1.0  0.97311  0.63117  0.22600  1.0000
  H   H2450     1.0  0.97159  0.61517  0.42863  1.0000
  C   C3057     1.0  0.95914  0.54807  0.34378  1.0000
  S   S405      1.0  0.88616  0.39807  0.21470  1.0000
  C   C3058     1.0  0.84570  0.51652  0.08637  1.0000
  C   C3059     1.0  0.85902  0.45724  0.21304  1.0000
  H   H2451     1.0  0.88616  0.43348  0.44118  1.0000
  H   H2452     1.0  0.86948  0.47080  0.43790  1.0000
  H   H2453     1.0  0.89226  0.50059  0.43230  1.0000
  H   H2454     1.0  0.93148  0.49398  0.43358  1.0000
  H   H2455     1.0  0.92524  0.42641  0.43996  1.0000
  C   C3060     1.0  0.84784  0.33734  0.40211  1.0000
  H   H2456     1.0  0.86774  0.43621  0.17965  1.0000
  C   C3061     1.0  0.81114  0.42081  0.09156  1.0000
  C   C3062     1.0  0.86289  0.47314  0.01619  1.0000
  H   H2457     1.0  0.83029  0.48604  0.02113  1.0000
  H   H2458     1.0  0.98275  0.42736  0.34846  1.0000
  H   H2459     1.0  0.95270  0.63155  0.01963  1.0000
  P   P105      1.0  0.84087  0.32993  0.18402  1.0000
  C   C3063     1.0  0.81736  0.41797  0.11892  1.0000
  Fe  Fe200     1.0  0.95124  0.55994  0.00696  1.0000
  C   C3064     1.0  0.96895  0.43072  0.45611  1.0000
  H   H2460     1.0  0.96370  0.60879  0.34987  1.0000
  C   C3065     1.0  0.90227  0.44416  0.14661  1.0000
  C   C3066     1.0  0.86057  0.64744  0.20661  1.0000
  Fe  Fe201     1.0  0.93418  0.58699  0.19443  1.0000
  H   H2461     1.0  0.91372  0.41299  0.07886  1.0000
  H   H2462     1.0  0.93359  0.56276  0.07291  1.0000
  C   C3067     1.0  0.88415  0.50970  0.08442  1.0000
  H   H2463     1.0  0.95670  0.48712  0.19264  1.0000
  H   H2464     1.0  0.92515  0.37686  0.19234  1.0000
  H   H2465     1.0  0.94612  0.62367  0.10640  1.0000
  S   S406      1.0  0.93983  0.63597  0.46497  1.0000
  H   H2466     1.0  0.82905  0.49404  0.10901  1.0000
  C   C3068     1.0  0.84638  0.57534  0.26577  1.0000
  C   C3069     1.0  0.84288  0.55455  0.25790  1.0000
  C   C3070     1.0  0.84608  0.53796  0.27675  1.0000
  C   C3071     1.0  0.85310  0.54211  0.30337  1.0000
  C   C3072     1.0  0.85744  0.56286  0.31115  1.0000
  C   C3073     1.0  0.85360  0.57954  0.29228  1.0000
  P   P106      1.0  0.86872  0.56760  0.34466  1.0000
  C   C3074     1.0  0.84856  0.56754  0.37094  1.0000
  C   C3075     1.0  0.89023  0.54725  0.35152  1.0000
  C   C3076     1.0  0.89692  0.54270  0.37853  1.0000
  C   C3077     1.0  0.91272  0.52624  0.38384  1.0000
  C   C3078     1.0  0.92192  0.51407  0.36231  1.0000
  C   C3079     1.0  0.91599  0.51897  0.33530  1.0000
  C   C3080     1.0  0.90050  0.53572  0.32985  1.0000
  C   C3081     1.0  0.85249  0.57605  0.39703  1.0000
  C   C3082     1.0  0.83697  0.57634  0.41741  1.0000
  C   C3083     1.0  0.81720  0.56861  0.41181  1.0000
  C   C3084     1.0  0.81303  0.56032  0.38585  1.0000
  C   C3085     1.0  0.82867  0.55968  0.36550  1.0000
  C   C3086     1.0  0.87898  0.59352  0.34527  1.0000
  C   C3087     1.0  0.86509  0.61179  0.35052  1.0000
  C   C3088     1.0  0.96227  0.47249  0.18207  1.0000
  H   H2467     1.0  0.83124  0.52593  0.08018  1.0000
  H   H2468     1.0  0.96600  0.58648  0.39158  1.0000
  C   C3089     1.0  0.90051  0.59579  0.33952  1.0000
  H   H2469     1.0  0.84429  0.58817  0.25099  1.0000
  H   H2470     1.0  0.83813  0.55126  0.23701  1.0000
  H   H2471     1.0  0.84381  0.52178  0.27046  1.0000
  H   H2472     1.0  0.85597  0.52902  0.31758  1.0000
  H   H2473     1.0  0.85696  0.59567  0.29739  1.0000
  H   H2474     1.0  0.89030  0.55188  0.39568  1.0000
  H   H2475     1.0  0.91833  0.52343  0.40463  1.0000
  H   H2476     1.0  0.92393  0.51026  0.31853  1.0000
  H   H2477     1.0  0.89682  0.53968  0.30867  1.0000
  H   H2478     1.0  0.86759  0.58246  0.40177  1.0000
  H   H2479     1.0  0.84046  0.58237  0.43771  1.0000
  C   C3090     1.0  0.75041  0.65293  0.26425  1.0000
  H   H2480     1.0  0.79774  0.55419  0.38160  1.0000
  H   H2481     1.0  0.82508  0.55316  0.34563  1.0000
  H   H2482     1.0  0.84836  0.61043  0.35464  1.0000
  C   C3091     1.0  0.97808  0.47978  0.36666  1.0000
  C   C3092     1.0  0.88164  0.33553  0.20346  1.0000
  H   H2483     1.0  0.80524  0.56885  0.42773  1.0000
  H   H2484     1.0  0.91155  0.58202  0.33513  1.0000
  S   S407      1.0  0.95871  0.44745  0.28221  1.0000
  Fe  Fe202     1.0  0.95182  0.55785  0.43755  1.0000
  S   S408      1.0  0.95501  0.59966  0.29347  1.0000
  C   C3093     1.0  0.88678  0.44539  0.12558  1.0000
  C   C3094     1.0  0.92538  0.41993  0.11915  1.0000
  Fe  Fe203     1.0  0.90907  0.56234  0.46609  1.0000
  S   S409      1.0  0.87491  0.54336  0.00106  1.0000
  H   H2485     1.0  0.92653  0.57829  0.11967  1.0000
  H   H2486     1.0  0.82412  0.36345  0.26134  1.0000
  C   C3095     1.0  0.85104  0.47772  0.22102  1.0000
  C   C3096     1.0  0.86096  0.34063  0.10617  1.0000
  H   H2487     1.0  0.80019  0.35030  0.16436  1.0000
  C   C3097     1.0  0.93479  0.46958  0.06160  1.0000
  C   C3098     1.0  0.94267  0.57624  0.11194  1.0000
  C   C3099     1.0  0.98838  0.41955  0.44866  1.0000
  C   C3100     1.0  0.97487  0.63167  0.43091  1.0000
  C   C3101     1.0  0.96208  0.55725  0.36971  1.0000
  H   H2488     1.0  0.96030  0.32809  0.32988  1.0000
  H   H2489     1.0  0.96780  0.49233  0.40572  1.0000
  H   H2490     1.0  0.83906  0.50895  0.20736  1.0000
  C   C3102     1.0  0.97154  0.52978  0.15955  1.0000
  H   H2491     1.0  0.90421  0.50346  0.00213  1.0000
  C   C3103     1.0  0.87269  0.63202  0.35020  1.0000
  C   C3104     1.0  0.97295  0.43952  0.38831  1.0000
  C   C3105     1.0  0.86325  0.48585  0.10999  1.0000
  C   C3106     1.0  0.83472  0.44910  0.08760  1.0000
  C   C3107     1.0  0.94452  0.63370  0.08842  1.0000
  S   S410      1.0  0.97395  0.55375  0.04281  1.0000
  S   S411      1.0  0.97081  0.33680  0.26411  1.0000
  H   H2492     1.0  0.86378  0.36297  0.26197  1.0000
  C   C3108     1.0  0.87479  0.64947  0.18510  1.0000
  C   C3109     1.0  0.98956  0.48396  0.45647  1.0000
  C   C3110     1.0  0.89414  0.63417  0.34447  1.0000
  C   C3111     1.0  0.95959  0.58279  0.12800  1.0000
  C   C3112     1.0  0.94137  0.48362  0.04196  1.0000
  C   C3113     1.0  0.89125  0.43445  0.10084  1.0000
  H   H2493     1.0  0.80008  0.41055  0.08216  1.0000
  H   H2494     1.0  0.89978  0.45298  0.16551  1.0000
  C   C3114     1.0  0.92124  0.43109  0.14362  1.0000
  C   C3115     1.0  0.97786  0.43473  0.15592  1.0000
  H   H2495     1.0  0.86124  0.34679  0.36419  1.0000
  H   H2496     1.0  0.98445  0.55650  0.17945  1.0000
  C   C3116     1.0  0.85600  0.46757  0.16512  1.0000
  S   S412      1.0  0.96777  0.57779  0.46897  1.0000
  C   C3117     1.0  0.91054  0.42187  0.09767  1.0000
  H   H2497     1.0  0.98945  0.32413  0.13340  1.0000
  H   H2498     1.0  0.95652  0.60871  0.06072  1.0000
  H   H2499     1.0  0.97305  0.45195  0.11833  1.0000
  C   C3118     1.0  0.97488  0.51342  0.13993  1.0000
  S   S413      1.0  0.92279  0.58076  0.43200  1.0000
  H   H2500     1.0  0.78714  0.64316  0.31537  1.0000
  C   C3119     1.0  0.83214  0.43081  0.13073  1.0000
  H   H2501     1.0  0.95370  0.64308  0.17775  1.0000
  C   C3120     1.0  0.90800  0.61608  0.33918  1.0000
  H   H2502     1.0  0.93308  0.63790  0.40160  1.0000
  H   H2503     1.0  0.88195  0.34755  0.18773  1.0000
  C   C3121     1.0  0.76053  0.64322  0.28716  1.0000
  C   C3122     1.0  0.97991  0.44142  0.36133  1.0000
  C   C3123     1.0  0.82827  0.35667  0.18818  1.0000
  C   C3124     1.0  0.80815  0.36204  0.17611  1.0000
  C   C3125     1.0  0.79821  0.38268  0.17886  1.0000
  C   C3126     1.0  0.80833  0.39818  0.19347  1.0000
  C   C3127     1.0  0.82832  0.39296  0.20557  1.0000
  C   C3128     1.0  0.83818  0.37227  0.20311  1.0000
  C   C3129     1.0  0.94817  0.48978  0.27061  1.0000
  C   C3130     1.0  0.84455  0.49845  0.10267  1.0000
  C   C3131     1.0  0.87146  0.51606  0.00722  1.0000
  C   C3132     1.0  0.84729  0.48792  0.17330  1.0000
  C   C3133     1.0  0.95262  0.50085  0.05005  1.0000
  H   H2504     1.0  0.93986  0.40941  0.11696  1.0000
  C   C3134     1.0  0.86113  0.45209  0.18527  1.0000
  Fe  Fe204     1.0  0.88868  0.37191  0.99708  1.0000
  H   H2505     1.0  0.92460  0.61775  0.33466  1.0000
  H   H2506     1.0  0.93424  0.36427  0.14528  1.0000
  C   C3135     1.0  0.96202  0.64530  0.44784  1.0000
  C   C3136     1.0  0.96995  0.47567  0.46184  1.0000
  C   C3137     1.0  0.84651  0.48965  0.01712  1.0000
  H   H2507     1.0  0.93749  0.48137  0.02051  1.0000
  H   H2508     1.0  0.78269  0.38666  0.16944  1.0000
  H   H2509     1.0  0.80074  0.41423  0.19531  1.0000
  H   H2510     1.0  0.83642  0.40495  0.21663  1.0000
  H   H2511     1.0  0.85358  0.36872  0.21270  1.0000
  H   H2512     1.0  0.83444  0.32478  0.06749  1.0000
  C   C3138     1.0  0.96329  0.57928  0.37180  1.0000
  H   H2513     1.0  0.83694  0.42809  0.15178  1.0000
  Fe  Fe205     1.0  0.93790  0.59995  0.46492  1.0000
  S   S414      1.0  0.95571  0.59589  0.15997  1.0000
  S   S415      1.0  0.91559  0.36456  0.27387  1.0000
  H   H2514     1.0  0.81105  0.40550  0.13075  1.0000
  C   C3139     1.0  0.84090  0.44658  0.11518  1.0000
  H   H2515     1.0  0.87985  0.43551  0.08400  1.0000
  C   C3140     1.0  0.94664  0.56769  0.08537  1.0000
  C   C3141     1.0  0.98243  0.46154  0.35049  1.0000
  H   H2516     1.0  0.84184  0.46043  0.07470  1.0000
  H   H2517     1.0  0.89772  0.48251  0.10631  1.0000
  H   H2518     1.0  0.96524  0.51811  0.08349  1.0000
  H   H2519     1.0  0.84486  0.35355  0.40959  1.0000
  C   C3142     1.0  0.88816  0.49964  0.00648  1.0000
  Fe  Fe206     1.0  0.93588  0.58938  0.25706  1.0000
  H   H2520     1.0  0.84318  0.50024  0.15841  1.0000
  C   C3143     1.0  0.95731  0.50410  0.07774  1.0000
  C   C3144     1.0  0.89971  0.33110  0.21994  1.0000
  H   H2521     1.0  0.88504  0.33889  0.29295  1.0000
  S   S416      1.0  0.94545  0.56323  0.22694  1.0000
  H   H2522     1.0  0.86637  0.53579  0.06399  1.0000
  C   C3145     1.0  0.85723  0.33341  0.37650  1.0000
  C   C3146     1.0  0.97137  0.47792  0.39371  1.0000
  H   H2523     1.0  0.75388  0.62981  0.29672  1.0000
  H   H2524     1.0  0.89952  0.33415  0.36963  1.0000
  C   C3147     1.0  0.90653  0.65228  0.27544  1.0000
  C   C3148     1.0  0.96283  0.47160  0.15329  1.0000
  C   C3149     1.0  0.97134  0.45277  0.14036  1.0000
  P   P107      1.0  0.95473  0.49520  0.13364  1.0000
  C   C3150     1.0  0.92901  0.50751  0.14365  1.0000
  C   C3151     1.0  0.95040  0.62527  0.06275  1.0000
  H   H2525     1.0  0.95741  0.51197  0.03489  1.0000
  H   H2526     1.0  0.90339  0.63609  0.27006  1.0000
  Fe  Fe207     1.0  0.95089  0.36802  0.27284  1.0000
  H   H2527     1.0  0.80604  0.33991  0.29270  1.0000
  H   H2528     1.0  0.97025  0.42388  0.39599  1.0000
  C   C3152     1.0  0.92155  0.52708  0.13200  1.0000
  C   C3153     1.0  0.90166  0.53705  0.13937  1.0000
  C   C3154     1.0  0.88903  0.52742  0.15826  1.0000
  C   C3155     1.0  0.89621  0.50772  0.16946  1.0000
  C   C3156     1.0  0.91605  0.49773  0.16216  1.0000
  C   C3157     1.0  0.95117  0.48981  0.09757  1.0000
  C   C3158     1.0  0.93964  0.47269  0.08929  1.0000
  C   C3159     1.0  0.95785  0.58294  0.32243  1.0000
  H   H2529     1.0  0.93690  0.34248  0.36751  1.0000
  H   H2530     1.0  0.98407  0.42014  0.14583  1.0000
  C   C3160     1.0  0.82335  0.33946  0.29256  1.0000
  H   H2531     1.0  0.96787  0.45511  0.21974  1.0000
  C   C3161     1.0  0.88388  0.47814  0.01096  1.0000
  H   H2532     1.0  0.95358  0.55377  0.30053  1.0000
  S   S417      1.0  0.93717  0.53846  0.46964  1.0000
  H   H2533     1.0  0.83772  0.52325  0.01322  1.0000
  C   C3162     1.0  0.95850  0.48249  0.48537  1.0000
  H   H2534     1.0  0.90212  0.51233  0.48637  1.0000
  C   C3163     1.0  0.95737  0.42324  0.47804  1.0000
  H   H2535     1.0  0.93120  0.53463  0.11729  1.0000
  H   H2536     1.0  0.89617  0.55234  0.13063  1.0000
  H   H2537     1.0  0.87388  0.53538  0.16461  1.0000
  H   H2538     1.0  0.88686  0.50055  0.18479  1.0000
  H   H2539     1.0  0.92118  0.48261  0.17137  1.0000
  H   H2540     1.0  0.93388  0.46210  0.10433  1.0000
  C   C3164     1.0  0.93068  0.33213  0.35213  1.0000
  H   H2541     1.0  0.93256  0.42939  0.16047  1.0000
  H   H2542     1.0  0.85015  0.48193  0.24258  1.0000
  H   H2543     1.0  0.95004  0.32789  0.13010  1.0000
  C   C3165     1.0  0.91341  0.37909  0.17607  1.0000
  C   C3166     1.0  0.98028  0.58088  0.11733  1.0000
  C   C3167     1.0  0.96185  0.59194  0.34815  1.0000
  C   C3168     1.0  0.84824  0.52266  0.48247  1.0000
  C   C3169     1.0  0.98601  0.62084  0.21733  1.0000
  C   C3170     1.0  0.97632  0.43550  0.18448  1.0000
  C   C3171     1.0  0.90938  0.32723  0.35328  1.0000
  C   C3172     1.0  0.93646  0.65501  0.09094  1.0000
  S   S418      1.0  0.85584  0.38877  0.99320  1.0000
  H   H2544     1.0  0.94284  0.43203  0.48513  1.0000
  C   C3173     1.0  0.83548  0.32585  0.31038  1.0000
  C   C3174     1.0  0.94390  0.32396  0.33101  1.0000
  C   C3175     1.0  0.98917  0.59984  0.22663  1.0000
  C   C3176     1.0  0.98433  0.57170  0.09148  1.0000
  H   H2545     1.0  0.97867  0.59424  0.24202  1.0000
  C   C3177     1.0  0.86335  0.32451  0.20705  1.0000
  H   H2546     1.0  0.94352  0.47607  0.49025  1.0000
  H   H2547     1.0  0.80971  0.65132  0.17089  1.0000
  H   H2548     1.0  0.94935  0.64378  0.35692  1.0000
  C   C3178     1.0  0.85791  0.32511  0.31031  1.0000
  C   C3179     1.0  0.88537  0.50997  0.48825  1.0000
  C   C3180     1.0  0.98325  0.39269  0.48276  1.0000
  C   C3181     1.0  0.98745  0.54349  0.16493  1.0000
  C   C3182     1.0  0.93151  0.65368  0.39261  1.0000
  H   H2549     1.0  0.93475  0.64256  0.29866  1.0000
  H   H2550     1.0  0.90000  0.64984  0.34406  1.0000
  H   H2551     1.0  0.83502  0.32350  0.43791  1.0000
  H   H2552     1.0  0.98955  0.62488  0.14264  1.0000
  C   C3183     1.0  0.96435  0.40418  0.49104  1.0000
  C   C3184     1.0  0.97740  0.65284  0.29182  1.0000
  C   C3185     1.0  0.87495  0.32264  0.10099  1.0000
  C   C3186     1.0  0.95781  0.32218  0.14892  1.0000
  C   C3187     1.0  0.78983  0.39477  0.81670  1.0000
  S   S419      1.0  0.88349  0.55991  0.76574  1.0000
  S   S420      1.0  0.87691  0.55822  0.69894  1.0000
  Fe  Fe208     1.0  0.87206  0.58262  0.73235  1.0000
  S   S421      1.0  0.84236  0.60566  0.73585  1.0000
  Fe  Fe209     1.0  0.89145  0.53639  0.73171  1.0000
  S   S422      1.0  0.88024  0.50321  0.73561  1.0000
  H   H2553     1.0  0.91779  0.50245  0.88838  1.0000
  S   S423      1.0  0.90120  0.38775  0.76993  1.0000
  H   H2554     1.0  0.77078  0.61405  0.70362  1.0000
  Fe  Fe210     1.0  0.90896  0.36611  0.80549  1.0000
  S   S424      1.0  0.88456  0.37117  0.83917  1.0000
  Fe  Fe211     1.0  0.91051  0.35952  0.74315  1.0000
  S   S425      1.0  0.89073  0.35041  0.70658  1.0000
  H   H2555     1.0  0.89915  0.44888  0.61347  1.0000
  C   C3188     1.0  0.79791  0.41454  0.82121  1.0000
  Fe  Fe212     1.0  0.88879  0.39918  0.56023  1.0000
  S   S426      1.0  0.85453  0.41261  0.55844  1.0000
  S   S427      1.0  0.91082  0.39810  0.59694  1.0000
  H   H2556     1.0  0.89647  0.41917  0.85647  1.0000
  H   H2557     1.0  0.78689  0.63283  0.66549  1.0000
  S   S428      1.0  0.91031  0.35734  0.96379  1.0000
  Fe  Fe213     1.0  0.86397  0.42990  0.52074  1.0000
  H   H2558     1.0  0.92666  0.35411  0.59210  1.0000
  Fe  Fe214     1.0  0.85007  0.38477  0.53044  1.0000
  S   S429      1.0  0.81901  0.36850  0.53035  1.0000
  S   S430      1.0  0.89867  0.41904  0.52520  1.0000
  S   S431      1.0  0.88388  0.37011  0.53479  1.0000
  H   H2559     1.0  0.97162  0.47063  0.80692  1.0000
  H   H2560     1.0  0.80917  0.47114  0.56791  1.0000
  C   C3189     1.0  0.97805  0.34759  0.68765  1.0000
  H   H2561     1.0  0.87049  0.51196  0.95079  1.0000
  S   S432      1.0  0.96085  0.57519  0.96780  1.0000
  C   C3190     1.0  0.95897  0.60413  0.70765  1.0000
  C   C3191     1.0  0.94356  0.54721  0.87483  1.0000
  H   H2562     1.0  0.93498  0.40610  0.95414  1.0000
  H   H2563     1.0  0.86396  0.47368  0.94848  1.0000
  C   C3192     1.0  0.90506  0.38400  0.62662  1.0000
  C   C3193     1.0  0.91905  0.38442  0.64903  1.0000
  C   C3194     1.0  0.91468  0.37423  0.67353  1.0000
  C   C3195     1.0  0.89639  0.36324  0.67575  1.0000
  C   C3196     1.0  0.88256  0.36237  0.65308  1.0000
  C   C3197     1.0  0.88705  0.37248  0.62840  1.0000
  H   H2564     1.0  0.93315  0.39309  0.64765  1.0000
  H   H2565     1.0  0.86830  0.35398  0.65462  1.0000
  H   H2566     1.0  0.87650  0.37158  0.61091  1.0000
  C   C3198     1.0  0.89358  0.36917  0.87341  1.0000
  C   C3199     1.0  0.91098  0.35501  0.88079  1.0000
  C   C3200     1.0  0.91594  0.35149  0.90861  1.0000
  C   C3201     1.0  0.90390  0.36254  0.92913  1.0000
  C   C3202     1.0  0.88708  0.37739  0.92168  1.0000
  C   C3203     1.0  0.88202  0.38074  0.89387  1.0000
  H   H2567     1.0  0.92026  0.34638  0.86511  1.0000
  C   C3204     1.0  0.97587  0.62668  0.81427  1.0000
  H   H2568     1.0  0.87793  0.38622  0.93733  1.0000
  H   H2569     1.0  0.86901  0.39223  0.88827  1.0000
  C   C3205     1.0  0.89927  0.48200  0.74422  1.0000
  C   C3206     1.0  0.89334  0.46105  0.74285  1.0000
  C   C3207     1.0  0.90801  0.44379  0.74976  1.0000
  C   C3208     1.0  0.91352  0.49565  0.67875  1.0000
  H   H2570     1.0  0.87731  0.45811  0.73667  1.0000
  H   H2571     1.0  0.90324  0.42782  0.74845  1.0000
  C   C3209     1.0  0.76271  0.62865  0.69569  1.0000
  C   C3210     1.0  0.98578  0.64046  0.93079  1.0000
  C   C3211     1.0  0.78890  0.34286  0.54795  1.0000
  C   C3212     1.0  0.81028  0.34761  0.55059  1.0000
  Fe  Fe215     1.0  0.94925  0.56125  0.50079  1.0000
  H   H2572     1.0  0.92158  0.44066  0.93452  1.0000
  H   H2573     1.0  0.98858  0.37786  0.49277  1.0000
  H   H2574     1.0  0.77821  0.35224  0.53433  1.0000
  H   H2575     1.0  0.98677  0.33830  0.82434  1.0000
  C   C3213     1.0  0.74331  0.63698  0.70702  1.0000
  H   H2576     1.0  0.84045  0.33868  0.57029  1.0000
  H   H2577     1.0  0.92867  0.44047  0.64659  1.0000
  H   H2578     1.0  0.97423  0.37616  0.66349  1.0000
  C   C3214     1.0  0.84083  0.62728  0.71292  1.0000
  C   C3215     1.0  0.85628  0.62858  0.69271  1.0000
  C   C3216     1.0  0.99064  0.59378  0.73449  1.0000
  C   C3217     1.0  0.93014  0.57303  0.62324  1.0000
  H   H2579     1.0  0.86917  0.61613  0.69079  1.0000
  H   H2580     1.0  0.81174  0.64228  0.73011  1.0000
  C   C3218     1.0  0.91672  0.62033  0.88688  1.0000
  H   H2581     1.0  0.82462  0.43087  0.83606  1.0000
  H   H2582     1.0  0.92544  0.37508  0.69070  1.0000
  S   S433      1.0  0.94746  0.42582  0.76731  1.0000
  H   H2583     1.0  0.92191  0.63887  0.63968  1.0000
  S   S434      1.0  0.94498  0.36596  0.74146  1.0000
  C   C3219     1.0  0.81214  0.32983  0.80999  1.0000
  C   C3220     1.0  0.80221  0.37580  0.82325  1.0000
  Fe  Fe216     1.0  0.94080  0.55229  0.94595  1.0000
  C   C3221     1.0  0.81835  0.41556  0.83242  1.0000
  S   S435      1.0  0.91476  0.33710  0.77861  1.0000
  S   S436      1.0  0.91030  0.57345  0.94853  1.0000
  C   C3222     1.0  0.92561  0.58399  0.59866  1.0000
  H   H2584     1.0  0.93142  0.58539  0.55524  1.0000
  S   S437      1.0  0.90405  0.59482  0.72708  1.0000
  H   H2585     1.0  0.93028  0.37294  0.54847  1.0000
  C   C3223     1.0  0.87898  0.43044  0.82087  1.0000
  S   S438      1.0  0.94358  0.37251  0.80838  1.0000
  C   C3224     1.0  0.82794  0.56905  0.65957  1.0000
  C   C3225     1.0  0.83654  0.58842  0.65481  1.0000
  C   C3226     1.0  0.85457  0.58901  0.63832  1.0000
  C   C3227     1.0  0.86366  0.57032  0.62594  1.0000
  C   C3228     1.0  0.85447  0.55096  0.62957  1.0000
  C   C3229     1.0  0.83705  0.55033  0.64728  1.0000
  P   P108      1.0  0.86667  0.52661  0.61477  1.0000
  C   C3230     1.0  0.88152  0.53219  0.58469  1.0000
  C   C3231     1.0  0.88452  0.51458  0.64038  1.0000
  C   C3232     1.0  0.87995  0.49597  0.65387  1.0000
  C   C3233     1.0  0.93491  0.57661  0.57384  1.0000
  C   C3234     1.0  0.93898  0.56794  0.82368  1.0000
  C   C3235     1.0  0.91788  0.51449  0.66587  1.0000
  C   C3236     1.0  0.90326  0.52411  0.64707  1.0000
  C   C3237     1.0  0.91258  0.52505  0.55582  1.0000
  C   C3238     1.0  0.90146  0.52107  0.57957  1.0000
  C   C3239     1.0  0.84773  0.50875  0.60229  1.0000
  C   C3240     1.0  0.82629  0.51601  0.59720  1.0000
  C   C3241     1.0  0.81230  0.50234  0.58537  1.0000
  C   C3242     1.0  0.81972  0.48152  0.57804  1.0000
  C   C3243     1.0  0.84110  0.47436  0.58257  1.0000
  C   C3244     1.0  0.85510  0.48792  0.59445  1.0000
  H   H2586     1.0  0.81461  0.56852  0.67341  1.0000
  H   H2587     1.0  0.82961  0.60285  0.66460  1.0000
  H   H2588     1.0  0.86190  0.60384  0.63575  1.0000
  H   H2589     1.0  0.87814  0.57097  0.61414  1.0000
  H   H2590     1.0  0.83078  0.53532  0.65189  1.0000
  H   H2591     1.0  0.86527  0.48872  0.64981  1.0000
  H   H2592     1.0  0.94098  0.63300  0.72018  1.0000
  H   H2593     1.0  0.90656  0.53891  0.63755  1.0000
  H   H2594     1.0  0.92816  0.51682  0.55215  1.0000
  H   H2595     1.0  0.90848  0.50927  0.59372  1.0000
  H   H2596     1.0  0.82050  0.53237  0.60140  1.0000
  H   H2597     1.0  0.79588  0.50808  0.58102  1.0000
  H   H2598     1.0  0.84705  0.45857  0.57570  1.0000
  H   H2599     1.0  0.87183  0.48238  0.59669  1.0000
  C   C3245     1.0  0.88646  0.56253  0.84839  1.0000
  C   C3246     1.0  0.87813  0.55047  0.86899  1.0000
  H   H2600     1.0  0.94816  0.57816  0.89149  1.0000
  H   H2601     1.0  0.95518  0.35767  0.51296  1.0000
  C   C3247     1.0  0.87472  0.59518  0.87280  1.0000
  C   C3248     1.0  0.88519  0.58476  0.85052  1.0000
  P   P109      1.0  0.87315  0.62395  0.87528  1.0000
  C   C3249     1.0  0.92785  0.42806  0.92091  1.0000
  C   C3250     1.0  0.90006  0.63165  0.87242  1.0000
  H   H2602     1.0  0.93448  0.53689  0.80692  1.0000
  S   S439      1.0  0.94737  0.53375  0.90643  1.0000
  Fe  Fe217     1.0  0.91615  0.57014  0.75768  1.0000
  H   H2603     1.0  0.85050  0.35050  0.88454  1.0000
  H   H2604     1.0  0.91255  0.54289  0.51864  1.0000
  H   H2605     1.0  0.83474  0.62795  0.78589  1.0000
  C   C3251     1.0  0.77182  0.63921  0.67420  1.0000
  Fe  Fe218     1.0  0.93003  0.59571  0.97240  1.0000
  C   C3252     1.0  0.84020  0.63354  0.91246  1.0000
  H   H2606     1.0  0.79549  0.36449  0.87637  1.0000
  H   H2607     1.0  0.80647  0.32756  0.49515  1.0000
  C   C3253     1.0  0.85622  0.63681  0.84895  1.0000
  C   C3254     1.0  0.98706  0.62338  0.83896  1.0000
  C   C3255     1.0  0.89121  0.64902  0.59303  1.0000
  C   C3256     1.0  0.77394  0.34735  0.89966  1.0000
  H   H2608     1.0  0.89423  0.55463  0.83091  1.0000
  C   C3257     1.0  0.87255  0.54671  0.56524  1.0000
  H   H2609     1.0  0.89253  0.59374  0.83481  1.0000
  H   H2610     1.0  0.84437  0.33377  0.50342  1.0000
  C   C3258     1.0  0.93735  0.54596  0.82530  1.0000
  C   C3259     1.0  0.93482  0.46823  0.75907  1.0000
  H   H2611     1.0  0.91371  0.60667  0.89922  1.0000
  C   C3260     1.0  0.92826  0.43106  0.89242  1.0000
  H   H2612     1.0  0.98493  0.35539  0.70510  1.0000
  C   C3261     1.0  0.98541  0.50654  0.49681  1.0000
  H   H2613     1.0  0.93305  0.63252  0.53700  1.0000
  C   C3262     1.0  0.96812  0.62574  0.74679  1.0000
  C   C3263     1.0  0.91024  0.64153  0.68072  1.0000
  H   H2614     1.0  0.85667  0.60942  0.82153  1.0000
  C   C3264     1.0  0.83873  0.33402  0.91946  1.0000
  C   C3265     1.0  0.89935  0.64201  0.77984  1.0000
  H   H2615     1.0  0.82934  0.35056  0.78452  1.0000
  C   C3266     1.0  0.90335  0.47389  0.90061  1.0000
  H   H2616     1.0  0.94841  0.60116  0.69065  1.0000
  C   C3267     1.0  0.89441  0.48661  0.67305  1.0000
  H   H2617     1.0  0.93245  0.52178  0.67076  1.0000
  Fe  Fe219     1.0  0.94908  0.34501  0.77852  1.0000
  C   C3268     1.0  0.91242  0.43796  0.65215  1.0000
  H   H2618     1.0  0.95796  0.35890  0.62418  1.0000
  H   H2619     1.0  0.87691  0.56179  0.52636  1.0000
  Fe  Fe220     1.0  0.89133  0.39094  0.49937  1.0000
  H   H2620     1.0  0.90055  0.48534  0.83572  1.0000
  C   C3269     1.0  0.87946  0.50137  0.93665  1.0000
  C   C3270     1.0  0.94587  0.39536  0.88709  1.0000
  H   H2621     1.0  0.85686  0.55485  0.56834  1.0000
  H   H2622     1.0  0.77385  0.39439  0.80836  1.0000
  S   S440      1.0  0.93524  0.53426  0.98460  1.0000
  C   C3271     1.0  0.83073  0.39679  0.83901  1.0000
  H   H2623     1.0  0.92486  0.50166  0.75344  1.0000
  C   C3272     1.0  0.96279  0.34936  0.64186  1.0000
  C   C3273     1.0  0.86239  0.63235  0.90828  1.0000
  S   S441      1.0  0.93671  0.58163  0.79216  1.0000
  P   P110      1.0  0.91849  0.45612  0.87724  1.0000
  C   C3274     1.0  0.94838  0.46444  0.83741  1.0000
  H   H2624     1.0  0.87968  0.53322  0.86757  1.0000
  C   C3275     1.0  0.93818  0.34762  0.57723  1.0000
  C   C3276     1.0  0.88749  0.46614  0.91705  1.0000
  C   C3277     1.0  0.85742  0.48694  0.50026  1.0000
  C   C3278     1.0  0.83094  0.37177  0.91003  1.0000
  C   C3279     1.0  0.81929  0.37433  0.93425  1.0000
  C   C3280     1.0  0.97677  0.58986  0.71286  1.0000
  C   C3281     1.0  0.97317  0.48699  0.87341  1.0000
  H   H2625     1.0  0.92734  0.62181  0.76943  1.0000
  C   C3282     1.0  0.95085  0.32867  0.58270  1.0000
  S   S442      1.0  0.92028  0.58451  0.49842  1.0000
  C   C3283     1.0  0.89483  0.50929  0.91991  1.0000
  C   C3284     1.0  0.97905  0.48450  0.84596  1.0000
  H   H2626     1.0  0.92464  0.48837  0.69373  1.0000
  H   H2627     1.0  0.78824  0.42911  0.81621  1.0000
  H   H2628     1.0  0.86336  0.44585  0.78595  1.0000
  C   C3285     1.0  0.92877  0.44727  0.75812  1.0000
  H   H2629     1.0  0.83282  0.38548  0.89733  1.0000
  H   H2630     1.0  0.81222  0.38995  0.94032  1.0000
  H   H2631     1.0  0.97820  0.32441  0.52240  1.0000
  P   P111      1.0  0.96281  0.64946  0.76756  1.0000
  H   H2632     1.0  0.84656  0.39763  0.84767  1.0000
  H   H2633     1.0  0.82952  0.62962  0.89599  1.0000
  H   H2634     1.0  0.89065  0.47260  0.68405  1.0000
  Fe  Fe221     1.0  0.90979  0.56934  0.69473  1.0000
  H   H2635     1.0  0.88433  0.44950  0.91603  1.0000
  C   C3286     1.0  0.89237  0.43283  0.84353  1.0000
  Fe  Fe222     1.0  0.93603  0.39276  0.77100  1.0000
  C   C3287     1.0  0.94909  0.55824  0.57328  1.0000
  C   C3288     1.0  0.82276  0.37697  0.83446  1.0000
  C   C3289     1.0  0.87324  0.44780  0.80389  1.0000
  C   C3290     1.0  0.90384  0.53992  0.53695  1.0000
  C   C3291     1.0  0.97463  0.32600  0.68895  1.0000
  H   H2636     1.0  0.95098  0.37726  0.92425  1.0000
  C   C3292     1.0  0.95475  0.62207  0.72444  1.0000
  H   H2637     1.0  0.94468  0.59631  0.84624  1.0000
  H   H2638     1.0  0.80860  0.35889  0.97020  1.0000
  C   C3293     1.0  0.77159  0.35243  0.79151  1.0000
  C   C3294     1.0  0.94005  0.35821  0.55239  1.0000
  C   C3295     1.0  0.90256  0.62693  0.55415  1.0000
  C   C3296     1.0  0.92128  0.63733  0.55255  1.0000
  C   C3297     1.0  0.78117  0.32597  0.56254  1.0000
  H   H2639     1.0  0.76723  0.34770  0.72197  1.0000
  H   H2640     1.0  0.83264  0.36264  0.83989  1.0000
  C   C3298     1.0  0.94441  0.55469  0.62284  1.0000
  C   C3299     1.0  0.83856  0.63645  0.80445  1.0000
  C   C3300     1.0  0.90052  0.45256  0.84888  1.0000
  H   H2641     1.0  0.74496  0.36241  0.81802  1.0000
  H   H2642     1.0  0.89118  0.47786  0.50431  1.0000
  C   C3301     1.0  0.82395  0.33522  0.56814  1.0000
  C   C3302     1.0  0.97208  0.35927  0.66418  1.0000
  C   C3303     1.0  0.86637  0.58292  0.89348  1.0000
  P   P112      1.0  0.79129  0.35031  0.81888  1.0000
  C   C3304     1.0  0.90642  0.49573  0.90159  1.0000
  H   H2643     1.0  0.95073  0.48023  0.90434  1.0000
  H   H2644     1.0  0.86690  0.64667  0.65892  1.0000
  H   H2645     1.0  0.95277  0.38265  0.87400  1.0000
  H   H2646     1.0  0.96724  0.61390  0.80583  1.0000
  C   C3305     1.0  0.88379  0.55066  0.54150  1.0000
  C   C3306     1.0  0.82692  0.33680  0.94377  1.0000
  H   H2647     1.0  0.75097  0.32810  0.91780  1.0000
  C   C3307     1.0  0.87576  0.47981  0.93522  1.0000
  H   H2648     1.0  0.87343  0.62411  0.57624  1.0000
  H   H2649     1.0  0.91392  0.62471  0.68462  1.0000
  C   C3308     1.0  0.96713  0.33095  0.53783  1.0000
  C   C3309     1.0  0.82879  0.38710  0.61290  1.0000
  C   C3310     1.0  0.80878  0.38107  0.62047  1.0000
  C   C3311     1.0  0.79923  0.38927  0.64450  1.0000
  C   C3312     1.0  0.80969  0.40348  0.66096  1.0000
  C   C3313     1.0  0.82983  0.40966  0.65348  1.0000
  C   C3314     1.0  0.83927  0.40140  0.62925  1.0000
  P   P113      1.0  0.84298  0.42783  0.67553  1.0000
  C   C3315     1.0  0.84217  0.41690  0.70959  1.0000
  C   C3316     1.0  0.87038  0.43050  0.66599  1.0000
  C   C3317     1.0  0.88726  0.42576  0.68465  1.0000
  C   C3318     1.0  0.90815  0.42966  0.67782  1.0000
  C   C3319     1.0  0.89573  0.44278  0.63352  1.0000
  C   C3320     1.0  0.87476  0.43935  0.64053  1.0000
  C   C3321     1.0  0.83364  0.42904  0.73182  1.0000
  C   C3322     1.0  0.83351  0.42009  0.75798  1.0000
  C   C3323     1.0  0.84185  0.39904  0.76213  1.0000
  C   C3324     1.0  0.84994  0.38679  0.74001  1.0000
  C   C3325     1.0  0.85003  0.39564  0.71385  1.0000
  C   C3326     1.0  0.83002  0.45451  0.67354  1.0000
  C   C3327     1.0  0.81237  0.45927  0.65612  1.0000
  C   C3328     1.0  0.80293  0.48018  0.65437  1.0000
  C   C3329     1.0  0.81108  0.49645  0.66985  1.0000
  C   C3330     1.0  0.82892  0.49191  0.68679  1.0000
  C   C3331     1.0  0.83841  0.47106  0.68850  1.0000
  H   H2650     1.0  0.83612  0.38062  0.59426  1.0000
  H   H2651     1.0  0.80072  0.37005  0.60764  1.0000
  H   H2652     1.0  0.78371  0.38454  0.65034  1.0000
  H   H2653     1.0  0.80211  0.40962  0.67959  1.0000
  H   H2654     1.0  0.85478  0.40568  0.62298  1.0000
  H   H2655     1.0  0.88451  0.41925  0.70461  1.0000
  H   H2656     1.0  0.91489  0.59835  0.59887  1.0000
  H   H2657     1.0  0.86198  0.44348  0.62601  1.0000
  H   H2658     1.0  0.82712  0.44534  0.72916  1.0000
  H   H2659     1.0  0.82714  0.42958  0.77510  1.0000
  H   H2660     1.0  0.84227  0.39225  0.78246  1.0000
  H   H2661     1.0  0.85661  0.37052  0.74313  1.0000
  H   H2662     1.0  0.85660  0.38599  0.69695  1.0000
  H   H2663     1.0  0.80596  0.44701  0.64364  1.0000
  H   H2664     1.0  0.78932  0.48377  0.64088  1.0000
  H   H2665     1.0  0.80365  0.51259  0.66861  1.0000
  H   H2666     1.0  0.83562  0.50452  0.69850  1.0000
  H   H2667     1.0  0.85243  0.46792  0.70140  1.0000
  H   H2668     1.0  0.92109  0.42596  0.69233  1.0000
  C   C3332     1.0  0.92009  0.48557  0.75231  1.0000
  C   C3333     1.0  0.95068  0.64360  0.95194  1.0000
  S   S443      1.0  0.92509  0.54550  0.72507  1.0000
  S   S444      1.0  0.92852  0.63184  0.96614  1.0000
  H   H2669     1.0  0.85886  0.59033  0.91142  1.0000
  C   C3334     1.0  0.95429  0.34974  0.53253  1.0000
  H   H2670     1.0  0.88378  0.32540  0.94693  1.0000
  C   C3335     1.0  0.82388  0.64332  0.71469  1.0000
  H   H2671     1.0  0.98696  0.60823  0.84939  1.0000
  H   H2672     1.0  0.95092  0.47109  0.76509  1.0000
  H   H2673     1.0  0.93866  0.41683  0.85367  1.0000
  C   C3336     1.0  0.94197  0.46753  0.86478  1.0000
  C   C3337     1.0  0.85493  0.64586  0.67459  1.0000
  H   H2674     1.0  0.85693  0.32243  0.77064  1.0000
  H   H2675     1.0  0.97982  0.57581  0.70002  1.0000
  S   S445      1.0  0.91828  0.58380  0.65381  1.0000
  C   C3338     1.0  0.93738  0.62688  0.88611  1.0000
  C   C3339     1.0  0.76258  0.35116  0.74298  1.0000
  C   C3340     1.0  0.96892  0.63109  0.94347  1.0000
  C   C3341     1.0  0.94493  0.39234  0.91538  1.0000
  H   H2676     1.0  0.95490  0.39829  0.50738  1.0000
  C   C3342     1.0  0.77875  0.34322  0.85042  1.0000
  C   C3343     1.0  0.98654  0.61183  0.75116  1.0000
  C   C3344     1.0  0.85110  0.62595  0.82485  1.0000
  H   H2677     1.0  0.95009  0.61811  0.89744  1.0000
  C   C3345     1.0  0.89443  0.46999  0.83194  1.0000
  C   C3346     1.0  0.93985  0.53561  0.85078  1.0000
  C   C3347     1.0  0.76350  0.32816  0.85009  1.0000
  H   H2678     1.0  0.79410  0.34378  0.75896  1.0000
  C   C3348     1.0  0.82867  0.33458  0.79239  1.0000
  C   C3349     1.0  0.93587  0.40863  0.93225  1.0000
  H   H2679     1.0  0.77785  0.35483  0.91889  1.0000
  H   H2680     1.0  0.89800  0.52594  0.92130  1.0000
  H   H2681     1.0  0.95729  0.50338  0.52070  1.0000
  S   S446      1.0  0.96132  0.54865  0.54230  1.0000
  H   H2682     1.0  0.95763  0.64972  0.87059  1.0000
  H   H2683     1.0  0.89986  0.61408  0.54000  1.0000
  H   H2684     1.0  0.87347  0.41497  0.81620  1.0000
  H   H2685     1.0  0.87657  0.48103  0.79619  1.0000
  C   C3350     1.0  0.86818  0.56066  0.89160  1.0000
  H   H2686     1.0  0.93893  0.51857  0.85177  1.0000
  C   C3351     1.0  0.96683  0.47298  0.82807  1.0000
  H   H2687     1.0  0.96491  0.53321  0.59783  1.0000
  C   C3352     1.0  0.84076  0.35174  0.90269  1.0000
  C   C3353     1.0  0.95382  0.54733  0.59796  1.0000
  C   C3354     1.0  0.88079  0.46761  0.80958  1.0000
  C   C3355     1.0  0.93769  0.41468  0.87565  1.0000
  H   H2688     1.0  0.86209  0.55129  0.90787  1.0000
  C   C3356     1.0  0.88761  0.63266  0.57449  1.0000
  H   H2689     1.0  0.94855  0.54643  0.64170  1.0000
  C   C3357     1.0  0.95495  0.47818  0.88294  1.0000
  C   C3358     1.0  0.94499  0.56920  0.87315  1.0000
  C   C3359     1.0  0.94307  0.57942  0.84759  1.0000
  C   C3360     1.0  0.75875  0.33238  0.89908  1.0000
  H   H2690     1.0  0.88897  0.62908  0.77877  1.0000
  H   H2691     1.0  0.93929  0.45541  0.82318  1.0000
  C   C3361     1.0  0.95947  0.32760  0.64284  1.0000
  C   C3362     1.0  0.92115  0.63791  0.77439  1.0000
  H   H2692     1.0  0.96990  0.61406  0.94596  1.0000
  C   C3363     1.0  0.81725  0.35682  0.95108  1.0000
  C   C3364     1.0  0.77773  0.34873  0.76414  1.0000
  S   S447      1.0  0.84782  0.46284  0.51175  1.0000
  H   H2693     1.0  0.89684  0.64833  0.72057  1.0000
  C   C3365     1.0  0.75014  0.35914  0.79720  1.0000
  C   C3366     1.0  0.78393  0.35276  0.87544  1.0000
  H   H2694     1.0  0.92914  0.34016  0.91426  1.0000
  C   C3367     1.0  0.97616  0.64614  0.80039  1.0000
  C   C3368     1.0  0.84211  0.50335  0.49260  1.0000
  C   C3369     1.0  0.91444  0.64960  0.65497  1.0000
  C   C3370     1.0  0.87918  0.49035  0.49834  1.0000
  C   C3371     1.0  0.92486  0.65385  0.57094  1.0000
  C   C3372     1.0  0.96627  0.49784  0.50278  1.0000
  H   H2695     1.0  0.82565  0.32362  0.95758  1.0000
  C   C3373     1.0  0.90461  0.64903  0.85623  1.0000
  Fe  Fe223     1.0  0.90586  0.55654  0.98841  1.0000
  H   H2696     1.0  0.98247  0.49612  0.88730  1.0000
  C   C3374     1.0  0.75350  0.32288  0.87428  1.0000
  C   C3375     1.0  0.90067  0.65488  0.70093  1.0000
  H   H2697     1.0  0.76473  0.32244  0.55990  1.0000
  H   H2698     1.0  0.81458  0.64023  0.94126  1.0000
  H   H2699     1.0  0.99110  0.51880  0.51005  1.0000
  C   C3376     1.0  0.87587  0.63707  0.93020  1.0000
  C   C3377     1.0  0.94168  0.64448  0.87057  1.0000
  H   H2700     1.0  0.89302  0.63615  0.92793  1.0000
  S   S448      1.0  0.85712  0.40301  0.49236  1.0000
  C   C3378     1.0  0.83169  0.63945  0.93809  1.0000
  C   C3379     1.0  0.93473  0.65447  0.77530  1.0000
  H   H2701     1.0  0.87979  0.65260  0.60928  1.0000
  C   C3380     1.0  0.86734  0.64282  0.95582  1.0000
  H   H2702     1.0  0.82530  0.50103  0.49431  1.0000
  C   C3381     1.0  0.84526  0.64405  0.95978  1.0000
  H   H2703     1.0  0.87802  0.64601  0.97268  1.0000
  C   C3382     1.0  0.92543  0.65522  0.85507  1.0000
  H   H2704     1.0  0.83872  0.64837  0.97974  1.0000
  C   C3383     1.0  0.80604  0.93250  0.08532  1.0000
  S   S449      1.0  0.77543  0.77056  0.12896  1.0000
  H   H2705     1.0  0.77675  0.82351  0.16438  1.0000
  Fe  Fe224     1.0  0.82100  0.72599  0.14345  1.0000
  S   S450      1.0  0.82617  0.76085  0.14404  1.0000
  H   H2706     1.0  0.80280  0.67340  0.29298  1.0000
  Fe  Fe225     1.0  0.79531  0.76509  0.16719  1.0000
  S   S451      1.0  0.78952  0.78940  0.20151  1.0000
  Fe  Fe226     1.0  0.80595  0.76295  0.10587  1.0000
  S   S452      1.0  0.81689  0.78134  0.06957  1.0000
  S   S453      1.0  0.79145  0.72995  0.16940  1.0000
  S   S454      1.0  0.80271  0.72783  0.10357  1.0000
  Fe  Fe227     1.0  0.78726  0.77114  0.42480  1.0000
  H   H2707     1.0  0.92848  0.73446  0.46163  1.0000
  C   C3384     1.0  0.77579  0.84907  0.13520  1.0000
  Fe  Fe228     1.0  0.78233  0.77618  0.36238  1.0000
  C   C3385     1.0  0.83993  0.68005  0.19166  1.0000
  S   S455      1.0  0.79271  0.75705  0.32442  1.0000
  Fe  Fe229     1.0  0.78019  0.81490  0.39982  1.0000
  S   S456      1.0  0.78658  0.84964  0.40429  1.0000
  H   H2708     1.0  0.74435  0.80721  0.17404  1.0000
  S   S457      1.0  0.80553  0.78795  0.39330  1.0000
  H   H2709     1.0  0.87873  0.74543  0.49134  1.0000
  H   H2710     1.0  0.82646  0.69179  0.19425  1.0000
  H   H2711     1.0  0.92327  0.96287  0.41220  1.0000
  C   C3386     1.0  0.94846  0.69762  0.21577  1.0000
  C   C3387     1.0  0.87879  0.71197  0.06519  1.0000
  H   H2712     1.0  0.84620  0.72584  0.06227  1.0000
  H   H2713     1.0  0.98541  0.66724  0.35831  1.0000
  C   C3388     1.0  0.91713  0.97874  0.40613  1.0000
  S   S458      1.0  0.96549  0.82912  0.14158  1.0000
  S   S459      1.0  0.85117  0.70356  0.14707  1.0000
  Fe  Fe230     1.0  0.89356  0.96060  0.47498  1.0000
  Fe  Fe231     1.0  0.86692  0.92186  0.46741  1.0000
  S   S460      1.0  0.86755  0.88584  0.46197  1.0000
  Fe  Fe232     1.0  0.85353  0.96326  0.43890  1.0000
  C   C3389     1.0  0.93015  0.90177  0.04414  1.0000
  H   H2714     1.0  0.90473  0.75748  0.07219  1.0000
  S   S461      1.0  0.88390  0.94194  0.43811  1.0000
  H   H2715     1.0  0.95639  0.67754  0.46302  1.0000
  Fe  Fe233     1.0  0.91811  0.93012  0.21671  1.0000
  S   S462      1.0  0.88728  0.91493  0.21734  1.0000
  S   S463      1.0  0.95025  0.91091  0.21833  1.0000
  Fe  Fe234     1.0  0.87670  0.93969  0.24903  1.0000
  S   S464      1.0  0.86251  0.92692  0.28766  1.0000
  Fe  Fe235     1.0  0.87601  0.93940  0.18589  1.0000
  S   S465      1.0  0.86134  0.92527  0.14785  1.0000
  S   S466      1.0  0.90862  0.95307  0.25073  1.0000
  S   S467      1.0  0.90771  0.95321  0.18362  1.0000
  C   C3390     1.0  0.84746  0.96039  0.06675  1.0000
  C   C3391     1.0  0.84296  0.97089  0.09180  1.0000
  C   C3392     1.0  0.84830  0.96072  0.11685  1.0000
  C   C3393     1.0  0.85784  0.93980  0.11703  1.0000
  C   C3394     1.0  0.86231  0.92931  0.09198  1.0000
  C   C3395     1.0  0.85736  0.93962  0.06695  1.0000
  H   H2716     1.0  0.86924  0.91301  0.09195  1.0000
  C   C3396     1.0  0.84784  0.96402  0.36788  1.0000
  C   C3397     1.0  0.85437  0.94222  0.36812  1.0000
  C   C3398     1.0  0.85906  0.93122  0.34339  1.0000
  C   C3399     1.0  0.85758  0.94188  0.31820  1.0000
  H   H2717     1.0  0.95481  0.75425  0.02669  1.0000
  H   H2718     1.0  0.85531  0.93373  0.38732  1.0000
  H   H2719     1.0  0.86374  0.91429  0.34373  1.0000
  C   C3400     1.0  0.96125  0.85131  0.16382  1.0000
  C   C3401     1.0  0.97551  0.85501  0.18512  1.0000
  C   C3402     1.0  0.97199  0.87333  0.20173  1.0000
  C   C3403     1.0  0.95405  0.88788  0.19741  1.0000
  C   C3404     1.0  0.93954  0.88391  0.17650  1.0000
  C   C3405     1.0  0.94323  0.86577  0.15963  1.0000
  H   H2720     1.0  0.98950  0.84404  0.18841  1.0000
  H   H2721     1.0  0.83110  0.86417  0.01774  1.0000
  H   H2722     1.0  0.92578  0.89512  0.17291  1.0000
  H   H2723     1.0  0.93221  0.86307  0.14308  1.0000
  C   C3406     1.0  0.87169  0.66679  0.16705  1.0000
  H   H2724     1.0  0.78515  0.69065  0.25262  1.0000
  H   H2725     1.0  0.90139  0.94770  0.34101  1.0000
  C   C3407     1.0  0.74834  0.68483  0.36559  1.0000
  C   C3408     1.0  0.89610  0.69014  0.27431  1.0000
  H   H2726     1.0  0.95919  0.88517  0.02980  1.0000
  C   C3409     1.0  0.85943  0.78891  0.21521  1.0000
  C   C3410     1.0  0.92078  0.89806  0.47397  1.0000
  H   H2727     1.0  0.88277  0.66826  0.15044  1.0000
  H   H2728     1.0  0.76015  0.75258  0.01428  1.0000
  C   C3411     1.0  0.80915  0.85893  0.42099  1.0000
  C   C3412     1.0  0.81067  0.88100  0.42268  1.0000
  C   C3413     1.0  0.82855  0.88930  0.43489  1.0000
  C   C3414     1.0  0.84502  0.87565  0.44606  1.0000
  C   C3415     1.0  0.84359  0.85351  0.44441  1.0000
  C   C3416     1.0  0.82571  0.84513  0.43194  1.0000
  H   H2729     1.0  0.79801  0.89178  0.41417  1.0000
  H   H2730     1.0  0.82958  0.90629  0.43533  1.0000
  H   H2731     1.0  0.85641  0.84286  0.45267  1.0000
  H   H2732     1.0  0.82477  0.82807  0.43061  1.0000
  H   H2733     1.0  0.86034  0.93116  0.04783  1.0000
  C   C3417     1.0  0.79028  0.78044  0.23568  1.0000
  C   C3418     1.0  0.78507  0.79493  0.25712  1.0000
  C   C3419     1.0  0.78543  0.78802  0.28451  1.0000
  C   C3420     1.0  0.79133  0.76662  0.29055  1.0000
  C   C3421     1.0  0.79664  0.75222  0.26912  1.0000
  C   C3422     1.0  0.79583  0.75904  0.24178  1.0000
  C   C3423     1.0  0.84316  0.66281  0.20989  1.0000
  H   H2734     1.0  0.78135  0.79923  0.30094  1.0000
  H   H2735     1.0  0.80110  0.73563  0.27364  1.0000
  H   H2736     1.0  0.79946  0.74771  0.22539  1.0000
  C   C3424     1.0  0.80278  0.77708  0.03877  1.0000
  C   C3425     1.0  0.80925  0.78586  0.01411  1.0000
  C   C3426     1.0  0.80549  0.92339  0.05919  1.0000
  H   H2737     1.0  0.80034  0.78911  0.48566  1.0000
  C   C3427     1.0  0.91968  0.98680  0.30235  1.0000
  C   C3428     1.0  0.78505  0.76507  0.03866  1.0000
  H   H2738     1.0  0.82286  0.79528  0.01406  1.0000
  C   C3429     1.0  0.92756  0.69435  0.36950  1.0000
  H   H2739     1.0  0.91142  0.86893  0.49070  1.0000
  H   H2740     1.0  0.77989  0.75824  0.05750  1.0000
  C   C3430     1.0  0.89901  0.98162  0.38937  1.0000
  S   S468      1.0  0.83597  0.94258  0.46701  1.0000
  C   C3431     1.0  0.91277  0.95638  0.33016  1.0000
  C   C3432     1.0  0.91185  0.85522  0.23997  1.0000
  C   C3433     1.0  0.91992  0.87207  0.25433  1.0000
  C   C3434     1.0  0.90805  0.88227  0.27541  1.0000
  C   C3435     1.0  0.88858  0.87499  0.28312  1.0000
  C   C3436     1.0  0.88048  0.85781  0.26915  1.0000
  C   C3437     1.0  0.89195  0.84843  0.24690  1.0000
  P   P114      1.0  0.85470  0.84909  0.27784  1.0000
  C   C3438     1.0  0.84382  0.86428  0.30700  1.0000
  C   C3439     1.0  0.83746  0.85467  0.24844  1.0000
  C   C3440     1.0  0.83853  0.87381  0.23406  1.0000
  C   C3441     1.0  0.82435  0.87908  0.21247  1.0000
  C   C3442     1.0  0.80927  0.86506  0.20463  1.0000
  C   C3443     1.0  0.80862  0.84562  0.21811  1.0000
  C   C3444     1.0  0.82259  0.84043  0.23997  1.0000
  C   C3445     1.0  0.83230  0.88422  0.30339  1.0000
  C   C3446     1.0  0.82397  0.89581  0.32597  1.0000
  C   C3447     1.0  0.82702  0.88767  0.35236  1.0000
  C   C3448     1.0  0.83859  0.86797  0.35625  1.0000
  C   C3449     1.0  0.84719  0.85643  0.33375  1.0000
  C   C3450     1.0  0.85612  0.82115  0.28704  1.0000
  C   C3451     1.0  0.83831  0.81301  0.29917  1.0000
  C   C3452     1.0  0.83935  0.79186  0.30785  1.0000
  C   C3453     1.0  0.85800  0.77848  0.30415  1.0000
  C   C3454     1.0  0.87584  0.78638  0.29220  1.0000
  C   C3455     1.0  0.87502  0.80769  0.28393  1.0000
  H   H2741     1.0  0.92095  0.84779  0.22316  1.0000
  H   H2742     1.0  0.93514  0.87755  0.24872  1.0000
  H   H2743     1.0  0.91366  0.89621  0.28536  1.0000
  H   H2744     1.0  0.87970  0.88329  0.29947  1.0000
  H   H2745     1.0  0.88551  0.83589  0.23493  1.0000
  H   H2746     1.0  0.85000  0.88501  0.23998  1.0000
  H   H2747     1.0  0.82510  0.89408  0.20186  1.0000
  H   H2748     1.0  0.79828  0.86915  0.18789  1.0000
  H   H2749     1.0  0.79716  0.83457  0.21178  1.0000
  H   H2750     1.0  0.82151  0.82539  0.25017  1.0000
  H   H2751     1.0  0.83005  0.89124  0.28335  1.0000
  H   H2752     1.0  0.81555  0.91141  0.32304  1.0000
  H   H2753     1.0  0.82061  0.89678  0.36980  1.0000
  H   H2754     1.0  0.84084  0.86170  0.37679  1.0000
  H   H2755     1.0  0.85637  0.84136  0.33736  1.0000
  H   H2756     1.0  0.82368  0.82315  0.30241  1.0000
  H   H2757     1.0  0.82570  0.78589  0.31779  1.0000
  H   H2758     1.0  0.85861  0.76207  0.31090  1.0000
  H   H2759     1.0  0.89043  0.77608  0.28977  1.0000
  H   H2760     1.0  0.88929  0.81351  0.27570  1.0000
  C   C3456     1.0  0.93389  0.78637  0.24136  1.0000
  C   C3457     1.0  0.95249  0.79377  0.23085  1.0000
  C   C3458     1.0  0.95235  0.80217  0.20447  1.0000
  C   C3459     1.0  0.93380  0.80282  0.18837  1.0000
  C   C3460     1.0  0.91507  0.79525  0.19852  1.0000
  C   C3461     1.0  0.91523  0.78716  0.22536  1.0000
  P   P115      1.0  0.89111  0.79609  0.17735  1.0000
  C   C3462     1.0  0.87245  0.78019  0.19396  1.0000
  C   C3463     1.0  0.87952  0.82319  0.17272  1.0000
  C   C3464     1.0  0.89237  0.84043  0.17326  1.0000
  C   C3465     1.0  0.88334  0.86123  0.16892  1.0000
  C   C3466     1.0  0.86155  0.86498  0.16334  1.0000
  C   C3467     1.0  0.84871  0.84796  0.16226  1.0000
  C   C3468     1.0  0.85756  0.82718  0.16716  1.0000
  C   C3469     1.0  0.85995  0.74540  0.20272  1.0000
  C   C3470     1.0  0.87246  0.75837  0.18768  1.0000
  C   C3471     1.0  0.89606  0.78459  0.14365  1.0000
  C   C3472     1.0  0.91586  0.77374  0.13700  1.0000
  C   C3473     1.0  0.91904  0.76432  0.11116  1.0000
  C   C3474     1.0  0.90231  0.76505  0.09204  1.0000
  C   C3475     1.0  0.88242  0.77537  0.09866  1.0000
  C   C3476     1.0  0.87934  0.78522  0.12426  1.0000
  H   H2761     1.0  0.93402  0.77989  0.26186  1.0000
  H   H2762     1.0  0.96708  0.79291  0.24302  1.0000
  H   H2763     1.0  0.96672  0.80806  0.19635  1.0000
  H   H2764     1.0  0.93410  0.80901  0.16778  1.0000
  H   H2765     1.0  0.90115  0.78119  0.23402  1.0000
  H   H2766     1.0  0.90936  0.83810  0.17686  1.0000
  H   H2767     1.0  0.89325  0.87452  0.16968  1.0000
  H   H2768     1.0  0.85466  0.88113  0.15981  1.0000
  H   H2769     1.0  0.83184  0.85095  0.15777  1.0000
  H   H2770     1.0  0.84724  0.81425  0.16640  1.0000
  H   H2771     1.0  0.85987  0.72860  0.19758  1.0000
  H   H2772     1.0  0.88215  0.75124  0.17126  1.0000
  H   H2773     1.0  0.92882  0.77211  0.15172  1.0000
  H   H2774     1.0  0.93443  0.75609  0.10624  1.0000
  H   H2775     1.0  0.86922  0.77560  0.08411  1.0000
  H   H2776     1.0  0.86371  0.79287  0.12902  1.0000
  H   H2777     1.0  0.89886  0.91483  0.05635  1.0000
  C   C3477     1.0  0.77382  0.76193  0.01413  1.0000
  C   C3478     1.0  0.89744  0.98384  0.12073  1.0000
  C   C3479     1.0  0.95823  0.71591  0.13301  1.0000
  H   H2778     1.0  0.88291  0.81058  0.05632  1.0000
  H   H2779     1.0  0.75454  0.72406  0.31906  1.0000
  H   H2780     1.0  0.96815  0.91535  0.44439  1.0000
  C   C3480     1.0  0.78601  0.85772  0.11309  1.0000
  C   C3481     1.0  0.86103  0.67446  0.07976  1.0000
  C   C3482     1.0  0.78100  0.83210  0.01786  1.0000
  C   C3483     1.0  0.93397  0.66808  0.06768  1.0000
  C   C3484     1.0  0.95139  0.70735  0.10829  1.0000
  C   C3485     1.0  0.89452  0.89993  0.38544  1.0000
  C   C3486     1.0  0.89376  0.88027  0.37226  1.0000
  C   C3487     1.0  0.90796  0.87451  0.35107  1.0000
  C   C3488     1.0  0.92311  0.88832  0.34324  1.0000
  C   C3489     1.0  0.92399  0.90818  0.35636  1.0000
  C   C3490     1.0  0.90941  0.91395  0.37737  1.0000
  P   P116      1.0  0.94461  0.92546  0.34801  1.0000
  C   C3491     1.0  0.95641  0.93371  0.37989  1.0000
  C   C3492     1.0  0.96497  0.91052  0.32805  1.0000
  H   H2781     1.0  0.96308  0.70277  0.09264  1.0000
  H   H2782     1.0  0.80339  0.94964  0.08780  1.0000
  H   H2783     1.0  0.81931  0.88800  0.12260  1.0000
  C   C3493     1.0  0.80938  0.90132  0.05580  1.0000
  C   C3494     1.0  0.97265  0.96035  0.40759  1.0000
  C   C3495     1.0  0.88379  0.80634  0.49023  1.0000
  H   H2784     1.0  0.78062  0.81151  0.25255  1.0000
  Fe  Fe236     1.0  0.77346  0.73518  0.12938  1.0000
  H   H2785     1.0  0.94908  0.91707  0.28892  1.0000
  C   C3496     1.0  0.88031  0.76239  0.49196  1.0000
  C   C3497     1.0  0.93010  0.91705  0.47913  1.0000
  H   H2786     1.0  0.85177  0.80846  0.47338  1.0000
  H   H2787     1.0  0.78267  0.83352  0.06155  1.0000
  C   C3498     1.0  0.77998  0.70411  0.33733  1.0000
  C   C3499     1.0  0.97512  0.73816  0.33885  1.0000
  H   H2788     1.0  0.88336  0.90429  0.40179  1.0000
  H   H2789     1.0  0.88210  0.86957  0.37853  1.0000
  H   H2790     1.0  0.90728  0.85929  0.34075  1.0000
  H   H2791     1.0  0.93417  0.88328  0.32712  1.0000
  H   H2792     1.0  0.90972  0.92917  0.38773  1.0000
  C   C3500     1.0  0.80367  0.75518  0.49148  1.0000
  H   H2793     1.0  0.95882  0.73462  0.42962  1.0000
  H   H2794     1.0  0.80992  0.80512  0.14607  1.0000
  C   C3501     1.0  0.74734  0.74323  0.25309  1.0000
  H   H2795     1.0  0.90981  0.70398  0.40587  1.0000
  H   H2796     1.0  0.79228  0.71190  0.32683  1.0000
  H   H2797     1.0  0.75502  0.67237  0.12183  1.0000
  H   H2798     1.0  0.74600  0.77292  0.23144  1.0000
  C   C3502     1.0  0.90936  0.86840  0.02086  1.0000
  C   C3503     1.0  0.85503  0.83205  0.06422  1.0000
  H   H2799     1.0  0.96475  0.74612  0.27105  1.0000
  H   H2800     1.0  0.84969  0.97206  0.29859  1.0000
  C   C3504     1.0  0.85658  0.71154  0.06646  1.0000
  C   C3505     1.0  0.84772  0.69279  0.07374  1.0000
  H   H2801     1.0  0.91566  0.71003  0.29764  1.0000
  P   P117      1.0  0.95004  0.68148  0.32222  1.0000
  C   C3506     1.0  0.96493  0.73851  0.29093  1.0000
  C   C3507     1.0  0.94241  0.75453  0.49197  1.0000
  C   C3508     1.0  0.92432  0.65602  0.29161  1.0000
  C   C3509     1.0  0.92739  0.71147  0.04260  1.0000
  H   H2802     1.0  0.94894  0.72837  0.17266  1.0000
  C   C3510     1.0  0.80340  0.81988  0.13690  1.0000
  S   S469      1.0  0.86431  0.98336  0.47380  1.0000
  S   S470      1.0  0.75812  0.80451  0.36622  1.0000
  H   H2803     1.0  0.89800  0.70871  0.12187  1.0000
  C   C3511     1.0  0.96636  0.66683  0.45018  1.0000
  S   S471      1.0  0.84169  0.97822  0.39874  1.0000
  H   H2804     1.0  0.77434  0.66574  0.38477  1.0000
  S   S472      1.0  0.76624  0.75704  0.39344  1.0000
  H   H2805     1.0  0.84886  0.76953  0.47444  1.0000
  C   C3512     1.0  0.97628  0.75540  0.45488  1.0000
  C   C3513     1.0  0.95892  0.74371  0.44857  1.0000
  C   C3514     1.0  0.94187  0.74352  0.46685  1.0000
  H   H2806     1.0  0.89147  0.96847  0.08221  1.0000
  C   C3515     1.0  0.89937  0.98097  0.09246  1.0000
  H   H2807     1.0  0.83054  0.69254  0.07519  1.0000
  H   H2808     1.0  0.76748  0.82247  0.01773  1.0000
  H   H2809     1.0  0.96530  0.95469  0.31239  1.0000
  C   C3516     1.0  0.78572  0.68782  0.35593  1.0000
  H   H2810     1.0  0.98334  0.87633  0.21777  1.0000
  C   C3517     1.0  0.94115  0.97912  0.30049  1.0000
  H   H2811     1.0  0.80867  0.89483  0.03534  1.0000
  C   C3518     1.0  0.89257  0.66933  0.26654  1.0000
  H   H2812     1.0  0.89109  0.96799  0.38231  1.0000
  H   H2813     1.0  0.97009  0.70968  0.36100  1.0000
  H   H2814     1.0  0.88498  0.70328  0.26783  1.0000
  H   H2815     1.0  0.76452  0.80908  0.48988  1.0000
  H   H2816     1.0  0.83796  0.74390  0.23599  1.0000
  H   H2817     1.0  0.93368  0.78678  0.06344  1.0000
  C   C3519     1.0  0.84692  0.77586  0.23021  1.0000
  H   H2818     1.0  0.83681  0.78259  0.24653  1.0000
  C   C3520     1.0  0.84624  0.97472  0.34266  1.0000
  C   C3521     1.0  0.93914  0.67751  0.35570  1.0000
  H   H2819     1.0  0.92556  0.71010  0.36059  1.0000
  H   H2820     1.0  0.88536  0.72669  0.05987  1.0000
  C   C3522     1.0  0.92051  0.67059  0.40660  1.0000
  C   C3523     1.0  0.95315  0.82849  0.03050  1.0000
  H   H2821     1.0  0.84436  0.82202  0.05360  1.0000
  C   C3524     1.0  0.93443  0.94882  0.32899  1.0000
  C   C3525     1.0  0.78356  0.66092  0.14376  1.0000
  S   S473      1.0  0.86221  0.96293  0.21762  1.0000
  C   C3526     1.0  0.78980  0.83837  0.04275  1.0000
  C   C3527     1.0  0.93022  0.68723  0.20940  1.0000
  C   C3528     1.0  0.96950  0.83258  0.04903  1.0000
  C   C3529     1.0  0.97283  0.82025  0.07255  1.0000
  C   C3530     1.0  0.95991  0.80375  0.07778  1.0000
  C   C3531     1.0  0.94365  0.79953  0.05936  1.0000
  C   C3532     1.0  0.94002  0.81206  0.03600  1.0000
  H   H2822     1.0  0.74271  0.75600  0.18564  1.0000
  H   H2823     1.0  0.92672  0.80919  0.02265  1.0000
  C   C3533     1.0  0.89758  0.88514  0.03438  1.0000
  C   C3534     1.0  0.90797  0.90181  0.04599  1.0000
  H   H2824     1.0  0.78830  0.83464  0.47196  1.0000
  H   H2825     1.0  0.90097  0.85551  0.01236  1.0000
  C   C3535     1.0  0.91487  0.71071  0.12451  1.0000
  C   C3536     1.0  0.91846  0.69092  0.39502  1.0000
  C   C3537     1.0  0.81095  0.91963  0.10806  1.0000
  H   H2826     1.0  0.94682  0.73241  0.06583  1.0000
  H   H2827     1.0  0.77881  0.87219  0.10375  1.0000
  H   H2828     1.0  0.91050  0.72266  0.16567  1.0000
  H   H2829     1.0  0.91377  0.66786  0.42653  1.0000
  H   H2830     1.0  0.89368  0.86649  0.10375  1.0000
  H   H2831     1.0  0.74265  0.71731  0.18135  1.0000
  H   H2832     1.0  0.96250  0.79435  0.09621  1.0000
  H   H2833     1.0  0.97960  0.76404  0.31146  1.0000
  S   S474      1.0  0.83946  0.97308  0.03565  1.0000
  P   P118      1.0  0.74634  0.68274  0.22187  1.0000
  C   C3538     1.0  0.96692  0.92615  0.42716  1.0000
  C   C3539     1.0  0.94087  0.65711  0.36735  1.0000
  C   C3540     1.0  0.96871  0.68829  0.20873  1.0000
  H   H2834     1.0  0.84430  0.96877  0.13603  1.0000
  C   C3541     1.0  0.85117  0.96372  0.31791  1.0000
  C   C3542     1.0  0.95814  0.71804  0.29343  1.0000
  C   C3543     1.0  0.96805  0.71780  0.34151  1.0000
  C   C3544     1.0  0.97336  0.74860  0.31367  1.0000
  C   C3545     1.0  0.79328  0.65812  0.16944  1.0000
  C   C3546     1.0  0.84741  0.75408  0.22418  1.0000
  H   H2835     1.0  0.85924  0.80565  0.22056  1.0000
  H   H2836     1.0  0.93030  0.92901  0.46329  1.0000
  H   H2837     1.0  0.91378  0.89519  0.45403  1.0000
  C   C3547     1.0  0.77800  0.67754  0.26227  1.0000
  C   C3548     1.0  0.91369  0.69391  0.29089  1.0000
  C   C3549     1.0  0.92825  0.67690  0.29911  1.0000
  S   S475      1.0  0.76331  0.79879  0.43326  1.0000
  H   H2838     1.0  0.96542  0.97288  0.19309  1.0000
  H   H2839     1.0  0.82803  0.81992  0.10674  1.0000
  H   H2840     1.0  0.91450  0.69441  0.21477  1.0000
  H   H2841     1.0  0.98027  0.95165  0.44936  1.0000
  C   C3550     1.0  0.94006  0.65947  0.04195  1.0000
  C   C3551     1.0  0.88290  0.85688  0.09263  1.0000
  C   C3552     1.0  0.95811  0.91977  0.40233  1.0000
  H   H2842     1.0  0.85547  0.87841  0.10083  1.0000
  H   H2843     1.0  0.95262  0.71002  0.27539  1.0000
  C   C3553     1.0  0.81513  0.89761  0.10474  1.0000
  C   C3554     1.0  0.81406  0.88817  0.07861  1.0000
  C   C3555     1.0  0.86113  0.86363  0.09085  1.0000
  C   C3556     1.0  0.94197  0.88514  0.03050  1.0000
  Fe  Fe237     1.0  0.89503  0.97502  0.21772  1.0000
  H   H2844     1.0  0.83216  0.66135  0.22657  1.0000
  C   C3557     1.0  0.89079  0.83780  0.08016  1.0000
  H   H2845     1.0  0.87882  0.66631  0.25399  1.0000
  H   H2846     1.0  0.81226  0.92685  0.12818  1.0000
  C   C3558     1.0  0.74541  0.75584  0.22967  1.0000
  C   C3559     1.0  0.95899  0.70783  0.31893  1.0000
  C   C3560     1.0  0.84700  0.85130  0.07658  1.0000
  H   H2847     1.0  0.75204  0.72890  0.48566  1.0000
  H   H2848     1.0  0.98256  0.69688  0.21328  1.0000
  S   S476      1.0  0.80297  0.74846  0.45630  1.0000
  P   P119      1.0  0.81869  0.85945  0.07505  1.0000
  C   C3561     1.0  0.97394  0.94652  0.42990  1.0000
  C   C3562     1.0  0.80771  0.85036  0.04306  1.0000
  C   C3563     1.0  0.90555  0.97545  0.31719  1.0000
  H   H2849     1.0  0.79019  0.66235  0.21264  1.0000
  C   C3564     1.0  0.96275  0.90904  0.29944  1.0000
  C   C3565     1.0  0.87686  0.82542  0.06590  1.0000
  C   C3566     1.0  0.93161  0.86853  0.01826  1.0000
  P   P120      1.0  0.92097  0.69478  0.07104  1.0000
  C   C3567     1.0  0.78459  0.83024  0.14723  1.0000
  H   H2850     1.0  0.88033  0.88528  0.03559  1.0000
  C   C3568     1.0  0.92958  0.70532  0.10347  1.0000
  C   C3569     1.0  0.78810  0.66776  0.28509  1.0000
  H   H2851     1.0  0.90768  0.83262  0.08167  1.0000
  C   C3570     1.0  0.80529  0.84770  0.10306  1.0000
  H   H2852     1.0  0.93839  0.66883  0.02351  1.0000
  C   C3571     1.0  0.94015  0.72863  0.04614  1.0000
  H   H2853     1.0  0.94697  0.71312  0.22568  1.0000
  C   C3572     1.0  0.94350  0.72167  0.15358  1.0000
  S   S477      1.0  0.97900  0.76896  0.15067  1.0000
  C   C3573     1.0  0.85419  0.68204  0.17014  1.0000
  H   H2854     1.0  0.74832  0.71177  0.26940  1.0000
  C   C3574     1.0  0.92189  0.71871  0.14952  1.0000
  C   C3575     1.0  0.81367  0.82843  0.11472  1.0000
  C   C3576     1.0  0.98359  0.67454  0.43593  1.0000
  S   S478      1.0  0.74253  0.71987  0.12140  1.0000
  H   H2855     1.0  0.98517  0.82380  0.08711  1.0000
  H   H2856     1.0  0.93816  0.91466  0.05339  1.0000
  C   C3577     1.0  0.74363  0.74633  0.20394  1.0000
  C   C3578     1.0  0.75845  0.71094  0.33294  1.0000
  H   H2857     1.0  0.80242  0.93355  0.04150  1.0000
  H   H2858     1.0  0.76096  0.85688  0.14288  1.0000
  H   H2859     1.0  0.88888  0.98135  0.31827  1.0000
  C   C3579     1.0  0.81702  0.85533  0.01808  1.0000
  C   C3580     1.0  0.97650  0.76711  0.47926  1.0000
  C   C3581     1.0  0.78005  0.83793  0.49119  1.0000
  C   C3582     1.0  0.89230  0.69360  0.07116  1.0000
  H   H2860     1.0  0.95264  0.90395  0.40068  1.0000
  C   C3583     1.0  0.96396  0.95400  0.38266  1.0000
  P   P121      1.0  0.94714  0.84636  0.00241  1.0000
  C   C3584     1.0  0.75109  0.67598  0.16546  1.0000
  S   S479      1.0  0.88671  0.94064  0.99863  1.0000
  C   C3585     1.0  0.94854  0.96026  0.31382  1.0000
  H   H2861     1.0  0.96289  0.96515  0.36587  1.0000
  C   C3586     1.0  0.97086  0.66830  0.19558  1.0000
  H   H2862     1.0  0.97499  0.71825  0.13610  1.0000
  H   H2863     1.0  0.93170  0.66110  0.11099  1.0000
  C   C3587     1.0  0.76244  0.66973  0.14180  1.0000
  C   C3588     1.0  0.75894  0.67035  0.25185  1.0000
  C   C3589     1.0  0.76989  0.67812  0.36998  1.0000
  H   H2864     1.0  0.97652  0.89611  0.26197  1.0000
  C   C3590     1.0  0.91890  0.70766  0.01646  1.0000
  S   S480      1.0  0.92501  0.97554  0.47961  1.0000
  Fe  Fe238     1.0  0.74336  0.78600  0.39938  1.0000
  H   H2865     1.0  0.98478  0.90016  0.36291  1.0000
  C   C3591     1.0  0.86334  0.77603  0.48189  1.0000
  H   H2866     1.0  0.80245  0.68304  0.35983  1.0000
  C   C3592     1.0  0.94471  0.74127  0.02384  1.0000
  H   H2867     1.0  0.74927  0.75064  0.27300  1.0000
  H   H2868     1.0  0.98997  0.77621  0.48397  1.0000
  H   H2869     1.0  0.98258  0.74565  0.35610  1.0000
  H   H2870     1.0  0.90870  0.69478  0.01325  1.0000
  C   C3593     1.0  0.74608  0.71137  0.22496  1.0000
  C   C3594     1.0  0.97821  0.89706  0.28402  1.0000
  C   C3595     1.0  0.76082  0.67360  0.19141  1.0000
  C   C3596     1.0  0.97324  0.66292  0.31721  1.0000
  C   C3597     1.0  0.98273  0.89958  0.34093  1.0000
  H   H2871     1.0  0.97926  0.84567  0.04576  1.0000
  H   H2872     1.0  0.83494  0.98679  0.09188  1.0000
  H   H2873     1.0  0.79247  0.65650  0.12536  1.0000
  C   C3598     1.0  0.74729  0.72112  0.25086  1.0000
  C   C3599     1.0  0.93692  0.73678  0.99776  1.0000
  H   H2874     1.0  0.88815  0.97345  0.13246  1.0000
  C   C3600     1.0  0.93223  0.66766  0.19559  1.0000
  C   C3601     1.0  0.88324  0.67482  0.07849  1.0000
  C   C3602     1.0  0.74387  0.72421  0.20157  1.0000
  C   C3603     1.0  0.95244  0.65829  0.18849  1.0000
  H   H2875     1.0  0.97810  0.97616  0.40974  1.0000
  C   C3604     1.0  0.86500  0.79799  0.48120  1.0000
  Fe  Fe239     1.0  0.99069  0.80169  0.14901  1.0000
  H   H2876     1.0  0.98688  0.69106  0.43792  1.0000
  C   C3605     1.0  0.74245  0.70137  0.34713  1.0000
  H   H2877     1.0  0.91814  0.65968  0.19039  1.0000
  C   C3606     1.0  0.78204  0.66447  0.19317  1.0000
  H   H2878     1.0  0.98967  0.75543  0.44098  1.0000
  H   H2879     1.0  0.85413  0.66007  0.08596  1.0000
  Fe  Fe240     1.0  0.85498  0.95974  0.99662  1.0000
  H   H2880     1.0  0.89314  0.66048  0.08359  1.0000
  H   H2881     1.0  0.88515  0.82338  0.48915  1.0000
  C   C3607     1.0  0.80786  0.84941  0.99326  1.0000
  C   C3608     1.0  0.92389  0.72005  0.99410  1.0000
  C   C3609     1.0  0.78991  0.83776  0.99312  1.0000
  C   C3610     1.0  0.98794  0.65917  0.33880  1.0000
  H   H2882     1.0  0.95199  0.98769  0.28846  1.0000
  H   H2883     1.0  0.96670  0.65588  0.27454  1.0000
  H   H2884     1.0  0.98971  0.82463  0.99355  1.0000
  Fe  Fe241     1.0  0.76478  0.71542  0.62795  1.0000
  S   S481      1.0  0.76456  0.75083  0.63172  1.0000
  H   H2885     1.0  0.88997  0.95837  0.80684  1.0000
  Fe  Fe242     1.0  0.81015  0.70815  0.64942  1.0000
  S   S482      1.0  0.81364  0.74324  0.65477  1.0000
  H   H2886     1.0  0.96410  0.80349  0.83176  1.0000
  Fe  Fe243     1.0  0.78060  0.74457  0.67237  1.0000
  S   S483      1.0  0.76801  0.76618  0.70699  1.0000
  Fe  Fe244     1.0  0.79738  0.74666  0.61365  1.0000
  S   S484      1.0  0.80756  0.77093  0.58332  1.0000
  S   S485      1.0  0.77831  0.70921  0.67034  1.0000
  S   S486      1.0  0.79646  0.71150  0.60679  1.0000
  Fe  Fe245     1.0  0.77227  0.78174  0.91889  1.0000
  C   C3611     1.0  0.92638  0.67504  0.78302  1.0000
  S   S487      1.0  0.76526  0.76648  0.95932  1.0000
  Fe  Fe246     1.0  0.78590  0.77190  0.86003  1.0000
  H   H2887     1.0  0.89695  0.91761  0.62324  1.0000
  S   S488      1.0  0.79908  0.74719  0.82901  1.0000
  Fe  Fe247     1.0  0.79402  0.81457  0.88690  1.0000
  S   S489      1.0  0.81573  0.84111  0.88060  1.0000
  H   H2888     1.0  0.75514  0.76766  0.55780  1.0000
  S   S490      1.0  0.80416  0.78052  0.89786  1.0000
  H   H2889     1.0  0.78851  0.86096  0.83143  1.0000
  C   C3612     1.0  0.75677  0.67338  0.84364  1.0000
  H   H2890     1.0  0.93586  0.67570  0.95499  1.0000
  C   C3613     1.0  0.89560  0.96691  0.82444  1.0000
  H   H2891     1.0  0.83257  0.98066  0.83639  1.0000
  C   C3614     1.0  0.87392  0.70250  0.60402  1.0000
  C   C3615     1.0  0.81063  0.83408  0.78428  1.0000
  H   H2892     1.0  0.96549  0.88573  0.76034  1.0000
  S   S491      1.0  0.96493  0.81996  0.64667  1.0000
  H   H2893     1.0  0.84038  0.78108  0.80986  1.0000
  Fe  Fe248     1.0  0.89613  0.96195  0.96483  1.0000
  Fe  Fe249     1.0  0.87290  0.92088  0.96520  1.0000
  S   S492      1.0  0.87415  0.88487  0.96705  1.0000
  Fe  Fe250     1.0  0.85452  0.95883  0.93319  1.0000
  S   S493      1.0  0.83843  0.97048  0.89367  1.0000
  C   C3616     1.0  0.84843  0.65828  0.85230  1.0000
  S   S494      1.0  0.88627  0.93981  0.93139  1.0000
  H   H2894     1.0  0.84705  0.96055  0.64097  1.0000
  Fe  Fe251     1.0  0.91395  0.92433  0.71289  1.0000
  S   S495      1.0  0.88483  0.90673  0.71574  1.0000
  S   S496      1.0  0.94684  0.90657  0.71348  1.0000
  Fe  Fe252     1.0  0.87324  0.93147  0.74677  1.0000
  S   S497      1.0  0.86080  0.91696  0.78517  1.0000
  Fe  Fe253     1.0  0.87046  0.92954  0.68424  1.0000
  S   S498      1.0  0.85461  0.91480  0.64788  1.0000
  S   S499      1.0  0.90372  0.94769  0.74631  1.0000
  S   S500      1.0  0.90063  0.94557  0.67913  1.0000
  C   C3617     1.0  0.84270  0.95607  0.57131  1.0000
  C   C3618     1.0  0.84712  0.93395  0.56884  1.0000
  C   C3619     1.0  0.85072  0.92139  0.59244  1.0000
  C   C3620     1.0  0.85081  0.93093  0.61853  1.0000
  C   C3621     1.0  0.84712  0.95306  0.62094  1.0000
  C   C3622     1.0  0.84256  0.96550  0.59749  1.0000
  H   H2895     1.0  0.76879  0.82699  0.79595  1.0000
  C   C3623     1.0  0.84538  0.95578  0.86350  1.0000
  C   C3624     1.0  0.85524  0.93501  0.86482  1.0000
  C   C3625     1.0  0.86005  0.92343  0.84058  1.0000
  C   C3626     1.0  0.85555  0.93260  0.81489  1.0000
  C   C3627     1.0  0.84589  0.95342  0.81347  1.0000
  H   H2896     1.0  0.85870  0.92770  0.88449  1.0000
  H   H2897     1.0  0.86730  0.90730  0.84160  1.0000
  C   C3628     1.0  0.96005  0.84355  0.66624  1.0000
  C   C3629     1.0  0.97602  0.85163  0.68238  1.0000
  C   C3630     1.0  0.97170  0.87086  0.69701  1.0000
  C   C3631     1.0  0.95138  0.88202  0.69577  1.0000
  C   C3632     1.0  0.93528  0.87367  0.68011  1.0000
  C   C3633     1.0  0.93968  0.85459  0.66521  1.0000
  H   H2898     1.0  0.80806  0.72234  0.50396  1.0000
  H   H2899     1.0  0.79361  0.86783  0.49770  1.0000
  H   H2900     1.0  0.91964  0.88222  0.67885  1.0000
  H   H2901     1.0  0.92741  0.84854  0.65244  1.0000
  C   C3634     1.0  0.91344  0.98781  0.63086  1.0000
  C   C3635     1.0  0.91260  0.81517  0.93117  1.0000
  S   S501      1.0  0.85602  0.95294  0.71541  1.0000
  C   C3636     1.0  0.94975  0.83450  0.57069  1.0000
  C   C3637     1.0  0.94878  0.89768  0.79643  1.0000
  H   H2902     1.0  0.92511  0.95860  0.88270  1.0000
  H   H2903     1.0  0.90587  0.82079  0.78772  1.0000
  H   H2904     1.0  0.94328  0.82705  0.79863  1.0000
  H   H2905     1.0  0.85335  0.90424  0.59047  1.0000
  H   H2906     1.0  0.90474  0.80812  0.91401  1.0000
  C   C3638     1.0  0.82972  0.85332  0.90708  1.0000
  C   C3639     1.0  0.83296  0.87500  0.90478  1.0000
  C   C3640     1.0  0.84587  0.88491  0.92376  1.0000
  C   C3641     1.0  0.85627  0.87305  0.94472  1.0000
  C   C3642     1.0  0.85307  0.85132  0.94716  1.0000
  C   C3643     1.0  0.83962  0.84151  0.92855  1.0000
  H   H2907     1.0  0.82580  0.88418  0.88795  1.0000
  H   H2908     1.0  0.84832  0.90162  0.92159  1.0000
  H   H2909     1.0  0.86102  0.84207  0.96344  1.0000
  H   H2910     1.0  0.83728  0.82478  0.93045  1.0000
  H   H2911     1.0  0.97491  0.81002  0.93071  1.0000
  C   C3644     1.0  0.77670  0.76023  0.74068  1.0000
  C   C3645     1.0  0.76786  0.77267  0.76233  1.0000
  C   C3646     1.0  0.77441  0.76841  0.78941  1.0000
  C   C3647     1.0  0.78986  0.75173  0.79516  1.0000
  C   C3648     1.0  0.79844  0.73894  0.77355  1.0000
  C   C3649     1.0  0.79196  0.74324  0.74632  1.0000
  H   H2912     1.0  0.75587  0.78564  0.75822  1.0000
  H   H2913     1.0  0.76752  0.77808  0.80588  1.0000
  C   C3650     1.0  0.93873  0.81252  0.96803  1.0000
  H   H2914     1.0  0.79865  0.73338  0.72973  1.0000
  C   C3651     1.0  0.80587  0.76465  0.54804  1.0000
  C   C3652     1.0  0.80348  0.78112  0.52868  1.0000
  H   H2915     1.0  0.97351  0.94202  0.89512  1.0000
  C   C3653     1.0  0.75030  0.76621  0.53658  1.0000
  C   C3654     1.0  0.80667  0.73877  0.51081  1.0000
  C   C3655     1.0  0.80748  0.74347  0.53899  1.0000
  H   H2916     1.0  0.80245  0.79756  0.53548  1.0000
  H   H2917     1.0  0.94765  0.77373  0.85324  1.0000
  C   C3656     1.0  0.98516  0.70342  0.71416  1.0000
  H   H2918     1.0  0.80959  0.73066  0.55363  1.0000
  P   P122      1.0  0.79597  0.85830  0.77256  1.0000
  S   S502      1.0  0.84046  0.93877  0.96528  1.0000
  H   H2919     1.0  0.84698  0.92648  0.54883  1.0000
  C   C3657     1.0  0.74607  0.80155  0.63158  1.0000
  H   H2920     1.0  0.98106  0.85277  0.78272  1.0000
  H   H2921     1.0  0.77941  0.80442  0.62348  1.0000
  C   C3658     1.0  0.94402  0.84641  0.54708  1.0000
  H   H2922     1.0  0.96012  0.87420  0.58653  1.0000
  P   P123      1.0  0.92389  0.86881  0.54886  1.0000
  C   C3659     1.0  0.89749  0.85949  0.54572  1.0000
  C   C3660     1.0  0.92620  0.88325  0.58082  1.0000
  C   C3661     1.0  0.90855  0.89588  0.59129  1.0000
  H   H2923     1.0  0.89433  0.66947  0.52491  1.0000
  C   C3662     1.0  0.88036  0.87317  0.53570  1.0000
  C   C3663     1.0  0.86012  0.86584  0.53218  1.0000
  C   C3664     1.0  0.85668  0.84490  0.53898  1.0000
  C   C3665     1.0  0.87351  0.83127  0.54937  1.0000
  C   C3666     1.0  0.89388  0.83848  0.55268  1.0000
  C   C3667     1.0  0.93726  0.90616  0.52604  1.0000
  S   S503      1.0  0.99075  0.76267  0.83300  1.0000
  C   C3668     1.0  0.97029  0.70359  0.59098  1.0000
  H   H2924     1.0  0.94939  0.84889  0.50342  1.0000
  C   C3669     1.0  0.75378  0.74636  0.52360  1.0000
  H   H2925     1.0  0.89324  0.89678  0.58087  1.0000
  C   C3670     1.0  0.89427  0.72312  0.53395  1.0000
  H   H2926     1.0  0.98802  0.89571  0.94998  1.0000
  H   H2927     1.0  0.81659  0.78093  0.76931  1.0000
  H   H2928     1.0  0.84100  0.83921  0.53593  1.0000
  H   H2929     1.0  0.87075  0.81499  0.55436  1.0000
  H   H2930     1.0  0.90674  0.82765  0.56050  1.0000
  H   H2931     1.0  0.94703  0.83630  0.91229  1.0000
  S   S504      1.0  0.83901  0.68458  0.65531  1.0000
  C   C3671     1.0  0.94440  0.78360  0.69257  1.0000
  C   C3672     1.0  0.94885  0.77241  0.71683  1.0000
  C   C3673     1.0  0.93445  0.77464  0.73853  1.0000
  C   C3674     1.0  0.91544  0.78779  0.73571  1.0000
  C   C3675     1.0  0.91079  0.79896  0.71126  1.0000
  C   C3676     1.0  0.92558  0.79701  0.68981  1.0000
  P   P124      1.0  0.88661  0.81658  0.70872  1.0000
  C   C3677     1.0  0.86315  0.80204  0.71147  1.0000
  C   C3678     1.0  0.88857  0.83645  0.73526  1.0000
  C   C3679     1.0  0.87222  0.84094  0.75449  1.0000
  C   C3680     1.0  0.87424  0.85664  0.77461  1.0000
  C   C3681     1.0  0.89246  0.86793  0.77561  1.0000
  C   C3682     1.0  0.90882  0.86341  0.75668  1.0000
  C   C3683     1.0  0.90701  0.84759  0.73679  1.0000
  C   C3684     1.0  0.84291  0.81286  0.70731  1.0000
  C   C3685     1.0  0.82467  0.80161  0.70617  1.0000
  C   C3686     1.0  0.82650  0.77952  0.70937  1.0000
  C   C3687     1.0  0.84652  0.76859  0.71362  1.0000
  C   C3688     1.0  0.86485  0.77975  0.71444  1.0000
  C   C3689     1.0  0.88405  0.82912  0.67550  1.0000
  C   C3690     1.0  0.88023  0.81668  0.65222  1.0000
  C   C3691     1.0  0.87708  0.82625  0.62655  1.0000
  C   C3692     1.0  0.87792  0.84826  0.62388  1.0000
  C   C3693     1.0  0.88174  0.86068  0.64690  1.0000
  C   C3694     1.0  0.88446  0.85126  0.67267  1.0000
  H   H2932     1.0  0.95584  0.78234  0.67607  1.0000
  H   H2933     1.0  0.96364  0.76229  0.71890  1.0000
  H   H2934     1.0  0.93827  0.76642  0.75760  1.0000
  H   H2935     1.0  0.90432  0.78932  0.75254  1.0000
  H   H2936     1.0  0.92299  0.80609  0.67114  1.0000
  H   H2937     1.0  0.85790  0.83254  0.75401  1.0000
  H   H2938     1.0  0.86150  0.86054  0.78914  1.0000
  H   H2939     1.0  0.89369  0.88053  0.79069  1.0000
  H   H2940     1.0  0.92266  0.87259  0.75688  1.0000
  H   H2941     1.0  0.91980  0.84445  0.72210  1.0000
  H   H2942     1.0  0.84133  0.82993  0.70417  1.0000
  H   H2943     1.0  0.80910  0.80990  0.70236  1.0000
  H   H2944     1.0  0.81242  0.77080  0.70801  1.0000
  H   H2945     1.0  0.84781  0.75138  0.71542  1.0000
  H   H2946     1.0  0.88021  0.77078  0.71644  1.0000
  H   H2947     1.0  0.87936  0.79964  0.65404  1.0000
  H   H2948     1.0  0.87371  0.81666  0.60880  1.0000
  H   H2949     1.0  0.87537  0.85583  0.60412  1.0000
  H   H2950     1.0  0.88250  0.87772  0.64482  1.0000
  H   H2951     1.0  0.88687  0.86146  0.69011  1.0000
  C   C3695     1.0  0.92744  0.88722  0.52124  1.0000
  H   H2952     1.0  0.94530  0.93601  0.50909  1.0000
  C   C3696     1.0  0.76042  0.80741  0.58660  1.0000
  H   H2953     1.0  0.88960  0.78997  0.80715  1.0000
  C   C3697     1.0  0.91655  0.77797  0.56440  1.0000
  H   H2954     1.0  0.82857  0.87543  0.66694  1.0000
  H   H2955     1.0  0.89686  0.96541  0.57158  1.0000
  H   H2956     1.0  0.89353  0.75901  0.60999  1.0000
  H   H2957     1.0  0.86769  0.68706  0.60338  1.0000
  C   C3698     1.0  0.90265  0.72524  0.61142  1.0000
  H   H2958     1.0  0.82985  0.68527  0.83463  1.0000
  Fe  Fe254     1.0  0.74802  0.80436  0.87187  1.0000
  C   C3699     1.0  0.89568  0.70463  0.60925  1.0000
  C   C3700     1.0  0.96697  0.67533  0.93608  1.0000
  H   H2959     1.0  0.77387  0.69903  0.78782  1.0000
  C   C3701     1.0  0.85959  0.72050  0.60020  1.0000
  C   C3702     1.0  0.86668  0.74086  0.60204  1.0000
  H   H2960     1.0  0.84282  0.71865  0.59629  1.0000
  H   H2961     1.0  0.85535  0.75473  0.59934  1.0000
  S   S505      1.0  0.83644  0.97207  0.54221  1.0000
  H   H2962     1.0  0.94161  0.91185  0.78623  1.0000
  C   C3703     1.0  0.93898  0.91631  0.93360  1.0000
  C   C3704     1.0  0.90070  0.79276  0.50072  1.0000
  C   C3705     1.0  0.80036  0.91250  0.83613  1.0000
  C   C3706     1.0  0.83585  0.66872  0.83185  1.0000
  C   C3707     1.0  0.94915  0.89558  0.89282  1.0000
  C   C3708     1.0  0.93781  0.89796  0.91751  1.0000
  P   P125      1.0  0.94854  0.87138  0.87292  1.0000
  C   C3709     1.0  0.92199  0.86231  0.87250  1.0000
  C   C3710     1.0  0.95406  0.87590  0.83726  1.0000
  C   C3711     1.0  0.94466  0.89417  0.82410  1.0000
  H   H2963     1.0  0.97640  0.71113  0.57313  1.0000
  H   H2964     1.0  0.82783  0.84889  0.81709  1.0000
  H   H2965     1.0  0.91420  0.86277  0.96377  1.0000
  C   C3712     1.0  0.90393  0.87701  0.87466  1.0000
  C   C3713     1.0  0.88341  0.87006  0.87295  1.0000
  C   C3714     1.0  0.88065  0.84855  0.86846  1.0000
  C   C3715     1.0  0.89850  0.83391  0.86562  1.0000
  C   C3716     1.0  0.91910  0.84076  0.86758  1.0000
  P   P126      1.0  0.92087  0.75340  0.51615  1.0000
  C   C3717     1.0  0.94603  0.88321  0.59446  1.0000
  H   H2966     1.0  0.80851  0.93186  0.80226  1.0000
  H   H2967     1.0  0.74990  0.85030  0.55929  1.0000
  C   C3718     1.0  0.89890  0.68447  0.66928  1.0000
  H   H2968     1.0  0.88262  0.88945  0.53008  1.0000
  H   H2969     1.0  0.92987  0.91833  0.95238  1.0000
  C   C3719     1.0  0.92660  0.70880  0.51123  1.0000
  C   C3720     1.0  0.76342  0.80484  0.61484  1.0000
  C   C3721     1.0  0.89991  0.68528  0.52437  1.0000
  H   H2970     1.0  0.92794  0.88574  0.92431  1.0000
  H   H2971     1.0  0.93414  0.90568  0.83518  1.0000
  H   H2972     1.0  0.89537  0.84606  0.92611  1.0000
  C   C3722     1.0  0.96680  0.86072  0.82199  1.0000
  H   H2973     1.0  0.90555  0.89388  0.87750  1.0000
  H   H2974     1.0  0.86957  0.88141  0.87511  1.0000
  H   H2975     1.0  0.86463  0.84333  0.86734  1.0000
  H   H2976     1.0  0.89638  0.81724  0.86214  1.0000
  H   H2977     1.0  0.93275  0.82925  0.86528  1.0000
  H   H2978     1.0  0.79115  0.88959  0.86548  1.0000
  H   H2979     1.0  0.82143  0.66586  0.79183  1.0000
  H   H2980     1.0  0.97068  0.80907  0.58800  1.0000
  H   H2981     1.0  0.76156  0.66016  0.85705  1.0000
  C   C3723     1.0  0.97648  0.68878  0.63622  1.0000
  H   H2982     1.0  0.90582  0.71962  0.88189  1.0000
  C   C3724     1.0  0.99048  0.85430  0.88177  1.0000
  C   C3725     1.0  0.86090  0.78753  0.89324  1.0000
  C   C3726     1.0  0.86821  0.78260  0.91974  1.0000
  C   C3727     1.0  0.88737  0.76990  0.92357  1.0000
  C   C3728     1.0  0.89923  0.76214  0.90090  1.0000
  C   C3729     1.0  0.89130  0.76594  0.87420  1.0000
  C   C3730     1.0  0.87228  0.77909  0.87059  1.0000
  P   P127      1.0  0.90609  0.75602  0.84444  1.0000
  C   C3731     1.0  0.92560  0.73395  0.85213  1.0000
  C   C3732     1.0  0.88843  0.74569  0.81922  1.0000
  C   C3733     1.0  0.89454  0.74436  0.79159  1.0000
  C   C3734     1.0  0.88084  0.73669  0.77178  1.0000
  C   C3735     1.0  0.86109  0.73002  0.77949  1.0000
  C   C3736     1.0  0.85517  0.73078  0.80705  1.0000
  C   C3737     1.0  0.86880  0.73846  0.82690  1.0000
  C   C3738     1.0  0.94506  0.73131  0.83794  1.0000
  C   C3739     1.0  0.94291  0.77617  0.60108  1.0000
  C   C3740     1.0  0.95639  0.70055  0.86563  1.0000
  C   C3741     1.0  0.93666  0.70239  0.87885  1.0000
  C   C3742     1.0  0.92113  0.71871  0.87172  1.0000
  C   C3743     1.0  0.91783  0.77881  0.83056  1.0000
  C   C3744     1.0  0.90593  0.79263  0.81258  1.0000
  C   C3745     1.0  0.91504  0.81013  0.80149  1.0000
  C   C3746     1.0  0.93611  0.81382  0.80789  1.0000
  C   C3747     1.0  0.94778  0.80058  0.82648  1.0000
  C   C3748     1.0  0.93847  0.78349  0.83837  1.0000
  H   H2983     1.0  0.84629  0.79781  0.89027  1.0000
  H   H2984     1.0  0.85913  0.78883  0.93729  1.0000
  H   H2985     1.0  0.89322  0.76647  0.94416  1.0000
  H   H2986     1.0  0.91453  0.75326  0.90438  1.0000
  H   H2987     1.0  0.86619  0.78281  0.85026  1.0000
  H   H2988     1.0  0.90989  0.74926  0.78539  1.0000
  H   H2989     1.0  0.88556  0.73581  0.75047  1.0000
  H   H2990     1.0  0.85040  0.72415  0.76417  1.0000
  H   H2991     1.0  0.83988  0.72556  0.81311  1.0000
  H   H2992     1.0  0.86387  0.73879  0.84813  1.0000
  H   H2993     1.0  0.94872  0.74219  0.82190  1.0000
  C   C3749     1.0  0.75508  0.82785  0.52571  1.0000
  C   C3750     1.0  0.91347  0.72650  0.52073  1.0000
  C   C3751     1.0  0.90963  0.66016  0.59105  1.0000
  C   C3752     1.0  0.84052  0.96481  0.83771  1.0000
  C   C3753     1.0  0.80270  0.90014  0.78901  1.0000
  C   C3754     1.0  0.92915  0.76247  0.54949  1.0000
  C   C3755     1.0  0.90736  0.83657  0.93786  1.0000
  H   H2994     1.0  0.98719  0.68498  0.65335  1.0000
  H   H2995     1.0  0.84210  0.96054  0.79373  1.0000
  C   C3756     1.0  0.74446  0.70760  0.80912  1.0000
  H   H2996     1.0  0.93960  0.66139  0.56931  1.0000
  C   C3757     1.0  0.96240  0.91137  0.88512  1.0000
  Fe  Fe255     1.0  0.88752  0.96755  0.71272  1.0000
  C   C3758     1.0  0.82249  0.87176  0.68699  1.0000
  H   H2997     1.0  0.84775  0.88575  0.70855  1.0000
  C   C3759     1.0  0.91557  0.96704  0.86700  1.0000
  C   C3760     1.0  0.94905  0.69842  0.59172  1.0000
  H   H2998     1.0  0.90132  0.78462  0.55642  1.0000
  C   C3761     1.0  0.92845  0.80318  0.94606  1.0000
  H   H2999     1.0  0.88680  0.68646  0.71051  1.0000
  C   C3762     1.0  0.83337  0.87762  0.71053  1.0000
  C   C3763     1.0  0.94983  0.66583  0.94835  1.0000
  H   H3000     1.0  0.79555  0.85655  0.67107  1.0000
  C   C3764     1.0  0.96214  0.88290  0.78171  1.0000
  H   H3001     1.0  0.80983  0.67329  0.69847  1.0000
  C   C3765     1.0  0.80385  0.86130  0.68938  1.0000
  C   C3766     1.0  0.79304  0.87632  0.82472  1.0000
  H   H3002     1.0  0.92455  0.98469  0.64774  1.0000
  C   C3767     1.0  0.82553  0.87341  0.73650  1.0000
  C   C3768     1.0  0.83847  0.66224  0.67683  1.0000
  C   C3769     1.0  0.90783  0.95593  0.84467  1.0000
  H   H3003     1.0  0.99049  0.71608  0.70162  1.0000
  C   C3770     1.0  0.79587  0.85714  0.71533  1.0000
  C   C3771     1.0  0.78302  0.85665  0.50571  1.0000
  H   H3004     1.0  0.83426  0.87818  0.75445  1.0000
  C   C3772     1.0  0.89780  0.97691  0.58810  1.0000
  H   H3005     1.0  0.78155  0.84882  0.71676  1.0000
  C   C3773     1.0  0.91061  0.90789  0.61525  1.0000
  H   H3006     1.0  0.91912  0.72757  0.61635  1.0000
  C   C3774     1.0  0.80636  0.86368  0.73910  1.0000
  C   C3775     1.0  0.79445  0.89258  0.84414  1.0000
  C   C3776     1.0  0.76768  0.85520  0.77060  1.0000
  C   C3777     1.0  0.89500  0.67635  0.69521  1.0000
  C   C3778     1.0  0.80796  0.81476  0.77067  1.0000
  C   C3779     1.0  0.88817  0.74322  0.60786  1.0000
  H   H3007     1.0  0.94230  0.83850  0.59024  1.0000
  H   H3008     1.0  0.79693  0.81422  0.75355  1.0000
  H   H3009     1.0  0.91121  0.93884  0.84300  1.0000
  C   C3780     1.0  0.83580  0.81521  0.81559  1.0000
  C   C3781     1.0  0.96354  0.92969  0.90129  1.0000
  C   C3782     1.0  0.74853  0.74410  0.49591  1.0000
  H   H3010     1.0  0.93181  0.91630  0.64784  1.0000
  S   S506      1.0  0.77810  0.80576  0.84766  1.0000
  H   H3011     1.0  0.80541  0.90378  0.76779  1.0000
  C   C3783     1.0  0.89101  0.66265  0.78657  1.0000
  H   H3012     1.0  0.89389  0.70099  0.66500  1.0000
  C   C3784     1.0  0.97097  0.86434  0.79439  1.0000
  C   C3785     1.0  0.91784  0.84597  0.95952  1.0000
  H   H3013     1.0  0.77422  0.80898  0.57382  1.0000
  C   C3786     1.0  0.96948  0.82321  0.52090  1.0000
  H   H3014     1.0  0.77458  0.87550  0.54159  1.0000
  H   H3015     1.0  0.93308  0.78676  0.94038  1.0000
  C   C3787     1.0  0.76369  0.69521  0.80460  1.0000
  C   C3788     1.0  0.75406  0.87063  0.75703  1.0000
  H   H3016     1.0  0.98306  0.78341  0.78129  1.0000
  H   H3017     1.0  0.94352  0.90985  0.54607  1.0000
  S   S507      1.0  0.92574  0.98021  0.96357  1.0000
  C   C3789     1.0  0.96339  0.83711  0.90621  1.0000
  C   C3790     1.0  0.79782  0.87975  0.79710  1.0000
  C   C3791     1.0  0.93297  0.83384  0.97540  1.0000
  H   H3018     1.0  0.94597  0.98765  0.55491  1.0000
  H   H3019     1.0  0.95834  0.74151  0.54990  1.0000
  C   C3792     1.0  0.81904  0.79583  0.77958  1.0000
  C   C3793     1.0  0.96573  0.81762  0.56950  1.0000
  C   C3794     1.0  0.82510  0.83425  0.80638  1.0000
  H   H3020     1.0  0.84597  0.81548  0.83358  1.0000
  C   C3795     1.0  0.83267  0.79597  0.80231  1.0000
  H   H3021     1.0  0.94068  0.67836  0.72771  1.0000
  H   H3022     1.0  0.97038  0.75369  0.59513  1.0000
  C   C3796     1.0  0.98940  0.84044  0.98495  1.0000
  H   H3023     1.0  0.75236  0.72675  0.73975  1.0000
  C   C3797     1.0  0.96045  0.71481  0.84488  1.0000
  C   C3798     1.0  0.95710  0.68226  0.72936  1.0000
  C   C3799     1.0  0.98851  0.88035  0.95997  1.0000
  H   H3024     1.0  0.76845  0.66619  0.64714  1.0000
  H   H3025     1.0  0.74730  0.69012  0.72553  1.0000
  H   H3026     1.0  0.93863  0.70221  0.57430  1.0000
  C   C3800     1.0  0.90456  0.67912  0.78851  1.0000
  H   H3027     1.0  0.81016  0.72579  0.77785  1.0000
  H   H3028     1.0  0.87411  0.66576  0.79069  1.0000
  H   H3029     1.0  0.76109  0.73284  0.53488  1.0000
  C   C3801     1.0  0.90859  0.67110  0.64894  1.0000
  C   C3802     1.0  0.94142  0.68816  0.61471  1.0000
  C   C3803     1.0  0.94838  0.75350  0.56103  1.0000
  S   S508      1.0  0.88048  0.93786  0.50446  1.0000
  H   H3030     1.0  0.87210  0.70021  0.54447  1.0000
  H   H3031     1.0  0.93349  0.69112  0.89472  1.0000
  C   C3804     1.0  0.82271  0.66081  0.69671  1.0000
  H   H3032     1.0  0.92956  0.67469  0.50469  1.0000
  C   C3805     1.0  0.91970  0.68829  0.51281  1.0000
  H   H3033     1.0  0.92322  0.95858  0.60945  1.0000
  S   S509      1.0  0.76315  0.81647  0.91032  1.0000
  C   C3806     1.0  0.96883  0.85274  0.88782  1.0000
  C   C3807     1.0  0.80417  0.91634  0.80853  1.0000
  C   C3808     1.0  0.95176  0.93219  0.92545  1.0000
  H   H3034     1.0  0.97348  0.84602  0.83120  1.0000
  C   C3809     1.0  0.97046  0.87442  0.97364  1.0000
  S   S510      1.0  0.75487  0.76987  0.88195  1.0000
  H   H3035     1.0  0.97715  0.81876  0.50162  1.0000
  H   H3036     1.0  0.80195  0.92498  0.85127  1.0000
  C   C3810     1.0  0.95536  0.68332  0.63693  1.0000
  C   C3811     1.0  0.88737  0.70262  0.53533  1.0000
  C   C3812     1.0  0.80215  0.77640  0.50049  1.0000
  H   H3037     1.0  0.96308  0.89439  0.62954  1.0000
  C   C3813     1.0  0.93026  0.90735  0.62897  1.0000
  H   H3038     1.0  0.94849  0.78175  0.62073  1.0000
  H   H3039     1.0  0.85222  0.66700  0.87069  1.0000
  C   C3814     1.0  0.92361  0.78502  0.58993  1.0000
  C   C3815     1.0  0.76984  0.67810  0.82185  1.0000
  C   C3816     1.0  0.75880  0.83864  0.78447  1.0000
  H   H3040     1.0  0.95015  0.67524  0.65484  1.0000
  H   H3041     1.0  0.91515  0.79946  0.50764  1.0000
  H   H3042     1.0  0.91788  0.71646  0.97387  1.0000
  C   C3817     1.0  0.95372  0.84033  0.52204  1.0000
  C   C3818     1.0  0.77224  0.86096  0.53035  1.0000
  C   C3819     1.0  0.91260  0.97308  0.60940  1.0000
  H   H3043     1.0  0.97189  0.90958  0.86669  1.0000
  H   H3044     1.0  0.88422  0.73642  0.54233  1.0000
  S   S511      1.0  0.98643  0.73442  0.90318  1.0000
  H   H3045     1.0  0.95252  0.94648  0.93788  1.0000
  C   C3820     1.0  0.94793  0.89500  0.61860  1.0000
  H   H3046     1.0  0.91421  0.79736  0.60116  1.0000
  P   P128      1.0  0.91401  0.68125  0.61545  1.0000
  H   H3047     1.0  0.89818  0.69498  0.79447  1.0000
  C   C3821     1.0  0.97915  0.82236  0.91691  1.0000
  C   C3822     1.0  0.75830  0.84665  0.54032  1.0000
  H   H3048     1.0  0.95138  0.80319  0.97895  1.0000
  H   H3049     1.0  0.78307  0.83284  0.97386  1.0000
  C   C3823     1.0  0.95526  0.76039  0.58665  1.0000
  H   H3050     1.0  0.96617  0.69241  0.93336  1.0000
  H   H3051     1.0  0.94205  0.71065  0.50232  1.0000
  H   H3052     1.0  0.80293  0.78966  0.97063  1.0000
  C   C3824     1.0  0.76154  0.65809  0.66404  1.0000
  C   C3825     1.0  0.95963  0.76676  0.49770  1.0000
  H   H3053     1.0  0.84720  0.87638  0.52365  1.0000
  C   C3826     1.0  0.98393  0.69890  0.61327  1.0000
  H   H3054     1.0  0.93677  0.68787  0.78481  1.0000
  C   C3827     1.0  0.93849  0.92103  0.50506  1.0000
  H   H3055     1.0  0.96861  0.68820  0.87168  1.0000
  H   H3056     1.0  0.76054  0.88395  0.74702  1.0000
  S   S512      1.0  0.86516  0.98209  0.96452  1.0000
  H   H3057     1.0  0.98426  0.87724  0.70902  1.0000
  C   C3828     1.0  0.97155  0.67091  0.74722  1.0000
  H   H3058     1.0  0.81458  0.85397  0.97407  1.0000
  H   H3059     1.0  0.74856  0.79871  0.65332  1.0000
  C   C3829     1.0  0.97564  0.81200  0.54468  1.0000
  C   C3830     1.0  0.96387  0.69857  0.71307  1.0000
  Fe  Fe256     1.0  0.85067  0.95996  0.50198  1.0000
  H   H3060     1.0  0.96024  0.77594  0.51642  1.0000
  C   C3831     1.0  0.89891  0.77069  0.50227  1.0000
  H   H3061     1.0  0.95270  0.70733  0.69939  1.0000
  C   C3832     1.0  0.98494  0.66257  0.92699  1.0000
  C   C3833     1.0  0.91941  0.88320  0.49491  1.0000
  C   C3834     1.0  0.83101  0.65782  0.80786  1.0000
  H   H3062     1.0  0.98491  0.98226  0.56506  1.0000
  H   H3063     1.0  0.94123  0.74614  0.98041  1.0000
  H   H3064     1.0  0.97585  0.71354  0.83478  1.0000
  H   H3065     1.0  0.95610  0.88524  0.97391  1.0000
  H   H3066     1.0  0.98612  0.67826  0.80306  1.0000
  C   C3835     1.0  0.78013  0.77080  0.98949  1.0000
  H   H3067     1.0  0.83894  0.98247  0.59978  1.0000
  H   H3068     1.0  0.74303  0.84560  0.70103  1.0000
  C   C3836     1.0  0.76627  0.82355  0.50124  1.0000
  H   H3069     1.0  0.78474  0.66853  0.81839  1.0000
  C   C3837     1.0  0.74244  0.66674  0.67574  1.0000
  C   C3838     1.0  0.79794  0.78275  0.98951  1.0000
  H   H3070     1.0  0.98814  0.79898  0.54395  1.0000
  H   H3071     1.0  0.92896  0.66845  0.84237  1.0000
  C   C3839     1.0  0.97091  0.85455  0.98658  1.0000
  C   C3840     1.0  0.98649  0.66277  0.81259  1.0000
  H   H3072     1.0  0.89221  0.65786  0.84457  1.0000
