data_image0
_chemical_formula_structural       FeS2FeS2FeSFeS3H2C3FeS2FeS2FeSCFeSFeCSHS2FeHFeS2FeSFeS3C6H2SHC3H2C4H2CHC6H3SCHCH2C6H2CHC6H4C6H4CHPC2HC6H2C2H10CHCH2CHC3H2CH2CHPC12H9C7PC3H3C2HSHC7H8CH4CH6CH2C2SC2H3C6H2C2H4C2HCH2CHCHC2HC2FeHCPC4HSC2H2CH2CH5CH2SHC2H2C2HC3HCHCH4CHCFeCHCHC2HC2SC5HC8H4C6HCSC2PC3H2C2HC3FeC4HFeHC3H3C2HC4HSH2CH2C2FeH2C3HCH2SH2C2HC2PH2C2HC2PH2C2HCHC7H3SCH5CH2CHCHC2H3CHC2HCFeS2CHSHCSCFeCSFeHCHS2CHC2H2C2HC5H2C2H3SCH2C7H4FeSFeS2FeS2FeSCFe2SFeHSCFeSFeS2FeSCSHC3HCHC4H3CHCHC6H5C6H4CH4C5PH4CH4CSC5HCH3C4HPC2SPC2HCHC5HCHPCHSC2SHC2H3SCHCHC2HC3HPC14H2C3H14C3PH2C2H2C4PC15H9CH2C6H2C2H2C2HCH2C4FeH4C6FeCHC2H2C3HC2FeHCH6C3SHCHC3HCFeHCPFeH4CHPC8HC3H3C3HCH5C3HCHCH6C4HC2H3C4HFeHCFeCSCHSC2SC3HC6H3CHCSC2PC2HCHCHCHC2HC3SHCHCHC2SHFeS2FeS2FeHFeS3FeS2HC2HSHSHSCFeHSFeCSHC2S2C3HCH2CFeCHC6H2SHC4HCHCHCHC4FeH3FeC2H2FeC2H3C2H3C6H4CSH3CH2C3PC5HC6HC2H2CH2CH5C6PC12HC5H16CHC7PC18H20C3H3C2HC3SH4CHC3H4CHCH2CH2CHC2HC2SCHC2HC2SC13HC3FeC4H2PHC3H7SHCHC4HC2H4SHPCH2C4SCFeC2HSCHSCH3C3SH2C2HC5HCH2CHCHCH2FeC2HCSHC3HCH3CHFeHPC2HC2H2CH2C4H2C2H4C3S2H2CH4SC2HC2HC2PCH2C4H3FeCSH4C3S2HCHC2HCHCH2CHC8H6C4H2CHC2HC4PHC8HCHCPC4HCHCH2CPC6HCHC2HCH2CHC3H2CH2CH2CH3C7HSHCHCHCH3CH3C3H2CH3CH3PC2H2C2H3CSHFeH2C4SC2HCH2CH2PC3H2C2HCHC3HCHC3HC3HSHCH2SC6HS2HC7HCH2C2HFeC6HCH2C2HFeHSCHCHCHS2CSCSCHC6H2FeCHC8HS2HSCH4C2PHCHCHCH2FeHCH2C2HCHCH3C2H2CHCHCH2C3HC3HCHCH2CH3C2SH4C2HFeCHC2HC2H2PFeCH2CHC2H5CHC2SH4CS2H4SCHC2HCHCPC2HC2FeC2HCHCSCH2C2SC6HCH2CHCHPHCH2C2H2C6HC2H5CHSH2CHCH2CH4CH5CHCHCH2CSHC3FeC7H3CH3C7HCHSH2CHCH2CHC3HC5HC2H2CH3CH2C2HFeC2H3C2HFeSCHCPCHC3HC5H2SC3H2CSH3FeHC3H3CH2C3HCSFeCSC2HCH2CHC2H6CH2CH3C3HCHCSC9HC3HCSCHC2PCFeCH2CHSC3PC7HC10HCH8C2H3CH4C2HCHC2H2CHCHCHCH2C2H2C5HCHCHSCHCHC2H2C2H2C4H2PH2SCHSCH5C4HCHCHC3HCHSH2CPCSC2H3PC2HCHC5HCH2CH4PC2HCSCFeCH4CH3CHC2HCH5CHC2HCHC6H6C2HC2H3C2H2C3HC2H2C3H2C3SCS2CHCH3C3H2C2HCFeC2H3CH2CHC2HCH2C2HCH2CH2SH2C3H3CH2CPC2SHC2H3SC2HC3FeCHCHCHS2C2H2C3HFeHC2HC3H4CHCSH3CHC2HCSCHC3HC5HC3PC9H2C3FeC3H2CH9CH3CHC3HCHFeCH2C3H3CSHC2H4SHPH3C2H2SCH2C2H2C3HC2HCSC2HSH2FeHCH2CFeC2FeH2CHCS2HCSC2HCSCSCHCFeSFeSCHFeS2FeS2FeSFeS2H3FeSHC6H4C3HSFeC5H3C5H4C10H2C7HC2H2C4H3CHCSHC2SC6H5C3SPCHC5H2CH4CHCHCHC2PHCSH2C3H4C6H2CH2CHFeHC2H2CH3C4H2C2H2CH4FeCH2C3H3C2PCHC3H2C11HC3H7C4H2C6PC18H24C3H5PSHCH2S2CH4CHC2HCH2C4HCHCHC2HCHPFeCHCHC2H2CHSHC4H2C5HC4HCH2CHSCH2CHC4HCHSHCHC2H2FeC2H4CHCFeCSHCFeSFeSCS2HCFeS2FeS2CHC4H4C3H2C6H4C2FeH2C3HCH2C3HCH3CSHC2SCSCHSFeSCFeS2FeS2C6H4C3H2CHC3HFeCSC5H2CHCH2C3H2CHC7H6C2FePC4H2C2FeCHC3H4C2SHFeC4HC2H4CSC2PH3C3FeC2SHSH2C2HCH5C5PC9H11C6PC2HCH5CHC4H7C2HCHCHC2H3C3HC2HC2HC4SC10PC18HCPH3CH14FeSC3SCHC3H2C2FeSHPFeC4S2CH5CH2SH3CH2C2HCH2CFeHCHCHFeHCHCHC3H2C2HC4H3C3H3C2H2C2HSH2C2SC7HC3FeC2H3CHCH3C2HCH6CHSHCHCHCHCHSCHC2H2CHC2H3C2FeHSFeH2CHCSHCHSFeS2FeSFeSHSHSHS2FeS2FeS2FeHFeS3FeHSFeS2C6H4SCHCHC6FeH2PC6H4C6H4C2H3C6H3FeCHC3H2C3SHC3H2C6PC18H21CHSPC12H3C2HCH8C2H6C2H3C6FeH2C3H5CH3CFeHC8HCH2C2H6CH3CSFeCH2CSC3FeHC3SHCHPC6HC7HC3H5C2H6CH3CHC2SC4SCH3C2SC5S2HSHSH4S4CHC2HC4HC2H2C2H2CFeCHPHC3H2PC6H2C6PHC2H2C6H2CFeHSCHCH2C2HC3HCHC2PC3H5CH3C2HC2H2C2HC3HCSCH2CHSHCHCH2C3
_chemical_formula_sum              "Fe128 S256 H1536 C1920 P64"
_cell_length_a       45.2187
_cell_length_b       44.7966
_cell_length_c       50.3742
_cell_angle_alpha    89.9991
_cell_angle_beta     90.0524
_cell_angle_gamma    86.6277

_space_group_name_H-M_alt    "P 1"
_space_group_IT_number       1

loop_
  _space_group_symop_operation_xyz
  'x, y, z'

loop_
  _atom_site_type_symbol
  _atom_site_label
  _atom_site_symmetry_multiplicity
  _atom_site_fract_x
  _atom_site_fract_y
  _atom_site_fract_z
  _atom_site_occupancy
  Fe  Fe1       1.0  0.31008  0.15592  0.21214  1.0000
  S   S1        1.0  0.32824  0.20128  0.21298  1.0000
  S   S2        1.0  0.33866  0.11262  0.21563  1.0000
  Fe  Fe2       1.0  0.24575  0.18150  0.20804  1.0000
  S   S3        1.0  0.25964  0.22877  0.20950  1.0000
  S   S4        1.0  0.19616  0.17488  0.20712  1.0000
  Fe  Fe3       1.0  0.29499  0.21293  0.18086  1.0000
  S   S5        1.0  0.30573  0.24300  0.14645  1.0000
  Fe  Fe4       1.0  0.29137  0.21324  0.24173  1.0000
  S   S6        1.0  0.30107  0.24389  0.27647  1.0000
  S   S7        1.0  0.27953  0.16641  0.17754  1.0000
  S   S8        1.0  0.27474  0.16702  0.24284  1.0000
  H   H1        1.0  0.15468  0.40842  0.22868  1.0000
  H   H2        1.0  0.40691  0.34528  0.11061  1.0000
  C   C1        1.0  0.48151  0.05585  0.29242  1.0000
  C   C2        1.0  0.44739  0.15385  0.02627  1.0000
  C   C3        1.0  0.40703  0.03042  0.02983  1.0000
  Fe  Fe5       1.0  0.30790  0.20853  0.99689  1.0000
  S   S9        1.0  0.27979  0.19436  0.03096  1.0000
  S   S10       1.0  0.35477  0.22071  0.00273  1.0000
  Fe  Fe6       1.0  0.02747  0.17879  0.06394  1.0000
  S   S11       1.0  0.04687  0.13158  0.06548  1.0000
  S   S12       1.0  0.02348  0.20823  0.02699  1.0000
  Fe  Fe7       1.0  0.01689  0.18007  0.12439  1.0000
  S   S13       1.0  0.03518  0.13285  0.12978  1.0000
  C   C4        1.0  0.48263  0.08566  0.13009  1.0000
  Fe  Fe8       1.0  0.07116  0.14604  0.10216  1.0000
  S   S14       1.0  0.12089  0.13581  0.10692  1.0000
  Fe  Fe9       1.0  0.00886  0.12329  0.09311  1.0000
  C   C5        1.0  0.33092  0.32510  0.26775  1.0000
  S   S15       1.0  0.05425  0.19396  0.09872  1.0000
  H   H3        1.0  0.11405  0.28450  0.28729  1.0000
  S   S16       1.0  0.02635  0.15991  0.27575  1.0000
  S   S17       1.0  0.31836  0.46129  0.28149  1.0000
  Fe  Fe10      1.0  0.36892  0.49114  0.09146  1.0000
  H   H4        1.0  0.18837  0.07766  0.09036  1.0000
  Fe  Fe11      1.0  0.34217  0.42964  0.08805  1.0000
  S   S18       1.0  0.29559  0.44986  0.09164  1.0000
  S   S19       1.0  0.34837  0.37886  0.08589  1.0000
  Fe  Fe12      1.0  0.31108  0.48365  0.06265  1.0000
  S   S20       1.0  0.28513  0.50263  0.02763  1.0000
  Fe  Fe13      1.0  0.31382  0.47875  0.12375  1.0000
  S   S21       1.0  0.28848  0.49427  0.16093  1.0000
  S   S22       1.0  0.35655  0.46200  0.05722  1.0000
  S   S23       1.0  0.35951  0.45639  0.12230  1.0000
  C   C6        1.0  0.31145  0.47248  0.24815  1.0000
  C   C7        1.0  0.29046  0.49550  0.24169  1.0000
  C   C8        1.0  0.28396  0.50208  0.21488  1.0000
  C   C9        1.0  0.29877  0.48618  0.19426  1.0000
  C   C10       1.0  0.32048  0.46382  0.20072  1.0000
  C   C11       1.0  0.32669  0.45699  0.22755  1.0000
  H   H5        1.0  0.09356  0.49345  0.18691  1.0000
  H   H6        1.0  0.28653  0.07536  0.17919  1.0000
  S   S24       1.0  0.99939  0.20841  0.15893  1.0000
  H   H7        1.0  0.34339  0.43963  0.23237  1.0000
  C   C12       1.0  0.31264  0.46206  0.99287  1.0000
  C   C13       1.0  0.29773  0.49010  0.99622  1.0000
  C   C14       1.0  0.11154  0.11814  0.24501  1.0000
  H   H8        1.0  0.31737  0.44787  0.00990  1.0000
  H   H9        1.0  0.37994  0.06621  0.01242  1.0000
  C   C15       1.0  0.10022  0.29893  0.27456  1.0000
  C   C16       1.0  0.02038  0.16487  0.98784  1.0000
  C   C17       1.0  0.01934  0.19536  0.99396  1.0000
  C   C18       1.0  0.17080  0.23343  0.10003  1.0000
  H   H10       1.0  0.02343  0.14855  0.00356  1.0000
  H   H11       1.0  0.24326  0.10080  0.15639  1.0000
  C   C19       1.0  0.00551  0.19366  0.19123  1.0000
  H   H12       1.0  0.42883  0.19361  0.00700  1.0000
  C   C20       1.0  0.99565  0.19605  0.23893  1.0000
  C   C21       1.0  0.01718  0.17285  0.24341  1.0000
  C   C22       1.0  0.03229  0.15971  0.22166  1.0000
  C   C23       1.0  0.02660  0.17013  0.19576  1.0000
  C   C24       1.0  0.40642  0.02786  0.10796  1.0000
  C   C25       1.0  0.43442  0.18296  0.02581  1.0000
  H   H13       1.0  0.04879  0.14165  0.22481  1.0000
  H   H14       1.0  0.03926  0.16051  0.17945  1.0000
  H   H15       1.0  0.05025  0.39352  0.13054  1.0000
  S   S25       1.0  0.01083  0.48601  0.21230  1.0000
  C   C26       1.0  0.09408  0.21889  0.25884  1.0000
  H   H16       1.0  0.02436  0.04562  0.12531  1.0000
  C   C27       1.0  0.01543  0.34095  0.16536  1.0000
  H   H17       1.0  0.12627  0.21864  0.10271  1.0000
  H   H18       1.0  0.38253  0.15571  0.20130  1.0000
  C   C28       1.0  0.34737  0.35921  0.05526  1.0000
  C   C29       1.0  0.34504  0.32804  0.05549  1.0000
  C   C30       1.0  0.34669  0.31136  0.03173  1.0000
  C   C31       1.0  0.35023  0.32576  0.00739  1.0000
  C   C32       1.0  0.35169  0.35703  0.00707  1.0000
  C   C33       1.0  0.35022  0.37370  0.03084  1.0000
  H   H19       1.0  0.34253  0.31667  0.07422  1.0000
  H   H20       1.0  0.34566  0.28732  0.03233  1.0000
  C   C34       1.0  0.43568  0.18459  0.07373  1.0000
  H   H21       1.0  0.35193  0.39767  0.03030  1.0000
  C   C35       1.0  0.17596  0.16342  0.17903  1.0000
  C   C36       1.0  0.18898  0.15998  0.15394  1.0000
  C   C37       1.0  0.17185  0.15160  0.13204  1.0000
  C   C38       1.0  0.14145  0.14712  0.13486  1.0000
  C   C39       1.0  0.12842  0.15069  0.15993  1.0000
  C   C40       1.0  0.14570  0.15847  0.18192  1.0000
  H   H22       1.0  0.21220  0.16381  0.15139  1.0000
  H   H23       1.0  0.18215  0.14898  0.11276  1.0000
  H   H24       1.0  0.10516  0.14701  0.16248  1.0000
  H   H25       1.0  0.13555  0.16063  0.20127  1.0000
  C   C41       1.0  0.29871  0.22924  0.11436  1.0000
  C   C42       1.0  0.28127  0.20481  0.11071  1.0000
  C   C43       1.0  0.27582  0.19423  0.08505  1.0000
  C   C44       1.0  0.28797  0.20777  0.06283  1.0000
  C   C45       1.0  0.30534  0.23229  0.06637  1.0000
  C   C46       1.0  0.31043  0.24318  0.09207  1.0000
  H   H26       1.0  0.27145  0.19438  0.12758  1.0000
  H   H27       1.0  0.26198  0.17555  0.08241  1.0000
  H   H28       1.0  0.31441  0.24319  0.04932  1.0000
  H   H29       1.0  0.32338  0.26248  0.09460  1.0000
  C   C47       1.0  0.47144  0.08601  0.10420  1.0000
  H   H30       1.0  0.35765  0.52189  0.18355  1.0000
  P   P1        1.0  0.18312  0.16567  0.03159  1.0000
  C   C48       1.0  0.37791  0.11034  0.21390  1.0000
  C   C49       1.0  0.39326  0.08297  0.21980  1.0000
  H   H31       1.0  0.38106  0.06418  0.22615  1.0000
  C   C50       1.0  0.20880  0.32159  0.22091  1.0000
  C   C51       1.0  0.22441  0.30628  0.20062  1.0000
  C   C52       1.0  0.25537  0.30447  0.20083  1.0000
  C   C53       1.0  0.27072  0.31781  0.22135  1.0000
  C   C54       1.0  0.25521  0.33349  0.24158  1.0000
  C   C55       1.0  0.22413  0.33530  0.24122  1.0000
  H   H32       1.0  0.19197  0.40418  0.19258  1.0000
  H   H33       1.0  0.31502  0.39454  0.24176  1.0000
  C   C56       1.0  0.37475  0.34571  0.24927  1.0000
  C   C57       1.0  0.35791  0.37153  0.24190  1.0000
  H   H34       1.0  0.36842  0.38953  0.23189  1.0000
  H   H35       1.0  0.27152  0.10249  0.05825  1.0000
  H   H36       1.0  0.35347  0.40893  0.29757  1.0000
  H   H37       1.0  0.01464  0.23996  0.97780  1.0000
  H   H38       1.0  0.18485  0.32321  0.22079  1.0000
  H   H39       1.0  0.21265  0.29570  0.18475  1.0000
  H   H40       1.0  0.26758  0.29247  0.18517  1.0000
  H   H41       1.0  0.29458  0.31603  0.22121  1.0000
  H   H42       1.0  0.47255  0.03812  0.06140  1.0000
  H   H43       1.0  0.39823  0.34362  0.24492  1.0000
  C   C58       1.0  0.21932  0.22172  0.97799  1.0000
  H   H44       1.0  0.08437  0.15620  0.25796  1.0000
  C   C59       1.0  0.24314  0.28666  0.02745  1.0000
  H   H45       1.0  0.35431  0.36843  0.98835  1.0000
  H   H46       1.0  0.34335  0.13018  0.00338  1.0000
  C   C60       1.0  0.26961  0.11893  0.12535  1.0000
  H   H47       1.0  0.09287  0.10594  0.23853  1.0000
  C   C61       1.0  0.40291  0.19020  0.15095  1.0000
  C   C62       1.0  0.14875  0.15572  0.01677  1.0000
  C   C63       1.0  0.40914  0.30982  0.08229  1.0000
  H   H48       1.0  0.25090  0.13109  0.11608  1.0000
  H   H49       1.0  0.30114  0.13514  0.09793  1.0000
  C   C64       1.0  0.20137  0.20971  0.06573  1.0000
  H   H50       1.0  0.41311  0.20910  0.15968  1.0000
  H   H51       1.0  0.44426  0.16458  0.14520  1.0000
  C   C65       1.0  0.41363  0.04632  0.15239  1.0000
  H   H52       1.0  0.06944  0.05976  0.14925  1.0000
  P   P2        1.0  0.37699  0.32201  0.15793  1.0000
  C   C66       1.0  0.33888  0.33671  0.15618  1.0000
  C   C67       1.0  0.39999  0.35233  0.16651  1.0000
  C   C68       1.0  0.42145  0.34902  0.18667  1.0000
  C   C69       1.0  0.43855  0.37291  0.19350  1.0000
  C   C70       1.0  0.43439  0.40026  0.18028  1.0000
  C   C71       1.0  0.41309  0.40377  0.16026  1.0000
  C   C72       1.0  0.39585  0.38000  0.15347  1.0000
  C   C73       1.0  0.32927  0.36152  0.17168  1.0000
  C   C74       1.0  0.30002  0.37334  0.16996  1.0000
  C   C75       1.0  0.27995  0.36012  0.15316  1.0000
  C   C76       1.0  0.28912  0.33500  0.13817  1.0000
  C   C77       1.0  0.31845  0.32335  0.13965  1.0000
  H   H53       1.0  0.42510  0.32816  0.19724  1.0000
  H   H54       1.0  0.42372  0.04362  0.17183  1.0000
  H   H55       1.0  0.12895  0.20097  0.01703  1.0000
  H   H56       1.0  0.40999  0.42492  0.14989  1.0000
  H   H57       1.0  0.34445  0.37215  0.18475  1.0000
  H   H58       1.0  0.29314  0.39319  0.18118  1.0000
  H   H59       1.0  0.25744  0.36956  0.15144  1.0000
  H   H60       1.0  0.27375  0.32473  0.12498  1.0000
  H   H61       1.0  0.32504  0.30409  0.12766  1.0000
  C   C78       1.0  0.23949  0.32517  0.98338  1.0000
  C   C79       1.0  0.10236  0.24520  0.15431  1.0000
  C   C80       1.0  0.13047  0.23263  0.16059  1.0000
  C   C81       1.0  0.14907  0.24773  0.17737  1.0000
  C   C82       1.0  0.13953  0.27554  0.18792  1.0000
  C   C83       1.0  0.11118  0.28838  0.18190  1.0000
  C   C84       1.0  0.09267  0.27288  0.16496  1.0000
  P   P3        1.0  0.09868  0.32406  0.19623  1.0000
  C   C85       1.0  0.06763  0.34008  0.17724  1.0000
  C   C86       1.0  0.08868  0.31933  0.23073  1.0000
  C   C87       1.0  0.06405  0.33557  0.24160  1.0000
  H   H62       1.0  0.27865  0.50768  0.25733  1.0000
  H   H63       1.0  0.21702  0.13614  0.98861  1.0000
  H   H64       1.0  0.16247  0.10891  0.01152  1.0000
  C   C88       1.0  0.10682  0.30112  0.24753  1.0000
  C   C89       1.0  0.07137  0.36343  0.15912  1.0000
  H   H65       1.0  0.45516  0.37020  0.20896  1.0000
  S   S26       1.0  0.47937  0.09934  0.20363  1.0000
  H   H66       1.0  0.03768  0.34502  0.27642  1.0000
  C   C90       1.0  0.03943  0.32887  0.18014  1.0000
  C   C91       1.0  0.12842  0.34926  0.19514  1.0000
  C   C92       1.0  0.14924  0.34742  0.17443  1.0000
  C   C93       1.0  0.17219  0.36705  0.17364  1.0000
  C   C94       1.0  0.17438  0.38876  0.19338  1.0000
  C   C95       1.0  0.15344  0.39106  0.21379  1.0000
  C   C96       1.0  0.13042  0.37153  0.21459  1.0000
  H   H67       1.0  0.08782  0.23320  0.14151  1.0000
  H   H68       1.0  0.13790  0.21120  0.15232  1.0000
  H   H69       1.0  0.17078  0.23756  0.18229  1.0000
  H   H70       1.0  0.15429  0.28694  0.20077  1.0000
  H   H71       1.0  0.07066  0.28178  0.15991  1.0000
  H   H72       1.0  0.05001  0.35046  0.22948  1.0000
  H   H73       1.0  0.15102  0.34967  0.27038  1.0000
  H   H74       1.0  0.06474  0.08501  0.19295  1.0000
  C   C97       1.0  0.20774  0.44418  0.98109  1.0000
  H   H75       1.0  0.12602  0.28856  0.23992  1.0000
  H   H76       1.0  0.09264  0.37282  0.15640  1.0000
  H   H77       1.0  0.44772  0.41875  0.18544  1.0000
  H   H78       1.0  0.11624  0.09621  0.98930  1.0000
  C   C98       1.0  0.23302  0.12923  0.04562  1.0000
  H   H79       1.0  0.03578  0.31105  0.19411  1.0000
  H   H80       1.0  0.14751  0.33113  0.15869  1.0000
  H   H81       1.0  0.18808  0.36568  0.15753  1.0000
  H   H82       1.0  0.25265  0.44685  0.99457  1.0000
  H   H83       1.0  0.19292  0.22660  0.01313  1.0000
  H   H84       1.0  0.11390  0.37424  0.23012  1.0000
  C   C99       1.0  0.19797  0.22986  0.08685  1.0000
  H   H85       1.0  0.16818  0.24892  0.11646  1.0000
  H   H86       1.0  0.21658  0.24230  0.09318  1.0000
  C   C100      1.0  0.26698  0.31771  0.99540  1.0000
  C   C101      1.0  0.20414  0.52091  0.02726  1.0000
  S   S27       1.0  0.35367  0.30555  0.97707  1.0000
  C   C102      1.0  0.19217  0.24623  0.24755  1.0000
  C   C103      1.0  0.09665  0.14112  0.99077  1.0000
  H   H87       1.0  0.16247  0.11897  0.06587  1.0000
  H   H88       1.0  0.22257  0.20692  0.05582  1.0000
  H   H89       1.0  0.19569  0.28611  0.02439  1.0000
  C   C104      1.0  0.09281  0.21570  0.23113  1.0000
  C   C105      1.0  0.06923  0.22926  0.21673  1.0000
  C   C106      1.0  0.10673  0.14661  0.25611  1.0000
  C   C107      1.0  0.44517  0.07479  0.04469  1.0000
  C   C108      1.0  0.15365  0.48780  0.02856  1.0000
  C   C109      1.0  0.31379  0.35093  0.26032  1.0000
  H   H90       1.0  0.99360  0.33270  0.16831  1.0000
  H   H91       1.0  0.43112  0.19655  0.09211  1.0000
  C   C110      1.0  0.29817  0.12118  0.11516  1.0000
  C   C111      1.0  0.38752  0.30572  0.12620  1.0000
  H   H92       1.0  0.33486  0.16682  0.13551  1.0000
  H   H93       1.0  0.10963  0.20214  0.22069  1.0000
  H   H94       1.0  0.06747  0.22544  0.19559  1.0000
  H   H95       1.0  0.28720  0.32645  0.98787  1.0000
  C   C112      1.0  0.04730  0.37533  0.14430  1.0000
  C   C113      1.0  0.42828  0.19818  0.04950  1.0000
  H   H96       1.0  0.39106  0.08833  0.16196  1.0000
  C   C114      1.0  0.16471  0.23383  0.25078  1.0000
  H   H97       1.0  0.20129  0.46713  0.98626  1.0000
  H   H98       1.0  0.38114  0.24158  0.09057  1.0000
  C   C115      1.0  0.37215  0.19055  0.14836  1.0000
  H   H99       1.0  0.41912  0.32327  0.06722  1.0000
  C   C116      1.0  0.07109  0.23555  0.27185  1.0000
  H   H100      1.0  0.42110  0.12159  0.12542  1.0000
  C   C117      1.0  0.20210  0.13375  0.04716  1.0000
  C   C118      1.0  0.21558  0.29486  0.01621  1.0000
  H   H101      1.0  0.23908  0.44403  0.21777  1.0000
  C   C119      1.0  0.01718  0.08396  0.19416  1.0000
  C   C120      1.0  0.04515  0.07796  0.18289  1.0000
  Fe  Fe14      1.0  0.99134  0.40362  0.22225  1.0000
  H   H102      1.0  0.14423  0.08395  0.23281  1.0000
  C   C121      1.0  0.24533  0.40352  0.97792  1.0000
  P   P4        1.0  0.12394  0.20022  0.27756  1.0000
  C   C122      1.0  0.38824  0.05338  0.10197  1.0000
  C   C123      1.0  0.35773  0.28877  0.20085  1.0000
  C   C124      1.0  0.15074  0.19612  0.07141  1.0000
  C   C125      1.0  0.40199  0.32232  0.10705  1.0000
  H   H103      1.0  0.24480  0.27128  0.04409  1.0000
  S   S28       1.0  0.32425  0.51486  0.09480  1.0000
  C   C126      1.0  0.23676  0.43283  0.98544  1.0000
  C   C127      1.0  0.14721  0.21654  0.09228  1.0000
  H   H104      1.0  0.24117  0.45314  0.30240  1.0000
  H   H105      1.0  0.19221  0.32022  0.98576  1.0000
  C   C128      1.0  0.39405  0.13452  0.20591  1.0000
  H   H106      1.0  0.24324  0.30084  0.28532  1.0000
  H   H107      1.0  0.10633  0.48077  0.29325  1.0000
  C   C129      1.0  0.23771  0.45143  0.25995  1.0000
  H   H108      1.0  0.43560  0.05841  0.22214  1.0000
  H   H109      1.0  0.17864  0.16200  0.26734  1.0000
  H   H110      1.0  0.45475  0.14567  0.09324  1.0000
  H   H111      1.0  0.38238  0.15367  0.07733  1.0000
  H   H112      1.0  0.07066  0.23763  0.29322  1.0000
  C   C130      1.0  0.29139  0.50806  0.97396  1.0000
  H   H113      1.0  0.33752  0.30274  0.20010  1.0000
  H   H114      1.0  0.35863  0.20973  0.15520  1.0000
  S   S29       1.0  0.03826  0.41773  0.22169  1.0000
  H   H115      1.0  0.19775  0.25609  0.22875  1.0000
  C   C131      1.0  0.18620  0.11506  0.06352  1.0000
  C   C132      1.0  0.26872  0.29838  0.01724  1.0000
  H   H116      1.0  0.24303  0.06886  0.08642  1.0000
  H   H117      1.0  0.13257  0.18237  0.06650  1.0000
  C   C133      1.0  0.20425  0.21084  0.99983  1.0000
  C   C134      1.0  0.26529  0.10185  0.14807  1.0000
  H   H118      1.0  0.37927  0.38321  0.13797  1.0000
  C   C135      1.0  0.42042  0.16524  0.14266  1.0000
  C   C136      1.0  0.38046  0.29267  0.18252  1.0000
  C   C137      1.0  0.21774  0.16006  0.98595  1.0000
  H   H119      1.0  0.08630  0.46981  0.10487  1.0000
  C   C138      1.0  0.28960  0.08744  0.16084  1.0000
  H   H120      1.0  0.41336  0.10518  0.02477  1.0000
  C   C139      1.0  0.35876  0.16601  0.13738  1.0000
  H   H121      1.0  0.24593  0.14410  0.03410  1.0000
  H   H122      1.0  0.22984  0.47467  0.25817  1.0000
  H   H123      1.0  0.18684  0.11243  0.24730  1.0000
  H   H124      1.0  0.07030  0.47527  0.05772  1.0000
  C   C140      1.0  0.32264  0.10598  0.12740  1.0000
  H   H125      1.0  0.42411  0.27634  0.16960  1.0000
  C   C141      1.0  0.21323  0.24399  0.26788  1.0000
  Fe  Fe15      1.0  0.34299  0.25680  0.97301  1.0000
  C   C142      1.0  0.31816  0.08954  0.15062  1.0000
  H   H126      1.0  0.32735  0.07831  0.07300  1.0000
  C   C143      1.0  0.40635  0.27376  0.18370  1.0000
  H   H127      1.0  0.31972  0.08800  0.02503  1.0000
  C   C144      1.0  0.24395  0.43919  0.28496  1.0000
  C   C145      1.0  0.01390  0.45521  0.11223  1.0000
  H   H128      1.0  0.08285  0.18774  0.99492  1.0000
  C   C146      1.0  0.18001  0.47627  0.04014  1.0000
  C   C147      1.0  0.20088  0.09164  0.07749  1.0000
  S   S30       1.0  0.04660  0.47250  0.28174  1.0000
  C   C148      1.0  0.06349  0.46677  0.09955  1.0000
  C   C149      1.0  0.17769  0.19299  0.05765  1.0000
  C   C150      1.0  0.40715  0.14071  0.13167  1.0000
  C   C151      1.0  0.14040  0.10572  0.24194  1.0000
  C   C152      1.0  0.15122  0.49330  0.29789  1.0000
  H   H129      1.0  0.29000  0.29219  0.02611  1.0000
  C   C153      1.0  0.37622  0.14079  0.12908  1.0000
  C   C154      1.0  0.33800  0.09665  0.06368  1.0000
  C   C155      1.0  0.38052  0.27629  0.12020  1.0000
  C   C156      1.0  0.40177  0.28073  0.07636  1.0000
  C   C157      1.0  0.33347  0.10215  0.03660  1.0000
  C   C158      1.0  0.24284  0.43410  0.23721  1.0000
  C   C159      1.0  0.26006  0.39180  0.26467  1.0000
  C   C160      1.0  0.39515  0.07162  0.14666  1.0000
  H   H130      1.0  0.14942  0.23433  0.23430  1.0000
  H   H131      1.0  0.36863  0.26326  0.13435  1.0000
  H   H132      1.0  0.40607  0.27186  0.05666  1.0000
  H   H133      1.0  0.33662  0.07879  0.16131  1.0000
  C   C161      1.0  0.40946  0.25147  0.20314  1.0000
  C   C162      1.0  0.36082  0.26641  0.22018  1.0000
  C   C163      1.0  0.02518  0.46541  0.06571  1.0000
  C   C164      1.0  0.38762  0.26387  0.09536  1.0000
  C   C165      1.0  0.39970  0.06035  0.02386  1.0000
  C   C166      1.0  0.24766  0.10566  0.05945  1.0000
  H   H134      1.0  0.22022  0.24556  0.97504  1.0000
  C   C167      1.0  0.41880  0.08245  0.03097  1.0000
  S   S31       1.0  0.05586  0.45353  0.15235  1.0000
  C   C168      1.0  0.05449  0.46993  0.07283  1.0000
  C   C169      1.0  0.42515  0.13102  0.20332  1.0000
  P   P5        1.0  0.35950  0.10919  0.11415  1.0000
  C   C170      1.0  0.35583  0.11497  0.07872  1.0000
  C   C171      1.0  0.34674  0.12591  0.02436  1.0000
  C   C172      1.0  0.04709  0.24665  0.22973  1.0000
  H   H135      1.0  0.02863  0.25683  0.21855  1.0000
  H   H136      1.0  0.45172  0.14231  0.00768  1.0000
  C   C173      1.0  0.42428  0.07956  0.21732  1.0000
  C   C174      1.0  0.38667  0.24777  0.22135  1.0000
  H   H137      1.0  0.34297  0.26326  0.23410  1.0000
  C   C175      1.0  0.07525  0.31457  0.28501  1.0000
  C   C176      1.0  0.04330  0.45913  0.11930  1.0000
  C   C177      1.0  0.25388  0.40440  0.23953  1.0000
  Fe  Fe16      1.0  0.02046  0.45574  0.24712  1.0000
  C   C178      1.0  0.47315  0.07988  0.27589  1.0000
  C   C179      1.0  0.36449  0.14421  0.03914  1.0000
  C   C180      1.0  0.36900  0.13886  0.06623  1.0000
  C   C181      1.0  0.14511  0.12624  0.00843  1.0000
  H   H138      1.0  0.38877  0.23017  0.23615  1.0000
  Fe  Fe17      1.0  0.02426  0.44656  0.18672  1.0000
  H   H139      1.0  0.43745  0.14972  0.19700  1.0000
  C   C182      1.0  0.38236  0.07551  0.12135  1.0000
  C   C183      1.0  0.04793  0.24963  0.25728  1.0000
  C   C184      1.0  0.44039  0.10336  0.20853  1.0000
  H   H140      1.0  0.46936  0.07820  0.14646  1.0000
  H   H141      1.0  0.42940  0.23683  0.20400  1.0000
  H   H142      1.0  0.37916  0.05564  0.08220  1.0000
  C   C185      1.0  0.44889  0.15555  0.07427  1.0000
  C   C186      1.0  0.20383  0.17992  0.00425  1.0000
  H   H143      1.0  0.33213  0.45151  0.18506  1.0000
  C   C187      1.0  0.23160  0.08680  0.07534  1.0000
  C   C188      1.0  0.98986  0.20643  0.21291  1.0000
  C   C189      1.0  0.32755  0.37424  0.24746  1.0000
  C   C190      1.0  0.01932  0.36425  0.14753  1.0000
  H   H144      1.0  0.37472  0.16258  0.02951  1.0000
  S   S32       1.0  0.01273  0.46732  0.03237  1.0000
  H   H145      1.0  0.03026  0.26234  0.26744  1.0000
  H   H146      1.0  0.21185  0.34768  0.25651  1.0000
  C   C191      1.0  0.13064  0.16282  0.26449  1.0000
  H   H147      1.0  0.26796  0.39512  0.98158  1.0000
  H   H148      1.0  0.41777  0.22048  0.04895  1.0000
  C   C192      1.0  0.21371  0.31416  0.99433  1.0000
  C   C193      1.0  0.98892  0.52231  0.14826  1.0000
  Fe  Fe18      1.0  0.03506  0.48383  0.99507  1.0000
  H   H149      1.0  0.00060  0.37399  0.13645  1.0000
  H   H150      1.0  0.33149  0.52326  0.27806  1.0000
  C   C194      1.0  0.05719  0.33289  0.26851  1.0000
  C   C195      1.0  0.02246  0.05563  0.14486  1.0000
  C   C196      1.0  0.04782  0.06368  0.15829  1.0000
  H   H151      1.0  0.13418  0.47478  0.02863  1.0000
  C   C197      1.0  0.25499  0.40950  0.28740  1.0000
  H   H152      1.0  0.07659  0.13551  0.98066  1.0000
  H   H153      1.0  0.01585  0.09551  0.21294  1.0000
  S   S33       1.0  0.41084  0.51690  0.09076  1.0000
  H   H154      1.0  0.18103  0.45435  0.04930  1.0000
  H   H155      1.0  0.14809  0.51315  0.28569  1.0000
  C   C198      1.0  0.16438  0.12164  0.25028  1.0000
  C   C199      1.0  0.00493  0.45830  0.08556  1.0000
  H   H156      1.0  0.27340  0.19333  0.30048  1.0000
  C   C200      1.0  0.15804  0.21917  0.27444  1.0000
  C   C201      1.0  0.15244  0.51597  0.01647  1.0000
  P   P6        1.0  0.27444  0.35331  0.26688  1.0000
  H   H157      1.0  0.25814  0.39147  0.22165  1.0000
  H   H158      1.0  0.99822  0.44913  0.12719  1.0000
  C   C202      1.0  0.15957  0.14999  0.26166  1.0000
  C   C203      1.0  0.45457  0.13978  0.05051  1.0000
  H   H159      1.0  0.23500  0.25238  0.26492  1.0000
  C   C204      1.0  0.36130  0.32264  0.26243  1.0000
  C   C205      1.0  0.20526  0.49281  0.03944  1.0000
  P   P7        1.0  0.47200  0.10233  0.05081  1.0000
  H   H160      1.0  0.00872  0.50849  0.15286  1.0000
  H   H161      1.0  0.37429  0.30257  0.26820  1.0000
  C   C206      1.0  0.45080  0.10084  0.28379  1.0000
  C   C207      1.0  0.40053  0.50873  0.01480  1.0000
  H   H162      1.0  0.26718  0.51945  0.21006  1.0000
  C   C208      1.0  0.12632  0.17793  0.01145  1.0000
  H   H163      1.0  0.40578  0.49653  0.03296  1.0000
  C   C209      1.0  0.40456  0.49470  0.99018  1.0000
  C   C210      1.0  0.45200  0.04470  0.05129  1.0000
  C   C211      1.0  0.17950  0.21676  0.29469  1.0000
  C   C212      1.0  0.10025  0.17057  0.99871  1.0000
  C   C213      1.0  0.11904  0.11897  0.99563  1.0000
  C   C214      1.0  0.99152  0.07569  0.18091  1.0000
  C   C215      1.0  0.99443  0.06175  0.15600  1.0000
  H   H164      1.0  0.44920  0.07915  0.10082  1.0000
  H   H165      1.0  0.99498  0.26276  0.06974  1.0000
  H   H166      1.0  0.41248  0.47142  0.98924  1.0000
  S   S34       1.0  0.98810  0.16975  0.08940  1.0000
  C   C216      1.0  0.20682  0.22941  0.29149  1.0000
  H   H167      1.0  0.32078  0.30666  0.27747  1.0000
  H   H168      1.0  0.48416  0.08230  0.25703  1.0000
  H   H169      1.0  0.44444  0.11943  0.27079  1.0000
  H   H170      1.0  0.17156  0.30245  0.29091  1.0000
  H   H171      1.0  0.22590  0.48376  0.04806  1.0000
  C   C217      1.0  0.18690  0.42586  0.97028  1.0000
  H   H172      1.0  0.38317  0.50812  0.29019  1.0000
  H   H173      1.0  0.99800  0.51348  0.27370  1.0000
  C   C218      1.0  0.07958  0.51367  0.18988  1.0000
  H   H174      1.0  0.08507  0.51350  0.23239  1.0000
  C   C219      1.0  0.01560  0.21631  0.97327  1.0000
  H   H175      1.0  0.06827  0.51750  0.14871  1.0000
  C   C220      1.0  0.15872  0.34960  0.29075  1.0000
  C   C221      1.0  0.26967  0.33656  0.29919  1.0000
  H   H176      1.0  0.44876  0.11020  0.97016  1.0000
  H   H177      1.0  0.99977  0.43661  0.30184  1.0000
  H   H178      1.0  0.14795  0.39639  0.29607  1.0000
  C   C222      1.0  0.25371  0.31080  0.30215  1.0000
  H   H179      1.0  0.38975  0.36563  0.30242  1.0000
  C   C223      1.0  0.17012  0.32300  0.30234  1.0000
  C   C224      1.0  0.07473  0.52490  0.21548  1.0000
  H   H180      1.0  0.13185  0.52427  0.00742  1.0000
  C   C225      1.0  0.12769  0.47509  0.30222  1.0000
  Fe  Fe19      1.0  0.31060  0.21371  0.43400  1.0000
  S   S35       1.0  0.28387  0.20470  0.39674  1.0000
  S   S36       1.0  0.35596  0.23139  0.43551  1.0000
  C   C226      1.0  0.35443  0.08098  0.53824  1.0000
  H   H181      1.0  0.40491  0.27480  0.45418  1.0000
  S   S37       1.0  0.01529  0.21659  0.33634  1.0000
  H   H182      1.0  0.48296  0.19386  0.58483  1.0000
  C   C227      1.0  0.15470  0.51757  0.53703  1.0000
  S   S38       1.0  0.03255  0.18179  0.40804  1.0000
  C   C228      1.0  0.29434  0.06564  0.50821  1.0000
  Fe  Fe20      1.0  0.31068  0.48213  0.37914  1.0000
  C   C229      1.0  0.44373  0.04710  0.60887  1.0000
  S   S39       1.0  0.32766  0.44977  0.41083  1.0000
  Fe  Fe21      1.0  0.30481  0.48815  0.31858  1.0000
  H   H183      1.0  0.11275  0.43633  0.32192  1.0000
  C   C230      1.0  0.24744  0.03626  0.53053  1.0000
  H   H184      1.0  0.27204  0.50755  0.47865  1.0000
  S   S40       1.0  0.34181  0.49567  0.34724  1.0000
  S   S41       1.0  0.27547  0.47012  0.35023  1.0000
  C   C231      1.0  0.45635  0.07641  0.37979  1.0000
  H   H185      1.0  0.47432  0.03383  0.32935  1.0000
  C   C232      1.0  0.14481  0.50532  0.42685  1.0000
  C   C233      1.0  0.35504  0.39667  0.31612  1.0000
  H   H186      1.0  0.18797  0.30220  0.33792  1.0000
  H   H187      1.0  0.22238  0.46195  0.55784  1.0000
  C   C234      1.0  0.30207  0.07283  0.59427  1.0000
  C   C235      1.0  0.27482  0.03576  0.54353  1.0000
  H   H188      1.0  0.02036  0.30162  0.33546  1.0000
  C   C236      1.0  0.48238  0.33355  0.59425  1.0000
  C   C237      1.0  0.00758  0.31007  0.37602  1.0000
  C   C238      1.0  0.31852  0.46003  0.44372  1.0000
  C   C239      1.0  0.33382  0.44611  0.46507  1.0000
  C   C240      1.0  0.29594  0.48186  0.44885  1.0000
  H   H189      1.0  0.35103  0.42887  0.46127  1.0000
  H   H190      1.0  0.28340  0.49212  0.43268  1.0000
  C   C241      1.0  0.02006  0.18225  0.44142  1.0000
  C   C242      1.0  0.03735  0.16678  0.46080  1.0000
  H   H191      1.0  0.03085  0.03605  0.36165  1.0000
  H   H192      1.0  0.05716  0.15376  0.45490  1.0000
  H   H193      1.0  0.29862  0.36609  0.31896  1.0000
  S   S42       1.0  0.12166  0.49869  0.45464  1.0000
  C   C243      1.0  0.39127  0.19427  0.57875  1.0000
  H   H194      1.0  0.09379  0.22429  0.59176  1.0000
  H   H195      1.0  0.04748  0.48420  0.37838  1.0000
  C   C244      1.0  0.41106  0.25393  0.38246  1.0000
  C   C245      1.0  0.02492  0.36810  0.36734  1.0000
  C   C246      1.0  0.28323  0.20605  0.31609  1.0000
  C   C247      1.0  0.27939  0.19800  0.34282  1.0000
  C   C248      1.0  0.29182  0.21429  0.36345  1.0000
  C   C249      1.0  0.30827  0.23880  0.35706  1.0000
  C   C250      1.0  0.31150  0.24733  0.33028  1.0000
  H   H196      1.0  0.38486  0.32269  0.62055  1.0000
  H   H197      1.0  0.26655  0.17907  0.34758  1.0000
  H   H198      1.0  0.31760  0.25166  0.37280  1.0000
  H   H199      1.0  0.32342  0.26686  0.32550  1.0000
  Fe  Fe22      1.0  0.36735  0.19256  0.46292  1.0000
  S   S43       1.0  0.32294  0.17359  0.45935  1.0000
  Fe  Fe23      1.0  0.33981  0.25571  0.47257  1.0000
  S   S44       1.0  0.29341  0.24061  0.46915  1.0000
  S   S45       1.0  0.34400  0.30564  0.47729  1.0000
  Fe  Fe24      1.0  0.31068  0.20227  0.49460  1.0000
  S   S46       1.0  0.28546  0.18210  0.52822  1.0000
  S   S47       1.0  0.35612  0.21884  0.50011  1.0000
  Fe  Fe25      1.0  0.01440  0.16401  0.56511  1.0000
  S   S48       1.0  0.04253  0.12096  0.56534  1.0000
  C   C251      1.0  0.00014  0.34963  0.55795  1.0000
  Fe  Fe26      1.0  0.00613  0.16102  0.62597  1.0000
  Fe  Fe27      1.0  0.06457  0.13948  0.60196  1.0000
  S   S49       1.0  0.11501  0.14137  0.60538  1.0000
  Fe  Fe28      1.0  0.00858  0.10418  0.59379  1.0000
  H   H200      1.0  0.03571  0.35337  0.32773  1.0000
  S   S50       1.0  0.03809  0.18370  0.59987  1.0000
  C   C252      1.0  0.16879  0.14853  0.62971  1.0000
  Fe  Fe29      1.0  0.38105  0.48779  0.59409  1.0000
  S   S51       1.0  0.33400  0.50596  0.59639  1.0000
  Fe  Fe30      1.0  0.36257  0.42319  0.58789  1.0000
  S   S52       1.0  0.31414  0.43716  0.59038  1.0000
  S   S53       1.0  0.37571  0.37350  0.58386  1.0000
  Fe  Fe31      1.0  0.32595  0.47418  0.56301  1.0000
  S   S54       1.0  0.29667  0.48986  0.52888  1.0000
  C   C253      1.0  0.41350  0.40919  0.45280  1.0000
  S   S55       1.0  0.37367  0.45859  0.55847  1.0000
  H   H201      1.0  0.39517  0.05413  0.53081  1.0000
  C   C254      1.0  0.32732  0.45490  0.49137  1.0000
  C   C255      1.0  0.30519  0.47736  0.49639  1.0000
  C   C256      1.0  0.28936  0.49047  0.47503  1.0000
  H   H202      1.0  0.33949  0.44441  0.50769  1.0000
  C   C257      1.0  0.98770  0.39893  0.47087  1.0000
  H   H203      1.0  0.41474  0.03355  0.40340  1.0000
  C   C258      1.0  0.04444  0.25399  0.45271  1.0000
  C   C259      1.0  0.00451  0.18596  0.49585  1.0000
  C   C260      1.0  0.02942  0.16828  0.48785  1.0000
  C   C261      1.0  0.41736  0.03037  0.36069  1.0000
  H   H204      1.0  0.04299  0.15638  0.50256  1.0000
  H   H205      1.0  0.99132  0.38735  0.53202  1.0000
  H   H206      1.0  0.02013  0.27823  0.51321  1.0000
  C   C262      1.0  0.00766  0.29907  0.47589  1.0000
  H   H207      1.0  0.01926  0.36409  0.45836  1.0000
  C   C263      1.0  0.01373  0.45517  0.36615  1.0000
  H   H208      1.0  0.01036  0.37778  0.40679  1.0000
  C   C264      1.0  0.36561  0.35477  0.55447  1.0000
  C   C265      1.0  0.36676  0.32332  0.55386  1.0000
  C   C266      1.0  0.35954  0.30791  0.53057  1.0000
  C   C267      1.0  0.35150  0.32385  0.50754  1.0000
  C   C268      1.0  0.35023  0.35526  0.50817  1.0000
  C   C269      1.0  0.35703  0.37066  0.53156  1.0000
  H   H209      1.0  0.37298  0.31077  0.57147  1.0000
  H   H210      1.0  0.36048  0.28372  0.53036  1.0000
  H   H211      1.0  0.34387  0.36782  0.49049  1.0000
  H   H212      1.0  0.35602  0.39485  0.53174  1.0000
  H   H213      1.0  0.17667  0.15246  0.60981  1.0000
  C   C270      1.0  0.31190  0.20031  0.61424  1.0000
  C   C271      1.0  0.29242  0.17812  0.60835  1.0000
  C   C272      1.0  0.28441  0.17282  0.58189  1.0000
  C   C273      1.0  0.29571  0.18971  0.56118  1.0000
  C   C274      1.0  0.31472  0.21230  0.56712  1.0000
  C   C275      1.0  0.32255  0.21776  0.59361  1.0000
  H   H214      1.0  0.41052  0.31437  0.48764  1.0000
  H   H215      1.0  0.26938  0.15556  0.57742  1.0000
  H   H216      1.0  0.32310  0.22586  0.55139  1.0000
  H   H217      1.0  0.33705  0.23549  0.59809  1.0000
  C   C276      1.0  0.01320  0.36045  0.39192  1.0000
  H   H218      1.0  0.36087  0.12338  0.45916  1.0000
  H   H219      1.0  0.36003  0.06833  0.45876  1.0000
  H   H220      1.0  0.03122  0.39075  0.36389  1.0000
  H   H221      1.0  0.08605  0.19804  0.38533  1.0000
  C   C277      1.0  0.43178  0.28468  0.51630  1.0000
  C   C278      1.0  0.28488  0.34732  0.32117  1.0000
  C   C279      1.0  0.28318  0.33339  0.34591  1.0000
  C   C280      1.0  0.26693  0.30803  0.34876  1.0000
  C   C281      1.0  0.25245  0.29659  0.32683  1.0000
  P   P8        1.0  0.44730  0.08692  0.60637  1.0000
  H   H222      1.0  0.05314  0.47566  0.55807  1.0000
  H   H223      1.0  0.39470  0.33876  0.34485  1.0000
  H   H224      1.0  0.99357  0.52292  0.37603  1.0000
  H   H225      1.0  0.42347  0.42434  0.46649  1.0000
  C   C282      1.0  0.99630  0.44947  0.60972  1.0000
  H   H226      1.0  0.09041  0.15750  0.30828  1.0000
  H   H227      1.0  0.29504  0.34181  0.36272  1.0000
  H   H228      1.0  0.26638  0.29660  0.36773  1.0000
  H   H229      1.0  0.24121  0.27600  0.32877  1.0000
  C   C283      1.0  0.11836  0.22263  0.32912  1.0000
  S   S56       1.0  0.05190  0.45518  0.46160  1.0000
  C   C284      1.0  0.03684  0.47400  0.36178  1.0000
  C   C285      1.0  0.17062  0.46156  0.49864  1.0000
  C   C286      1.0  0.17377  0.43535  0.48354  1.0000
  C   C287      1.0  0.20198  0.42225  0.47824  1.0000
  C   C288      1.0  0.22706  0.43557  0.48783  1.0000
  H   H230      1.0  0.14861  0.47181  0.50173  1.0000
  C   C289      1.0  0.46333  0.13607  0.53977  1.0000
  H   H231      1.0  0.15426  0.42575  0.47543  1.0000
  H   H232      1.0  0.20441  0.40214  0.46632  1.0000
  H   H233      1.0  0.24908  0.42596  0.48343  1.0000
  C   C290      1.0  0.38101  0.07875  0.45830  1.0000
  C   C291      1.0  0.39558  0.39826  0.40869  1.0000
  C   C292      1.0  0.04665  0.47927  0.33582  1.0000
  C   C293      1.0  0.45351  0.12741  0.56481  1.0000
  H   H234      1.0  0.45501  0.06142  0.45671  1.0000
  P   P9        1.0  0.33332  0.05065  0.54987  1.0000
  C   C294      1.0  0.00653  0.05203  0.39610  1.0000
  C   C295      1.0  0.13891  0.14231  0.63357  1.0000
  S   S57       1.0  0.04431  0.51920  0.49314  1.0000
  P   P10       1.0  0.42732  0.06851  0.35664  1.0000
  C   C296      1.0  0.39389  0.09213  0.36139  1.0000
  C   C297      1.0  0.98818  0.27459  0.58509  1.0000
  H   H235      1.0  0.02745  0.05651  0.54209  1.0000
  C   C298      1.0  0.00649  0.35617  0.62319  1.0000
  H   H236      1.0  0.31232  0.07675  0.49896  1.0000
  C   C299      1.0  0.35716  0.13400  0.52892  1.0000
  C   C300      1.0  0.99583  0.32773  0.61884  1.0000
  C   C301      1.0  0.38783  0.10594  0.38599  1.0000
  C   C302      1.0  0.36241  0.12494  0.38931  1.0000
  C   C303      1.0  0.17857  0.48639  0.30995  1.0000
  H   H237      1.0  0.33406  0.13886  0.63576  1.0000
  C   C304      1.0  0.24866  0.51098  0.60217  1.0000
  H   H238      1.0  0.27683  0.24838  0.62863  1.0000
  P   P11       1.0  0.45811  0.24569  0.55413  1.0000
  C   C305      1.0  0.32809  0.05762  0.58496  1.0000
  H   H239      1.0  0.05789  0.23587  0.44370  1.0000
  S   S58       1.0  0.37475  0.45064  0.62358  1.0000
  C   C306      1.0  0.29826  0.05100  0.53274  1.0000
  C   C307      1.0  0.41057  0.20955  0.56275  1.0000
  S   S59       1.0  0.99478  0.19050  0.52978  1.0000
  H   H240      1.0  0.44377  0.26721  0.41047  1.0000
  C   C308      1.0  0.24320  0.48376  0.59011  1.0000
  C   C309      1.0  0.42721  0.24031  0.47780  1.0000
  H   H241      1.0  0.37736  0.18546  0.61877  1.0000
  H   H242      1.0  0.40262  0.10206  0.40269  1.0000
  H   H243      1.0  0.35818  0.13604  0.40817  1.0000
  S   S60       1.0  0.99392  0.14915  0.34636  1.0000
  C   C310      1.0  0.03321  0.36416  0.52311  1.0000
  H   H244      1.0  0.15448  0.47609  0.55898  1.0000
  C   C311      1.0  0.09082  0.28395  0.63367  1.0000
  H   H245      1.0  0.42286  0.29311  0.58122  1.0000
  C   C312      1.0  0.47612  0.09824  0.62829  1.0000
  C   C313      1.0  0.44208  0.25517  0.52207  1.0000
  H   H246      1.0  0.28348  0.16501  0.62410  1.0000
  C   C314      1.0  0.44006  0.23308  0.50241  1.0000
  C   C315      1.0  0.17777  0.34936  0.34357  1.0000
  C   C316      1.0  0.16667  0.37630  0.33201  1.0000
  H   H247      1.0  0.11000  0.52169  0.40057  1.0000
  P   P12       1.0  0.16363  0.41016  0.35179  1.0000
  C   C317      1.0  0.13138  0.41033  0.37296  1.0000
  C   C318      1.0  0.19689  0.41299  0.37148  1.0000
  C   C319      1.0  0.19618  0.42929  0.39533  1.0000
  C   C320      1.0  0.22230  0.43296  0.40957  1.0000
  C   C321      1.0  0.24928  0.42045  0.40019  1.0000
  C   C322      1.0  0.25021  0.40408  0.37659  1.0000
  C   C323      1.0  0.22420  0.40050  0.36216  1.0000
  C   C324      1.0  0.11959  0.43744  0.38365  1.0000
  C   C325      1.0  0.09422  0.43806  0.39947  1.0000
  C   C326      1.0  0.08009  0.41173  0.40442  1.0000
  C   C327      1.0  0.09177  0.38461  0.39407  1.0000
  C   C328      1.0  0.11730  0.38385  0.37836  1.0000
  C   C329      1.0  0.15902  0.44266  0.33059  1.0000
  C   C330      1.0  0.47652  0.05338  0.38845  1.0000
  H   H248      1.0  0.12285  0.24698  0.62731  1.0000
  H   H249      1.0  0.24336  0.47229  0.50962  1.0000
  C   C331      1.0  0.41628  0.26950  0.47263  1.0000
  C   C332      1.0  0.18242  0.46137  0.32647  1.0000
  C   C333      1.0  0.19570  0.47492  0.50851  1.0000
  H   H250      1.0  0.27760  0.08900  0.62862  1.0000
  H   H251      1.0  0.32281  0.14456  0.37096  1.0000
  H   H252      1.0  0.18497  0.34884  0.36411  1.0000
  H   H253      1.0  0.22081  0.41110  0.61290  1.0000
  H   H254      1.0  0.17575  0.43995  0.40274  1.0000
  H   H255      1.0  0.22176  0.44635  0.42751  1.0000
  H   H256      1.0  0.26956  0.42411  0.41091  1.0000
  H   H257      1.0  0.27127  0.39499  0.36914  1.0000
  H   H258      1.0  0.22555  0.38853  0.34351  1.0000
  H   H259      1.0  0.12991  0.45823  0.37971  1.0000
  H   H260      1.0  0.08541  0.45909  0.40774  1.0000
  H   H261      1.0  0.05996  0.41243  0.41612  1.0000
  H   H262      1.0  0.08082  0.36421  0.39804  1.0000
  H   H263      1.0  0.12566  0.36266  0.37035  1.0000
  C   C334      1.0  0.31430  0.30424  0.63397  1.0000
  C   C335      1.0  0.01989  0.07755  0.47732  1.0000
  C   C336      1.0  0.41914  0.29175  0.49164  1.0000
  P   P13       1.0  0.98649  0.32181  0.42733  1.0000
  H   H264      1.0  0.20345  0.45735  0.33648  1.0000
  H   H265      1.0  0.03070  0.27265  0.41536  1.0000
  C   C337      1.0  0.38666  0.12905  0.52117  1.0000
  C   C338      1.0  0.40003  0.10012  0.52176  1.0000
  H   H266      1.0  0.39889  0.14749  0.51401  1.0000
  H   H267      1.0  0.42252  0.09602  0.51478  1.0000
  C   C339      1.0  0.40972  0.30227  0.40423  1.0000
  C   C340      1.0  0.40394  0.38192  0.46189  1.0000
  C   C341      1.0  0.39007  0.36290  0.44443  1.0000
  C   C342      1.0  0.38575  0.37083  0.41770  1.0000
  P   P14       1.0  0.36470  0.34734  0.39640  1.0000
  C   C343      1.0  0.38317  0.31084  0.39108  1.0000
  C   C344      1.0  0.32917  0.34423  0.41255  1.0000
  C   C345      1.0  0.31484  0.31718  0.41272  1.0000
  C   C346      1.0  0.28785  0.31515  0.42596  1.0000
  C   C347      1.0  0.27513  0.33989  0.43951  1.0000
  C   C348      1.0  0.28937  0.36672  0.43980  1.0000
  C   C349      1.0  0.31620  0.36888  0.42640  1.0000
  C   C350      1.0  0.37136  0.29098  0.37282  1.0000
  C   C351      1.0  0.38509  0.26256  0.36875  1.0000
  C   C352      1.0  0.35960  0.36551  0.36451  1.0000
  C   C353      1.0  0.37791  0.35686  0.34296  1.0000
  C   C354      1.0  0.37540  0.37222  0.31883  1.0000
  C   C355      1.0  0.00021  0.44203  0.34434  1.0000
  C   C356      1.0  0.33716  0.40578  0.33755  1.0000
  C   C357      1.0  0.33923  0.39016  0.36160  1.0000
  H   H268      1.0  0.40645  0.37593  0.48265  1.0000
  H   H269      1.0  0.38199  0.34229  0.45186  1.0000
  H   H270      1.0  0.32461  0.29725  0.40354  1.0000
  H   H271      1.0  0.27738  0.29399  0.42651  1.0000
  H   H272      1.0  0.25468  0.33801  0.45039  1.0000
  H   H273      1.0  0.28006  0.38574  0.45089  1.0000
  H   H274      1.0  0.32720  0.38964  0.42748  1.0000
  H   H275      1.0  0.35130  0.29736  0.36193  1.0000
  H   H276      1.0  0.37543  0.24708  0.35514  1.0000
  C   C358      1.0  0.43445  0.07472  0.45733  1.0000
  H   H277      1.0  0.32203  0.42529  0.33556  1.0000
  H   H278      1.0  0.32569  0.39803  0.37812  1.0000
  C   C359      1.0  0.08681  0.17512  0.34773  1.0000
  C   C360      1.0  0.09340  0.19833  0.36487  1.0000
  C   C361      1.0  0.10894  0.22220  0.35553  1.0000
  C   C362      1.0  0.46735  0.05253  0.31675  1.0000
  C   C363      1.0  0.02306  0.27782  0.49187  1.0000
  C   C364      1.0  0.44585  0.29863  0.58205  1.0000
  H   H279      1.0  0.25251  0.46312  0.59862  1.0000
  H   H280      1.0  0.06333  0.47955  0.60665  1.0000
  C   C365      1.0  0.34242  0.12965  0.36835  1.0000
  C   C366      1.0  0.43168  0.22729  0.57435  1.0000
  H   H281      1.0  0.39186  0.40563  0.38846  1.0000
  H   H282      1.0  0.11344  0.24043  0.36877  1.0000
  C   C367      1.0  0.17946  0.32287  0.32879  1.0000
  C   C368      1.0  0.38145  0.11012  0.45840  1.0000
  H   H283      1.0  0.41983  0.31728  0.41787  1.0000
  C   C369      1.0  0.98723  0.20147  0.47647  1.0000
  H   H284      1.0  0.05244  0.23814  0.49259  1.0000
  H   H285      1.0  0.26392  0.07792  0.47659  1.0000
  C   C370      1.0  0.03258  0.07392  0.50254  1.0000
  C   C371      1.0  0.17563  0.49944  0.42933  1.0000
  C   C372      1.0  0.13361  0.51706  0.40288  1.0000
  C   C373      1.0  0.05829  0.25862  0.59318  1.0000
  Fe  Fe32      1.0  0.25778  0.51760  0.35608  1.0000
  H   H286      1.0  0.03863  0.37961  0.50755  1.0000
  H   H287      1.0  0.12972  0.24167  0.32207  1.0000
  H   H288      1.0  0.33183  0.11822  0.32805  1.0000
  H   H289      1.0  0.25997  0.40092  0.30697  1.0000
  C   C374      1.0  0.27749  0.31029  0.58677  1.0000
  C   C375      1.0  0.27228  0.28312  0.57406  1.0000
  C   C376      1.0  0.27454  0.28055  0.54645  1.0000
  C   C377      1.0  0.28181  0.30509  0.53120  1.0000
  C   C378      1.0  0.28681  0.33224  0.54356  1.0000
  C   C379      1.0  0.28508  0.33477  0.57119  1.0000
  Fe  Fe33      1.0  0.07107  0.50035  0.45816  1.0000
  C   C380      1.0  0.99230  0.06606  0.47178  1.0000
  H   H290      1.0  0.34742  0.13448  0.58840  1.0000
  C   C381      1.0  0.22626  0.48326  0.56686  1.0000
  C   C382      1.0  0.01037  0.29777  0.44807  1.0000
  H   H291      1.0  0.22217  0.05220  0.49653  1.0000
  H   H292      1.0  0.40872  0.20749  0.54144  1.0000
  C   C383      1.0  0.40839  0.12398  0.45802  1.0000
  C   C384      1.0  0.45294  0.32573  0.59347  1.0000
  C   C385      1.0  0.00087  0.07595  0.41382  1.0000
  H   H293      1.0  0.43286  0.30243  0.53070  1.0000
  C   C386      1.0  0.43319  0.22936  0.60217  1.0000
  C   C387      1.0  0.35058  0.04901  0.60315  1.0000
  Fe  Fe34      1.0  0.01818  0.47413  0.43261  1.0000
  H   H294      1.0  0.18465  0.49029  0.44768  1.0000
  C   C388      1.0  0.00996  0.44736  0.31838  1.0000
  H   H295      1.0  0.26706  0.26354  0.58517  1.0000
  H   H296      1.0  0.27113  0.25929  0.53689  1.0000
  H   H297      1.0  0.28426  0.30290  0.50985  1.0000
  H   H298      1.0  0.29299  0.35111  0.53177  1.0000
  H   H299      1.0  0.29036  0.35573  0.58025  1.0000
  H   H300      1.0  0.22353  0.22675  0.30688  1.0000
  C   C389      1.0  0.38414  0.07619  0.53048  1.0000
  C   C390      1.0  0.02271  0.46082  0.61870  1.0000
  C   C391      1.0  0.40751  0.06086  0.45798  1.0000
  S   S61       1.0  0.41000  0.16338  0.45919  1.0000
  H   H301      1.0  0.44953  0.24254  0.61164  1.0000
  C   C392      1.0  0.42353  0.27388  0.39996  1.0000
  H   H302      1.0  0.23232  0.35779  0.60222  1.0000
  C   C393      1.0  0.36324  0.12663  0.60336  1.0000
  C   C394      1.0  0.04300  0.47054  0.59987  1.0000
  C   C395      1.0  0.22387  0.46186  0.50274  1.0000
  H   H303      1.0  0.31814  0.11444  0.54332  1.0000
  C   C396      1.0  0.02773  0.34694  0.34704  1.0000
  Fe  Fe35      1.0  0.00296  0.18897  0.37169  1.0000
  H   H304      1.0  0.00407  0.41185  0.48061  1.0000
  C   C397      1.0  0.40933  0.41732  0.42622  1.0000
  P   P15       1.0  0.19231  0.51027  0.52582  1.0000
  Fe  Fe36      1.0  0.32694  0.46732  0.62378  1.0000
  H   H305      1.0  0.06475  0.49363  0.33267  1.0000
  H   H306      1.0  0.34652  0.15628  0.52787  1.0000
  H   H307      1.0  0.37462  0.18106  0.56974  1.0000
  H   H308      1.0  0.42509  0.22316  0.46289  1.0000
  C   C398      1.0  0.10180  0.25770  0.62123  1.0000
  H   H309      1.0  0.99983  0.28779  0.37851  1.0000
  P   P16       1.0  0.01281  0.30332  0.59385  1.0000
  C   C399      1.0  0.02703  0.05434  0.37553  1.0000
  C   C400      1.0  0.33774  0.31856  0.62218  1.0000
  C   C401      1.0  0.29883  0.23109  0.30969  1.0000
  C   C402      1.0  0.45950  0.09798  0.57383  1.0000
  C   C403      1.0  0.47703  0.07797  0.55810  1.0000
  C   C404      1.0  0.03726  0.46851  0.57240  1.0000
  C   C405      1.0  0.02035  0.32601  0.56524  1.0000
  C   C406      1.0  0.01784  0.05890  0.52240  1.0000
  H   H310      1.0  0.02526  0.36354  0.61211  1.0000
  C   C407      1.0  0.11295  0.19875  0.31201  1.0000
  C   C408      1.0  0.05305  0.34022  0.52969  1.0000
  C   C409      1.0  0.04670  0.32118  0.55068  1.0000
  H   H311      1.0  0.05362  0.08330  0.50688  1.0000
  H   H312      1.0  0.45584  0.11650  0.45710  1.0000
  H   H313      1.0  0.44623  0.12427  0.37999  1.0000
  C   C410      1.0  0.99034  0.04756  0.51712  1.0000
  C   C411      1.0  0.24445  0.36821  0.61793  1.0000
  C   C412      1.0  0.01924  0.31788  0.35143  1.0000
  H   H314      1.0  0.48331  0.05556  0.56500  1.0000
  C   C413      1.0  0.06353  0.29763  0.62592  1.0000
  H   H315      1.0  0.28502  0.08120  0.58061  1.0000
  H   H316      1.0  0.44113  0.14362  0.57704  1.0000
  H   H317      1.0  0.07362  0.33675  0.51881  1.0000
  H   H318      1.0  0.06264  0.30310  0.55563  1.0000
  H   H319      1.0  0.03137  0.08997  0.46253  1.0000
  C   C414      1.0  0.04240  0.08029  0.37272  1.0000
  C   C415      1.0  0.03723  0.10394  0.39047  1.0000
  C   C416      1.0  0.01637  0.10196  0.41076  1.0000
  H   H320      1.0  0.39644  0.11181  0.57534  1.0000
  C   C417      1.0  0.41167  0.10426  0.61555  1.0000
  H   H321      1.0  0.99767  0.24840  0.62067  1.0000
  C   C418      1.0  0.43488  0.10609  0.45739  1.0000
  H   H322      1.0  0.21878  0.50222  0.41115  1.0000
  H   H323      1.0  0.41591  0.43888  0.41934  1.0000
  H   H324      1.0  0.19655  0.50109  0.30731  1.0000
  H   H325      1.0  0.05818  0.08219  0.35672  1.0000
  H   H326      1.0  0.99221  0.51818  0.61343  1.0000
  H   H327      1.0  0.01224  0.12083  0.42397  1.0000
  C   C419      1.0  0.03329  0.46594  0.31403  1.0000
  C   C420      1.0  0.41367  0.21423  0.61807  1.0000
  C   C421      1.0  0.00662  0.36862  0.53701  1.0000
  C   C422      1.0  0.34109  0.11011  0.53749  1.0000
  H   H328      1.0  0.37142  0.03863  0.59635  1.0000
  C   C423      1.0  0.39279  0.19667  0.60637  1.0000
  C   C424      1.0  0.01149  0.45598  0.56343  1.0000
  H   H329      1.0  0.04912  0.12408  0.38831  1.0000
  H   H330      1.0  0.43548  0.34100  0.60119  1.0000
  H   H331      1.0  0.42146  0.23174  0.37954  1.0000
  C   C425      1.0  0.43452  0.03070  0.58690  1.0000
  C   C426      1.0  0.26709  0.35185  0.63168  1.0000
  C   C427      1.0  0.15311  0.52345  0.38198  1.0000
  C   C428      1.0  0.04716  0.28514  0.60545  1.0000
  H   H332      1.0  0.04609  0.24853  0.57731  1.0000
  Fe  Fe37      1.0  0.02266  0.47530  0.49391  1.0000
  H   H333      1.0  0.06972  0.31229  0.30579  1.0000
  C   C429      1.0  0.29784  0.07751  0.62149  1.0000
  Fe  Fe38      1.0  0.00078  0.17873  0.31110  1.0000
  C   C430      1.0  0.39110  0.11403  0.59609  1.0000
  S   S62       1.0  0.03352  0.11800  0.63016  1.0000
  C   C431      1.0  0.46810  0.27938  0.57080  1.0000
  H   H334      1.0  0.07380  0.15721  0.35483  1.0000
  S   S63       1.0  0.00520  0.44939  0.52913  1.0000
  C   C432      1.0  0.13147  0.44991  0.31853  1.0000
  C   C433      1.0  0.09641  0.17534  0.32135  1.0000
  S   S64       1.0  0.00205  0.44655  0.39853  1.0000
  C   C434      1.0  0.47982  0.11567  0.52385  1.0000
  C   C435      1.0  0.19511  0.50608  0.40856  1.0000
  C   C436      1.0  0.00439  0.33130  0.39653  1.0000
  H   H335      1.0  0.17569  0.20406  0.31253  1.0000
  C   C437      1.0  0.35560  0.12915  0.63009  1.0000
  C   C438      1.0  0.26694  0.06612  0.49528  1.0000
  C   C439      1.0  0.04135  0.25524  0.48028  1.0000
  C   C440      1.0  0.02893  0.27503  0.43664  1.0000
  C   C441      1.0  0.08545  0.24493  0.60114  1.0000
  C   C442      1.0  0.24345  0.05160  0.50650  1.0000
  H   H336      1.0  0.42936  0.04167  0.56820  1.0000
  H   H337      1.0  0.34831  0.51823  0.50498  1.0000
  H   H338      1.0  0.33346  0.33525  0.60691  1.0000
  C   C443      1.0  0.46079  0.10601  0.38726  1.0000
  H   H339      1.0  0.26222  0.51135  0.61991  1.0000
  C   C444      1.0  0.99467  0.19927  0.44933  1.0000
  S   S65       1.0  0.03821  0.51842  0.42778  1.0000
  C   C445      1.0  0.21494  0.51014  0.55538  1.0000
  C   C446      1.0  0.36702  0.31146  0.62990  1.0000
  P   P17       1.0  0.27681  0.31337  0.62270  1.0000
  C   C447      1.0  0.99614  0.37191  0.45830  1.0000
  C   C448      1.0  0.11276  0.50123  0.56216  1.0000
  H   H340      1.0  0.42021  0.11482  0.31435  1.0000
  C   C449      1.0  0.15696  0.37616  0.30549  1.0000
  H   H341      1.0  0.47444  0.03048  0.38215  1.0000
  C   C450      1.0  0.34620  0.05355  0.63037  1.0000
  H   H342      1.0  0.44790  0.21015  0.50613  1.0000
  C   C451      1.0  0.18399  0.51831  0.38479  1.0000
  H   H343      1.0  0.37649  0.08438  0.32205  1.0000
  C   C452      1.0  0.23782  0.39836  0.62395  1.0000
  C   C453      1.0  0.44447  0.07314  0.32469  1.0000
  H   H344      1.0  0.10304  0.48466  0.57452  1.0000
  C   C454      1.0  0.99103  0.44654  0.58225  1.0000
  C   C455      1.0  0.37301  0.09590  0.34081  1.0000
  C   C456      1.0  0.34756  0.11489  0.34419  1.0000
  S   S66       1.0  0.42024  0.51733  0.59654  1.0000
  H   H345      1.0  0.99489  0.03173  0.39764  1.0000
  C   C457      1.0  0.44948  0.03232  0.63310  1.0000
  H   H346      1.0  0.99277  0.31568  0.48527  1.0000
  C   C458      1.0  0.43676  0.09779  0.30831  1.0000
  H   H347      1.0  0.45796  0.15852  0.53254  1.0000
  C   C459      1.0  0.14192  0.49643  0.55332  1.0000
  C   C460      1.0  0.48424  0.11231  0.40408  1.0000
  S   S67       1.0  0.98685  0.48973  0.46485  1.0000
  H   H348      1.0  0.05545  0.31794  0.63580  1.0000
  Fe  Fe39      1.0  0.31523  0.12270  0.71137  1.0000
  S   S68       1.0  0.33646  0.16634  0.71308  1.0000
  S   S69       1.0  0.34325  0.07875  0.71221  1.0000
  Fe  Fe40      1.0  0.25258  0.15346  0.70677  1.0000
  S   S70       1.0  0.27032  0.19951  0.70893  1.0000
  S   S71       1.0  0.20255  0.14750  0.70536  1.0000
  Fe  Fe41      1.0  0.30482  0.18044  0.68061  1.0000
  H   H349      1.0  0.99133  0.44531  0.80539  1.0000
  Fe  Fe42      1.0  0.30029  0.18103  0.74164  1.0000
  S   S72       1.0  0.31791  0.20811  0.77622  1.0000
  S   S73       1.0  0.28574  0.13560  0.67658  1.0000
  S   S74       1.0  0.28033  0.13621  0.74176  1.0000
  Fe  Fe43      1.0  0.31084  0.21483  0.93595  1.0000
  S   S75       1.0  0.28334  0.20761  0.89871  1.0000
  S   S76       1.0  0.35773  0.22837  0.93772  1.0000
  H   H350      1.0  0.17098  0.50486  0.75177  1.0000
  C   C461      1.0  0.46416  0.49031  0.90404  1.0000
  C   C462      1.0  0.41138  0.22669  0.87982  1.0000
  H   H351      1.0  0.19331  0.48266  0.93669  1.0000
  S   S77       1.0  0.01496  0.21817  0.84245  1.0000
  H   H352      1.0  0.10086  0.51883  0.74645  1.0000
  S   S78       1.0  0.03249  0.17589  0.77647  1.0000
  H   H353      1.0  0.06553  0.13625  0.82260  1.0000
  S   S79       1.0  0.01507  0.16336  0.90723  1.0000
  C   C463      1.0  0.41181  0.13962  0.82913  1.0000
  Fe  Fe44      1.0  0.31080  0.48572  0.87743  1.0000
  H   H354      1.0  0.25472  0.46803  0.78066  1.0000
  S   S80       1.0  0.32232  0.45594  0.91279  1.0000
  Fe  Fe45      1.0  0.30797  0.48471  0.81644  1.0000
  C   C464      1.0  0.01353  0.20693  0.94664  1.0000
  S   S81       1.0  0.32001  0.45280  0.78229  1.0000
  H   H355      1.0  0.39677  0.39849  0.68305  1.0000
  C   C465      1.0  0.01965  0.48091  0.81463  1.0000
  C   C466      1.0  0.24399  0.30486  0.71901  1.0000
  S   S82       1.0  0.27660  0.47151  0.84850  1.0000
  S   S83       1.0  0.29687  0.47759  0.65939  1.0000
  C   C467      1.0  0.01246  0.46417  0.86811  1.0000
  C   C468      1.0  0.32787  0.05808  0.79842  1.0000
  C   C469      1.0  0.35033  0.34573  0.70298  1.0000
  H   H356      1.0  0.41811  0.09682  0.65771  1.0000
  C   C470      1.0  0.44532  0.07269  0.71174  1.0000
  H   H357      1.0  0.39458  0.19980  0.84894  1.0000
  H   H358      1.0  0.18173  0.29025  0.66540  1.0000
  C   C471      1.0  0.43671  0.12664  0.81588  1.0000
  Fe  Fe46      1.0  0.99424  0.18715  0.87109  1.0000
  C   C472      1.0  0.37001  0.12887  0.87157  1.0000
  H   H359      1.0  0.38691  0.12418  0.71764  1.0000
  C   C473      1.0  0.31573  0.46201  0.74820  1.0000
  C   C474      1.0  0.32985  0.44327  0.72908  1.0000
  C   C475      1.0  0.32560  0.44870  0.70174  1.0000
  C   C476      1.0  0.30633  0.47239  0.69329  1.0000
  C   C477      1.0  0.29213  0.49105  0.71242  1.0000
  C   C478      1.0  0.29721  0.48625  0.73973  1.0000
  H   H360      1.0  0.34415  0.42449  0.73548  1.0000
  H   H361      1.0  0.33655  0.43410  0.68723  1.0000
  S   S84       1.0  0.48455  0.07137  0.71114  1.0000
  H   H362      1.0  0.28633  0.50097  0.75419  1.0000
  C   C479      1.0  0.31368  0.46970  0.94491  1.0000
  C   C480      1.0  0.32031  0.45177  0.96723  1.0000
  C   C481      1.0  0.18901  0.52330  0.87958  1.0000
  C   C482      1.0  0.37812  0.36363  0.74027  1.0000
  H   H363      1.0  0.00982  0.27394  0.67013  1.0000
  C   C483      1.0  0.01521  0.17645  0.94047  1.0000
  H   H364      1.0  0.39594  0.28370  0.65477  1.0000
  C   C484      1.0  0.33033  0.33685  0.78519  1.0000
  H   H365      1.0  0.28696  0.11488  0.88324  1.0000
  C   C485      1.0  0.42220  0.08152  0.88935  1.0000
  H   H366      1.0  0.21759  0.32429  0.64733  1.0000
  C   C486      1.0  0.47290  0.12522  0.64249  1.0000
  C   C487      1.0  0.01774  0.17426  0.74413  1.0000
  C   C488      1.0  0.03682  0.17089  0.72222  1.0000
  C   C489      1.0  0.02534  0.17147  0.69623  1.0000
  Fe  Fe47      1.0  0.36434  0.19087  0.96737  1.0000
  H   H367      1.0  0.36346  0.04666  0.64444  1.0000
  H   H368      1.0  0.06052  0.16848  0.72532  1.0000
  H   H369      1.0  0.04015  0.16949  0.67941  1.0000
  Fe  Fe48      1.0  0.00006  0.47154  0.74858  1.0000
  C   C490      1.0  0.37558  0.10581  0.95637  1.0000
  C   C491      1.0  0.43293  0.10776  0.87866  1.0000
  H   H370      1.0  0.39873  0.07815  0.88991  1.0000
  H   H371      1.0  0.35482  0.25806  0.67576  1.0000
  Fe  Fe49      1.0  0.26001  0.51969  0.84907  1.0000
  C   C492      1.0  0.38100  0.04568  0.79860  1.0000
  C   C493      1.0  0.17884  0.14479  0.67721  1.0000
  H   H372      1.0  0.21141  0.15484  0.64794  1.0000
  H   H373      1.0  0.27712  0.50937  0.70607  1.0000
  H   H374      1.0  0.38395  0.36314  0.76112  1.0000
  C   C494      1.0  0.12914  0.13709  0.65944  1.0000
  C   C495      1.0  0.14901  0.13827  0.68107  1.0000
  H   H375      1.0  0.15795  0.29742  0.88066  1.0000
  H   H376      1.0  0.10628  0.13233  0.66281  1.0000
  H   H377      1.0  0.14112  0.13444  0.70099  1.0000
  C   C496      1.0  0.31034  0.20393  0.81059  1.0000
  C   C497      1.0  0.28552  0.18969  0.81952  1.0000
  C   C498      1.0  0.27833  0.18991  0.84676  1.0000
  C   C499      1.0  0.29619  0.20370  0.86548  1.0000
  C   C500      1.0  0.32186  0.21669  0.85670  1.0000
  C   C501      1.0  0.32862  0.21717  0.82934  1.0000
  H   H378      1.0  0.27117  0.17955  0.80534  1.0000
  H   H379      1.0  0.25835  0.17996  0.85329  1.0000
  H   H380      1.0  0.33570  0.22755  0.87084  1.0000
  H   H381      1.0  0.34781  0.22836  0.82261  1.0000
  C   C502      1.0  0.38257  0.07697  0.71259  1.0000
  S   S85       1.0  0.02720  0.49043  0.78149  1.0000
  H   H382      1.0  0.29997  0.35395  0.66283  1.0000
  H   H383      1.0  0.31380  0.09955  0.77953  1.0000
  H   H384      1.0  0.36430  0.11151  0.76651  1.0000
  C   C503      1.0  0.10054  0.43383  0.73207  1.0000
  H   H385      1.0  0.38611  0.02911  0.70778  1.0000
  H   H386      1.0  0.45739  0.48615  0.88379  1.0000
  C   C504      1.0  0.40327  0.10572  0.64237  1.0000
  C   C505      1.0  0.11277  0.47433  0.76161  1.0000
  C   C506      1.0  0.11332  0.44367  0.75558  1.0000
  P   P18       1.0  0.12972  0.48646  0.79204  1.0000
  C   C507      1.0  0.22316  0.30050  0.64725  1.0000
  C   C508      1.0  0.18592  0.46179  0.80650  1.0000
  C   C509      1.0  0.21662  0.45786  0.80375  1.0000
  C   C510      1.0  0.36114  0.09162  0.77810  1.0000
  C   C511      1.0  0.03979  0.10416  0.80259  1.0000
  H   H387      1.0  0.04082  0.49970  0.87696  1.0000
  C   C512      1.0  0.11531  0.46839  0.82103  1.0000
  C   C513      1.0  0.09132  0.44998  0.81914  1.0000
  C   C514      1.0  0.08009  0.43681  0.84191  1.0000
  C   C515      1.0  0.09193  0.44278  0.86684  1.0000
  C   C516      1.0  0.11527  0.46172  0.86901  1.0000
  C   C517      1.0  0.12683  0.47456  0.84623  1.0000
  H   H388      1.0  0.10010  0.41015  0.72791  1.0000
  C   C518      1.0  0.32467  0.31755  0.80636  1.0000
  C   C519      1.0  0.42972  0.10050  0.71461  1.0000
  H   H389      1.0  0.30322  0.27238  0.66441  1.0000
  H   H390      1.0  0.12322  0.42740  0.76928  1.0000
  C   C520      1.0  0.35985  0.28751  0.75468  1.0000
  H   H391      1.0  0.17566  0.45187  0.82335  1.0000
  H   H392      1.0  0.22952  0.44520  0.81844  1.0000
  C   C521      1.0  0.39270  0.38258  0.72323  1.0000
  H   H393      1.0  0.08023  0.44673  0.80041  1.0000
  H   H394      1.0  0.06097  0.42336  0.84044  1.0000
  H   H395      1.0  0.08209  0.43374  0.88454  1.0000
  H   H396      1.0  0.12379  0.46712  0.88844  1.0000
  H   H397      1.0  0.29522  0.51220  0.93155  1.0000
  C   C522      1.0  0.18350  0.49141  0.76625  1.0000
  C   C523      1.0  0.32489  0.13704  0.89726  1.0000
  C   C524      1.0  0.12443  0.22793  0.70168  1.0000
  C   C525      1.0  0.10224  0.24601  0.71405  1.0000
  C   C526      1.0  0.07306  0.24730  0.70426  1.0000
  C   C527      1.0  0.06646  0.22993  0.68203  1.0000
  P   P19       1.0  0.04538  0.27314  0.71886  1.0000
  C   C528      1.0  0.04971  0.27428  0.75448  1.0000
  C   C529      1.0  0.04970  0.31019  0.70580  1.0000
  C   C530      1.0  0.02534  0.33101  0.70508  1.0000
  C   C531      1.0  0.02871  0.36009  0.69613  1.0000
  C   C532      1.0  0.05618  0.36860  0.68721  1.0000
  C   C533      1.0  0.08063  0.34804  0.68785  1.0000
  C   C534      1.0  0.07750  0.31903  0.69739  1.0000
  C   C535      1.0  0.03945  0.29970  0.76887  1.0000
  C   C536      1.0  0.04055  0.29962  0.79660  1.0000
  C   C537      1.0  0.05188  0.27428  0.81017  1.0000
  C   C538      1.0  0.06197  0.24886  0.79600  1.0000
  C   C539      1.0  0.06059  0.24871  0.76828  1.0000
  H   H398      1.0  0.19791  0.37445  0.91211  1.0000
  C   C540      1.0  0.08794  0.48512  0.71952  1.0000
  C   C541      1.0  0.01263  0.03787  0.65749  1.0000
  C   C542      1.0  0.25362  0.41234  0.64381  1.0000
  C   C543      1.0  0.20270  0.28125  0.65759  1.0000
  C   C544      1.0  0.08777  0.45458  0.71410  1.0000
  H   H399      1.0  0.31402  0.08999  0.84582  1.0000
  H   H400      1.0  0.14680  0.22658  0.70951  1.0000
  H   H401      1.0  0.10787  0.25908  0.73121  1.0000
  H   H402      1.0  0.04423  0.22990  0.67418  1.0000
  H   H403      1.0  0.10352  0.29365  0.64930  1.0000
  H   H404      1.0  0.00984  0.37607  0.69628  1.0000
  H   H405      1.0  0.05838  0.39121  0.68001  1.0000
  H   H406      1.0  0.10199  0.35473  0.68114  1.0000
  H   H407      1.0  0.09679  0.30369  0.69823  1.0000
  H   H408      1.0  0.02935  0.31914  0.75892  1.0000
  H   H409      1.0  0.03133  0.31875  0.80764  1.0000
  H   H410      1.0  0.05158  0.27393  0.83168  1.0000
  H   H411      1.0  0.06949  0.22867  0.80646  1.0000
  H   H412      1.0  0.06682  0.22817  0.75780  1.0000
  H   H413      1.0  0.08348  0.19817  0.65277  1.0000
  H   H414      1.0  0.40911  0.39695  0.73106  1.0000
  C   C545      1.0  0.37620  0.23873  0.73720  1.0000
  H   H415      1.0  0.40134  0.49978  0.94771  1.0000
  C   C546      1.0  0.00744  0.08819  0.72480  1.0000
  C   C547      1.0  0.13205  0.32027  0.82222  1.0000
  C   C548      1.0  0.11038  0.34258  0.81576  1.0000
  C   C549      1.0  0.11841  0.37169  0.81092  1.0000
  C   C550      1.0  0.14811  0.37864  0.81269  1.0000
  C   C551      1.0  0.17018  0.35633  0.81905  1.0000
  C   C552      1.0  0.16182  0.32704  0.82386  1.0000
  P   P20       1.0  0.20881  0.36513  0.82081  1.0000
  C   C553      1.0  0.22093  0.38136  0.78992  1.0000
  C   C554      1.0  0.21540  0.39036  0.84816  1.0000
  C   C555      1.0  0.19200  0.40696  0.86074  1.0000
  C   C556      1.0  0.19767  0.42604  0.88192  1.0000
  C   C557      1.0  0.22660  0.42830  0.89111  1.0000
  C   C558      1.0  0.24995  0.41198  0.87879  1.0000
  C   C559      1.0  0.24443  0.39317  0.85745  1.0000
  C   C560      1.0  0.25034  0.38944  0.78736  1.0000
  C   C561      1.0  0.26000  0.40238  0.76390  1.0000
  C   C562      1.0  0.24044  0.40757  0.74275  1.0000
  C   C563      1.0  0.21135  0.39893  0.74475  1.0000
  C   C564      1.0  0.20172  0.38549  0.76805  1.0000
  C   C565      1.0  0.23122  0.33078  0.82592  1.0000
  C   C566      1.0  0.23961  0.31255  0.80417  1.0000
  C   C567      1.0  0.25469  0.28476  0.80831  1.0000
  C   C568      1.0  0.26162  0.27511  0.83403  1.0000
  C   C569      1.0  0.25359  0.29312  0.85574  1.0000
  C   C570      1.0  0.23836  0.32081  0.85175  1.0000
  H   H416      1.0  0.12571  0.29765  0.82587  1.0000
  H   H417      1.0  0.08731  0.33732  0.81451  1.0000
  H   H418      1.0  0.10146  0.38881  0.80578  1.0000
  H   H419      1.0  0.15388  0.40138  0.80888  1.0000
  H   H420      1.0  0.17809  0.30924  0.82885  1.0000
  H   H421      1.0  0.16930  0.40540  0.85458  1.0000
  H   H422      1.0  0.17962  0.43905  0.89138  1.0000
  H   H423      1.0  0.23105  0.44283  0.90769  1.0000
  H   H424      1.0  0.27248  0.41444  0.88554  1.0000
  H   H425      1.0  0.26290  0.38056  0.84849  1.0000
  H   H426      1.0  0.26588  0.38601  0.80347  1.0000
  H   H427      1.0  0.28257  0.40903  0.76230  1.0000
  H   H428      1.0  0.24788  0.41845  0.72491  1.0000
  H   H429      1.0  0.19620  0.40288  0.72828  1.0000
  H   H430      1.0  0.17932  0.37848  0.76866  1.0000
  H   H431      1.0  0.23402  0.31945  0.78409  1.0000
  H   H432      1.0  0.26071  0.27029  0.79170  1.0000
  H   H433      1.0  0.27294  0.25348  0.83714  1.0000
  H   H434      1.0  0.25885  0.28531  0.87569  1.0000
  H   H435      1.0  0.23190  0.33410  0.86890  1.0000
  C   C571      1.0  0.41804  0.14687  0.77407  1.0000
  C   C572      1.0  0.39291  0.15927  0.78697  1.0000
  C   C573      1.0  0.38959  0.15529  0.81428  1.0000
  H   H436      1.0  0.42043  0.14977  0.75287  1.0000
  H   H437      1.0  0.37564  0.17156  0.77579  1.0000
  H   H438      1.0  0.36962  0.16459  0.82379  1.0000
  C   C574      1.0  0.31023  0.11833  0.88018  1.0000
  C   C575      1.0  0.05364  0.07032  0.74532  1.0000
  H   H439      1.0  0.31285  0.14800  0.91340  1.0000
  C   C576      1.0  0.32063  0.32883  0.83209  1.0000
  C   C577      1.0  0.39822  0.51066  0.96682  1.0000
  C   C578      1.0  0.46347  0.46768  0.92309  1.0000
  S   S86       1.0  0.40423  0.15791  0.96681  1.0000
  H   H440      1.0  0.33344  0.38341  0.77395  1.0000
  H   H441      1.0  0.36890  0.11985  0.67016  1.0000
  H   H442      1.0  0.22540  0.49737  0.74699  1.0000
  H   H443      1.0  0.01102  0.10727  0.68583  1.0000
  C   C579      1.0  0.38581  0.38343  0.69617  1.0000
  H   H444      1.0  0.41724  0.25598  0.79107  1.0000
  C   C580      1.0  0.38199  0.28450  0.77425  1.0000
  C   C581      1.0  0.99018  0.25222  0.73222  1.0000
  C   C582      1.0  0.42563  0.22712  0.90442  1.0000
  H   H445      1.0  0.38492  0.30222  0.78846  1.0000
  H   H446      1.0  0.17851  0.38242  0.95554  1.0000
  H   H447      1.0  0.22243  0.30075  0.71087  1.0000
  H   H448      1.0  0.29979  0.26945  0.75413  1.0000
  C   C583      1.0  0.02133  0.08019  0.80528  1.0000
  H   H449      1.0  0.04392  0.11372  0.78333  1.0000
  C   C584      1.0  0.02293  0.09655  0.70227  1.0000
  H   H450      1.0  0.41447  0.21622  0.63949  1.0000
  H   H451      1.0  0.44455  0.20046  0.93649  1.0000
  C   C585      1.0  0.00818  0.26254  0.71185  1.0000
  H   H452      1.0  0.25088  0.26050  0.73535  1.0000
  H   H453      1.0  0.44189  0.12049  0.71614  1.0000
  C   C586      1.0  0.27582  0.39611  0.65786  1.0000
  H   H454      1.0  0.44910  0.04090  0.76358  1.0000
  C   C587      1.0  0.37321  0.28973  0.64927  1.0000
  C   C588      1.0  0.21427  0.48729  0.76350  1.0000
  H   H455      1.0  0.47299  0.45519  0.96364  1.0000
  C   C589      1.0  0.32548  0.10440  0.85905  1.0000
  C   C590      1.0  0.23268  0.17104  0.96403  1.0000
  S   S87       1.0  0.01035  0.45129  0.90116  1.0000
  C   C591      1.0  0.39820  0.04911  0.70982  1.0000
  H   H456      1.0  0.44712  0.05557  0.96777  1.0000
  C   C592      1.0  0.46005  0.04423  0.78239  1.0000
  C   C593      1.0  0.05374  0.09207  0.70128  1.0000
  H   H457      1.0  0.22359  0.49543  0.89764  1.0000
  C   C594      1.0  0.35003  0.27566  0.66140  1.0000
  C   C595      1.0  0.11772  0.21119  0.67936  1.0000
  S   S88       1.0  0.29530  0.24607  0.96890  1.0000
  C   C596      1.0  0.99646  0.26582  0.68610  1.0000
  C   C597      1.0  0.37497  0.07446  0.95409  1.0000
  C   C598      1.0  0.23083  0.47076  0.78241  1.0000
  C   C599      1.0  0.32670  0.37889  0.81577  1.0000
  C   C600      1.0  0.00176  0.45750  0.82100  1.0000
  C   C601      1.0  0.31409  0.31742  0.91850  1.0000
  C   C602      1.0  0.32792  0.34353  0.91211  1.0000
  C   C603      1.0  0.31369  0.37140  0.91745  1.0000
  C   C604      1.0  0.99831  0.44906  0.84771  1.0000
  C   C605      1.0  0.02267  0.07510  0.74661  1.0000
  C   C606      1.0  0.28643  0.31918  0.93094  1.0000
  C   C607      1.0  0.08871  0.21179  0.66978  1.0000
  C   C608      1.0  0.01549  0.06949  0.83086  1.0000
  H   H458      1.0  0.07538  0.52505  0.79083  1.0000
  C   C609      1.0  0.01848  0.15550  0.96122  1.0000
  C   C610      1.0  0.17578  0.33810  0.89482  1.0000
  C   C611      1.0  0.17322  0.30717  0.89431  1.0000
  Fe  Fe50      1.0  0.00049  0.18811  0.80986  1.0000
  C   C612      1.0  0.04602  0.10647  0.85029  1.0000
  C   C613      1.0  0.36484  0.36479  0.68600  1.0000
  C   C614      1.0  0.19547  0.35062  0.91252  1.0000
  C   C615      1.0  0.27239  0.34707  0.93725  1.0000
  H   H459      1.0  0.32363  0.29370  0.80303  1.0000
  H   H460      1.0  0.02242  0.07490  0.87294  1.0000
  P   P21       1.0  0.40794  0.13679  0.86481  1.0000
  H   H461      1.0  0.14455  0.48965  0.84824  1.0000
  C   C616      1.0  0.42921  0.17297  0.90490  1.0000
  C   C617      1.0  0.21181  0.33244  0.93062  1.0000
  C   C618      1.0  0.23345  0.20184  0.96008  1.0000
  H   H462      1.0  0.37371  0.22088  0.72301  1.0000
  H   H463      1.0  0.32537  0.29578  0.91492  1.0000
  H   H464      1.0  0.34990  0.34218  0.90351  1.0000
  H   H465      1.0  0.32454  0.39167  0.91267  1.0000
  H   H466      1.0  0.24375  0.15574  0.95009  1.0000
  H   H467      1.0  0.27642  0.29870  0.93632  1.0000
  H   H468      1.0  0.27539  0.39516  0.93330  1.0000
  S   S89       1.0  0.13401  0.49970  0.95287  1.0000
  H   H469      1.0  0.01994  0.13187  0.95661  1.0000
  C   C619      1.0  0.39855  0.10264  0.71530  1.0000
  H   H470      1.0  0.33472  0.33091  0.69465  1.0000
  C   C620      1.0  0.43976  0.13027  0.78843  1.0000
  C   C621      1.0  0.35530  0.10955  0.85477  1.0000
  C   C622      1.0  0.29973  0.49806  0.94847  1.0000
  C   C623      1.0  0.16914  0.47898  0.78798  1.0000
  H   H471      1.0  0.06588  0.06062  0.76202  1.0000
  C   C624      1.0  0.42940  0.04695  0.70940  1.0000
  C   C625      1.0  0.48242  0.50104  0.95607  1.0000
  H   H472      1.0  0.36557  0.15695  0.90665  1.0000
  H   H473      1.0  0.00375  0.32508  0.71199  1.0000
  H   H474      1.0  0.35988  0.36522  0.66492  1.0000
  H   H475      1.0  0.99845  0.24909  0.75226  1.0000
  S   S90       1.0  0.31830  0.17597  0.96392  1.0000
  H   H476      1.0  0.35436  0.06449  0.94950  1.0000
  P   P22       1.0  0.33666  0.32164  0.75231  1.0000
  C   C626      1.0  0.40616  0.19942  0.86767  1.0000
  H   H477      1.0  0.29229  0.35992  0.72408  1.0000
  H   H478      1.0  0.32743  0.40274  0.81941  1.0000
  C   C627      1.0  0.20082  0.50407  0.89919  1.0000
  C   C628      1.0  0.20919  0.25033  0.65769  1.0000
  C   C629      1.0  0.33249  0.08468  0.78509  1.0000
  C   C630      1.0  0.03321  0.49634  0.83506  1.0000
  S   S91       1.0  0.32329  0.20704  0.64711  1.0000
  C   C631      1.0  0.35472  0.14227  0.89313  1.0000
  Fe  Fe51      1.0  0.00104  0.45926  0.68845  1.0000
  C   C632      1.0  0.37548  0.11857  0.64956  1.0000
  C   C633      1.0  0.40078  0.05597  0.95818  1.0000
  H   H479      1.0  0.13501  0.19756  0.66957  1.0000
  S   S92       1.0  0.03221  0.46196  0.65297  1.0000
  C   C634      1.0  0.10069  0.49504  0.74300  1.0000
  H   H480      1.0  0.34114  0.26680  0.72022  1.0000
  S   S93       1.0  0.01585  0.43195  0.72418  1.0000
  C   C635      1.0  0.47292  0.47294  0.94902  1.0000
  H   H481      1.0  0.07781  0.50111  0.70558  1.0000
  H   H482      1.0  0.40392  0.24752  0.87039  1.0000
  H   H483      1.0  0.09304  0.07585  0.72210  1.0000
  C   C636      1.0  0.02942  0.48821  0.86165  1.0000
  C   C637      1.0  0.33042  0.36774  0.78997  1.0000
  C   C638      1.0  0.05217  0.11710  0.82495  1.0000
  S   S94       1.0  0.34399  0.49441  0.84556  1.0000
  H   H484      1.0  0.24506  0.21028  0.94315  1.0000
  H   H485      1.0  0.07744  0.44711  0.69602  1.0000
  C   C639      1.0  0.35761  0.26475  0.73578  1.0000
  C   C640      1.0  0.28364  0.33800  0.72637  1.0000
  H   H486      1.0  0.24323  0.35053  0.70544  1.0000
  C   C641      1.0  0.40054  0.25842  0.77567  1.0000
  C   C642      1.0  0.06909  0.07887  0.72276  1.0000
  C   C643      1.0  0.32201  0.35946  0.83684  1.0000
  C   C644      1.0  0.44186  0.05946  0.90018  1.0000
  C   C645      1.0  0.26002  0.28216  0.73277  1.0000
  H   H487      1.0  0.47221  0.13207  0.87183  1.0000
  C   C646      1.0  0.30029  0.31500  0.73950  1.0000
  H   H488      1.0  0.31662  0.31378  0.84838  1.0000
  H   H489      1.0  0.19346  0.23529  0.66566  1.0000
  C   C647      1.0  0.18359  0.49692  0.92133  1.0000
  H   H490      1.0  0.04754  0.51401  0.83032  1.0000
  C   C648      1.0  0.15416  0.50848  0.92393  1.0000
  H   H491      1.0  0.35555  0.11975  0.95343  1.0000
  C   C649      1.0  0.40213  0.11888  0.96249  1.0000
  H   H492      1.0  0.00094  0.05159  0.83382  1.0000
  H   H493      1.0  0.40722  0.07765  0.77835  1.0000
  Fe  Fe52      1.0  0.08372  0.50404  0.95761  1.0000
  C   C650      1.0  0.18861  0.14985  0.65133  1.0000
  C   C651      1.0  0.35605  0.34582  0.73041  1.0000
  H   H494      1.0  0.24904  0.43592  0.64806  1.0000
  C   C652      1.0  0.25573  0.33283  0.71593  1.0000
  S   S95       1.0  0.05158  0.52206  0.92674  1.0000
  H   H495      1.0  0.01120  0.22330  0.93086  1.0000
  C   C653      1.0  0.43445  0.20026  0.91696  1.0000
  C   C654      1.0  0.38538  0.07222  0.78475  1.0000
  C   C655      1.0  0.41530  0.17225  0.87999  1.0000
  H   H496      1.0  0.31929  0.36824  0.85679  1.0000
  C   C656      1.0  0.28794  0.28727  0.74321  1.0000
  H   H497      1.0  0.45889  0.12003  0.77822  1.0000
  H   H498      1.0  0.41176  0.21521  0.75845  1.0000
  H   H499      1.0  0.36676  0.09882  0.83816  1.0000
  C   C657      1.0  0.46350  0.11178  0.87953  1.0000
  H   H500      1.0  0.06574  0.09925  0.68402  1.0000
  Fe  Fe53      1.0  0.02937  0.47924  0.93369  1.0000
  H   H501      1.0  0.28835  0.40727  0.67288  1.0000
  P   P23       1.0  0.00296  0.06559  0.77647  1.0000
  C   C658      1.0  0.20974  0.30128  0.92940  1.0000
  C   C659      1.0  0.39755  0.23549  0.75723  1.0000
  H   H502      1.0  0.16253  0.35236  0.88147  1.0000
  C   C660      1.0  0.02774  0.08262  0.85323  1.0000
  C   C661      1.0  0.32063  0.28338  0.65432  1.0000
  H   H503      1.0  0.45377  0.11360  0.82647  1.0000
  H   H504      1.0  0.05462  0.11735  0.86768  1.0000
  C   C662      1.0  0.28586  0.37324  0.92966  1.0000
  H   H505      1.0  0.42915  0.24822  0.91413  1.0000
  H   H506      1.0  0.43535  0.15250  0.91551  1.0000
  C   C663      1.0  0.23601  0.23866  0.64726  1.0000
  C   C664      1.0  0.19049  0.28874  0.91136  1.0000
  C   C665      1.0  0.42724  0.06924  0.96402  1.0000
  C   C666      1.0  0.28247  0.36595  0.65194  1.0000
  H   H507      1.0  0.45296  0.13965  0.64073  1.0000
  H   H508      1.0  0.00106  0.39749  0.64510  1.0000
  C   C667      1.0  0.99478  0.17572  0.69213  1.0000
  C   C668      1.0  0.42800  0.10045  0.96575  1.0000
  H   H509      1.0  0.31636  0.07106  0.66064  1.0000
  H   H510      1.0  0.18889  0.26468  0.91070  1.0000
  H   H511      1.0  0.43358  0.03928  0.90858  1.0000
  H   H512      1.0  0.45602  0.04451  0.65054  1.0000
  C   C669      1.0  0.35198  0.03861  0.80512  1.0000
  C   C670      1.0  0.48169  0.52433  0.93736  1.0000
  C   C671      1.0  0.47372  0.51836  0.91104  1.0000
  S   S96       1.0  0.99972  0.49812  0.96578  1.0000
  S   S97       1.0  0.98976  0.50039  0.71290  1.0000
  H   H513      1.0  0.45284  0.03324  0.84904  1.0000
  H   H514      1.0  0.24112  0.21467  0.64713  1.0000
  C   C672      1.0  0.47220  0.06361  0.90086  1.0000
  H   H515      1.0  0.30552  0.05233  0.80311  1.0000
  H   H516      1.0  0.45597  0.44596  0.91764  1.0000
  H   H517      1.0  0.38053  0.04211  0.85358  1.0000
  H   H518      1.0  0.33119  0.42978  0.96471  1.0000
  S   S98       1.0  0.06251  0.46014  0.96324  1.0000
  C   C673      1.0  0.25631  0.25783  0.63678  1.0000
  C   C674      1.0  0.48300  0.08988  0.89076  1.0000
  H   H519      1.0  0.01824  0.05463  0.64311  1.0000
  C   C675      1.0  0.31970  0.06749  0.63954  1.0000
  C   C676      1.0  0.25032  0.28892  0.63686  1.0000
  H   H520      1.0  0.05772  0.02819  0.66986  1.0000
  C   C677      1.0  0.44665  0.03636  0.80632  1.0000
  C   C678      1.0  0.46197  0.03997  0.83030  1.0000
  P   P24       1.0  0.23694  0.34832  0.95399  1.0000
  C   C679      1.0  0.19532  0.39643  0.96297  1.0000
  H   H521      1.0  0.16419  0.43461  0.96758  1.0000
  H   H522      1.0  0.22307  0.28660  0.94232  1.0000
  C   C680      1.0  0.99267  0.37562  0.64168  1.0000
  C   C681      1.0  0.22502  0.38551  0.96540  1.0000
  C   C682      1.0  0.98719  0.17690  0.73993  1.0000
  C   C683      1.0  0.12239  0.52595  0.79810  1.0000
  H   H523      1.0  0.47195  0.89482  0.18894  1.0000
  H   H524      1.0  0.47773  0.78016  0.02294  1.0000
  H   H525      1.0  0.40388  0.82968  0.97955  1.0000
  Fe  Fe54      1.0  0.44741  0.68541  0.09092  1.0000
  C   C684      1.0  0.41540  0.62524  0.97715  1.0000
  S   S99       1.0  0.40601  0.65930  0.09597  1.0000
  H   H526      1.0  0.06140  0.61990  0.12833  1.0000
  H   H527      1.0  0.41511  0.57296  0.23122  1.0000
  H   H528      1.0  0.37321  0.54010  0.22754  1.0000
  H   H529      1.0  0.31700  0.57568  0.26762  1.0000
  C   C685      1.0  0.04453  0.54450  0.06723  1.0000
  C   C686      1.0  0.42651  0.67403  0.16540  1.0000
  C   C687      1.0  0.17770  0.53274  0.01569  1.0000
  S   S100      1.0  0.45742  0.71176  0.05413  1.0000
  S   S101      1.0  0.45825  0.72256  0.11889  1.0000
  H   H530      1.0  0.41062  0.64557  0.25599  1.0000
  C   C688      1.0  0.22859  0.63300  0.03261  1.0000
  H   H531      1.0  0.42818  0.90618  0.16021  1.0000
  C   C689      1.0  0.46407  0.56310  0.02309  1.0000
  C   C690      1.0  0.01748  0.69264  0.07155  1.0000
  H   H532      1.0  0.28689  0.60732  0.08075  1.0000
  C   C691      1.0  0.99038  0.55294  0.14291  1.0000
  H   H533      1.0  0.44256  0.64268  0.04812  1.0000
  C   C692      1.0  0.42993  0.69269  0.18726  1.0000
  H   H534      1.0  0.42715  0.56791  0.14656  1.0000
  H   H535      1.0  0.42455  0.71651  0.18553  1.0000
  C   C693      1.0  0.40929  0.56430  0.21201  1.0000
  H   H536      1.0  0.40730  0.77614  0.99240  1.0000
  C   C694      1.0  0.19188  0.58976  0.05169  1.0000
  C   C695      1.0  0.47421  0.89381  0.16757  1.0000
  C   C696      1.0  0.40905  0.55650  0.09247  1.0000
  C   C697      1.0  0.43547  0.57141  0.09259  1.0000
  C   C698      1.0  0.43497  0.60282  0.09423  1.0000
  C   C699      1.0  0.40796  0.61967  0.09573  1.0000
  C   C700      1.0  0.38158  0.60470  0.09623  1.0000
  C   C701      1.0  0.38207  0.57334  0.09433  1.0000
  H   H537      1.0  0.45645  0.55856  0.09166  1.0000
  H   H538      1.0  0.45549  0.61389  0.09432  1.0000
  H   H539      1.0  0.36061  0.61745  0.09772  1.0000
  H   H540      1.0  0.36153  0.56235  0.09435  1.0000
  H   H541      1.0  0.30046  0.66757  0.24381  1.0000
  H   H542      1.0  0.31677  0.64962  0.06709  1.0000
  C   C702      1.0  0.35624  0.64333  0.17578  1.0000
  C   C703      1.0  0.47288  0.80407  0.02382  1.0000
  C   C704      1.0  0.26382  0.66379  0.27036  1.0000
  C   C705      1.0  0.41929  0.02446  0.13304  1.0000
  H   H543      1.0  0.01507  0.69520  0.16504  1.0000
  H   H544      1.0  0.41799  0.68331  0.14689  1.0000
  C   C706      1.0  0.36057  0.66720  0.19294  1.0000
  H   H545      1.0  0.36259  0.68194  0.23338  1.0000
  C   C707      1.0  0.39990  0.61494  0.99912  1.0000
  C   C708      1.0  0.09073  0.55661  0.08768  1.0000
  H   H546      1.0  0.21665  0.61880  0.99373  1.0000
  C   C709      1.0  0.25370  0.65119  0.29382  1.0000
  C   C710      1.0  0.44954  0.90023  0.15138  1.0000
  C   C711      1.0  0.04502  0.56098  0.11325  1.0000
  C   C712      1.0  0.07578  0.56351  0.11143  1.0000
  P   P25       1.0  0.02573  0.56974  0.14405  1.0000
  H   H547      1.0  0.44479  0.67846  0.27887  1.0000
  C   C713      1.0  0.04588  0.55289  0.17183  1.0000
  C   C714      1.0  0.04107  0.56399  0.19767  1.0000
  C   C715      1.0  0.02427  0.92487  0.06173  1.0000
  C   C716      1.0  0.30446  0.57787  0.05017  1.0000
  C   C717      1.0  0.46509  0.81764  0.04806  1.0000
  C   C718      1.0  0.48033  0.89289  0.11232  1.0000
  C   C719      1.0  0.01694  0.67146  0.16070  1.0000
  C   C720      1.0  0.46015  0.86620  0.02557  1.0000
  H   H548      1.0  0.02086  0.71638  0.07092  1.0000
  C   C721      1.0  0.01733  0.97718  0.07363  1.0000
  H   H549      1.0  0.08049  0.61957  0.03025  1.0000
  C   C722      1.0  0.02170  0.60977  0.14972  1.0000
  P   P26       1.0  0.36805  0.59286  0.99472  1.0000
  C   C723      1.0  0.32450  0.57420  0.02915  1.0000
  C   C724      1.0  0.03719  0.64146  0.07582  1.0000
  C   C725      1.0  0.04023  0.65945  0.14511  1.0000
  C   C726      1.0  0.04278  0.62872  0.13985  1.0000
  H   H550      1.0  0.47973  0.96033  0.04940  1.0000
  C   C727      1.0  0.44829  0.65005  0.21321  1.0000
  H   H551      1.0  0.34545  0.59729  0.17279  1.0000
  C   C728      1.0  0.33977  0.56970  0.27299  1.0000
  H   H552      1.0  0.08830  0.57019  0.12856  1.0000
  H   H553      1.0  0.02571  0.58293  0.20129  1.0000
  C   C729      1.0  0.48410  0.58117  0.03549  1.0000
  P   P27       1.0  0.35011  0.63011  0.26653  1.0000
  C   C730      1.0  0.34677  0.61186  0.21358  1.0000
  C   C731      1.0  0.42577  0.57104  0.18942  1.0000
  C   C732      1.0  0.41596  0.56167  0.16447  1.0000
  C   C733      1.0  0.39016  0.58276  0.28132  1.0000
  C   C734      1.0  0.34223  0.59758  0.02192  1.0000
  C   C735      1.0  0.07510  0.54711  0.06559  1.0000
  H   H554      1.0  0.40688  0.59887  0.28319  1.0000
  C   C736      1.0  0.33861  0.62511  0.03522  1.0000
  H   H555      1.0  0.41078  0.01065  0.09317  1.0000
  C   C737      1.0  0.03563  0.95102  0.07166  1.0000
  C   C738      1.0  0.09296  0.58643  0.97032  1.0000
  H   H556      1.0  0.99365  0.56768  0.26381  1.0000
  C   C739      1.0  0.41037  0.62069  0.02472  1.0000
  H   H557      1.0  0.29118  0.55953  0.05585  1.0000
  H   H558      1.0  0.22402  0.53332  0.02684  1.0000
  C   C740      1.0  0.04164  0.67205  0.07491  1.0000
  H   H559      1.0  0.28014  0.52984  0.97648  1.0000
  C   C741      1.0  0.44951  0.64895  0.00635  1.0000
  C   C742      1.0  0.12236  0.59865  0.01764  1.0000
  C   C743      1.0  0.12273  0.57689  0.97361  1.0000
  H   H560      1.0  0.34058  0.59051  0.22109  1.0000
  H   H561      1.0  0.48244  0.58567  0.05655  1.0000
  C   C744      1.0  0.31866  0.62864  0.05635  1.0000
  H   H562      1.0  0.47537  0.53833  0.16126  1.0000
  H   H563      1.0  0.43198  0.62946  0.14993  1.0000
  C   C745      1.0  0.43428  0.64345  0.16727  1.0000
  H   H564      1.0  0.23104  0.65586  0.30027  1.0000
  H   H565      1.0  0.13323  0.60334  0.03616  1.0000
  C   C746      1.0  0.34912  0.61573  0.18611  1.0000
  H   H566      1.0  0.06378  0.67984  0.07687  1.0000
  H   H567      1.0  0.39292  0.01319  0.02309  1.0000
  H   H568      1.0  0.03837  0.90450  0.06057  1.0000
  C   C747      1.0  0.29307  0.65760  0.26202  1.0000
  C   C748      1.0  0.38214  0.55439  0.99280  1.0000
  C   C749      1.0  0.36075  0.59157  0.27460  1.0000
  C   C750      1.0  0.98892  0.68264  0.06859  1.0000
  C   C751      1.0  0.13786  0.58337  0.99711  1.0000
  C   C752      1.0  0.44575  0.63130  0.19107  1.0000
  C   C753      1.0  0.30208  0.62642  0.30078  1.0000
  H   H569      1.0  0.11454  0.55789  0.08657  1.0000
  S   S102      1.0  0.46864  0.87355  0.97139  1.0000
  H   H570      1.0  0.05447  0.60860  0.98825  1.0000
  C   C754      1.0  0.00861  0.63145  0.07340  1.0000
  H   H571      1.0  0.35841  0.64623  0.15449  1.0000
  C   C755      1.0  0.47413  0.82153  0.00057  1.0000
  H   H572      1.0  0.02594  0.99742  0.08162  1.0000
  C   C756      1.0  0.44039  0.68062  0.21127  1.0000
  H   H573      1.0  0.05582  0.62540  0.07848  1.0000
  H   H574      1.0  0.35146  0.64375  0.02958  1.0000
  H   H575      1.0  0.44311  0.69509  0.22823  1.0000
  C   C757      1.0  0.06515  0.52749  0.16816  1.0000
  H   H576      1.0  0.45021  0.54403  0.98639  1.0000
  H   H577      1.0  0.03257  0.53609  0.05038  1.0000
  H   H578      1.0  0.38624  0.54888  0.03545  1.0000
  C   C758      1.0  0.02951  0.55138  0.09090  1.0000
  C   C759      1.0  0.30184  0.60490  0.06402  1.0000
  C   C760      1.0  0.22535  0.62901  0.05994  1.0000
  H   H579      1.0  0.39972  0.61176  0.04193  1.0000
  H   H580      1.0  0.32616  0.55300  0.01870  1.0000
  C   C761      1.0  0.45862  0.84871  0.04873  1.0000
  H   H581      1.0  0.00591  0.54857  0.09170  1.0000
  H   H582      1.0  0.45221  0.85929  0.06730  1.0000
  H   H583      1.0  0.00565  0.60772  0.07456  1.0000
  C   C762      1.0  0.42248  0.67638  0.28631  1.0000
  H   H584      1.0  0.24896  0.67832  0.25861  1.0000
  H   H585      1.0  0.42094  0.54621  0.29196  1.0000
  H   H586      1.0  0.43371  0.00489  0.13752  1.0000
  P   P28       1.0  0.45854  0.59234  0.19220  1.0000
  C   C763      1.0  0.43481  0.63797  0.02830  1.0000
  C   C764      1.0  0.45255  0.89949  0.12379  1.0000
  H   H587      1.0  0.36559  0.68873  0.18487  1.0000
  H   H588      1.0  0.45517  0.89010  0.02646  1.0000
  C   C765      1.0  0.38527  0.54606  0.20997  1.0000
  C   C766      1.0  0.40317  0.65785  0.27343  1.0000
  H   H589      1.0  0.43349  0.90455  0.11121  1.0000
  H   H590      1.0  0.05122  0.55829  0.23930  1.0000
  H   H591      1.0  0.20497  0.60386  0.09067  1.0000
  C   C767      1.0  0.46778  0.85267  0.00131  1.0000
  S   S103      1.0  0.46325  0.79697  0.07804  1.0000
  H   H592      1.0  0.43898  0.99939  0.04797  1.0000
  Fe  Fe55      1.0  0.47284  0.74674  0.08213  1.0000
  H   H593      1.0  0.48221  0.89287  0.09093  1.0000
  H   H594      1.0  0.05654  0.67393  0.13740  1.0000
  C   C768      1.0  0.35893  0.66321  0.22043  1.0000
  C   C769      1.0  0.37454  0.65456  0.28333  1.0000
  C   C770      1.0  0.21342  0.61548  0.01476  1.0000
  C   C771      1.0  0.35245  0.63531  0.23099  1.0000
  S   S104      1.0  0.45393  0.95896  0.99773  1.0000
  C   C772      1.0  0.38936  0.53846  0.01615  1.0000
  C   C773      1.0  0.39833  0.55269  0.28636  1.0000
  H   H595      1.0  0.22177  0.52942  0.97586  1.0000
  C   C774      1.0  0.05551  0.55008  0.21936  1.0000
  H   H596      1.0  0.48287  0.74244  0.22923  1.0000
  H   H597      1.0  0.08672  0.54107  0.04737  1.0000
  C   C775      1.0  0.99629  0.65273  0.17116  1.0000
  H   H598      1.0  0.46855  0.66217  0.00919  1.0000
  H   H599      1.0  0.45672  0.64143  0.23195  1.0000
  P   P29       1.0  0.17610  0.56987  0.00145  1.0000
  C   C776      1.0  0.20707  0.60733  0.06947  1.0000
  C   C777      1.0  0.46620  0.55763  0.99577  1.0000
  C   C778      1.0  0.37645  0.53580  0.18519  1.0000
  H   H600      1.0  0.17812  0.57276  0.05943  1.0000
  H   H601      1.0  0.46436  0.95240  0.09582  1.0000
  C   C779      1.0  0.47592  0.56014  0.23829  1.0000
  C   C780      1.0  0.31238  0.63867  0.27713  1.0000
  H   H602      1.0  0.23727  0.64250  0.07371  1.0000
  C   C781      1.0  0.99861  0.62211  0.16567  1.0000
  H   H603      1.0  0.24318  0.64946  0.02521  1.0000
  C   C782      1.0  0.43992  0.64247  0.98077  1.0000
  C   C783      1.0  0.48329  0.58543  0.16446  1.0000
  C   C784      1.0  0.09243  0.60789  0.01439  1.0000
  H   H604      1.0  0.05853  0.95099  0.07805  1.0000
  C   C785      1.0  0.41561  0.78289  0.97328  1.0000
  H   H605      1.0  0.44813  0.92210  0.29328  1.0000
  C   C786      1.0  0.19486  0.59371  0.02417  1.0000
  C   C787      1.0  0.34791  0.53982  0.27869  1.0000
  C   C788      1.0  0.48076  0.58454  0.22161  1.0000
  H   H606      1.0  0.46002  0.54401  0.23322  1.0000
  C   C789      1.0  0.39159  0.54392  0.16241  1.0000
  C   C790      1.0  0.43311  0.02264  0.04363  1.0000
  C   C791      1.0  0.07777  0.60185  0.99072  1.0000
  H   H607      1.0  0.99051  0.55351  0.01045  1.0000
  S   S105      1.0  0.05835  0.52651  0.99175  1.0000
  H   H608      1.0  0.44681  0.55352  0.03469  1.0000
  C   C792      1.0  0.98776  0.97728  0.06548  1.0000
  H   H609      1.0  0.38452  0.53628  0.14313  1.0000
  H   H610      1.0  0.47991  0.81083  0.98186  1.0000
  S   S106      1.0  0.47947  0.01253  0.21128  1.0000
  C   C793      1.0  0.99469  0.92493  0.05353  1.0000
  C   C794      1.0  0.48319  0.96541  0.09177  1.0000
  C   C795      1.0  0.37713  0.53128  0.28541  1.0000
  C   C796      1.0  0.19462  0.57042  0.96964  1.0000
  C   C797      1.0  0.40869  0.69459  0.51110  1.0000
  C   C798      1.0  0.39851  0.56118  0.47537  1.0000
  H   H611      1.0  0.40557  0.56707  0.45568  1.0000
  S   S107      1.0  0.47461  0.80025  0.58128  1.0000
  S   S108      1.0  0.34615  0.58356  0.35393  1.0000
  H   H612      1.0  0.37950  0.67615  0.53976  1.0000
  C   C799      1.0  0.41703  0.55699  0.59510  1.0000
  C   C800      1.0  0.23677  0.53773  0.59128  1.0000
  C   C801      1.0  0.13819  0.54406  0.53042  1.0000
  C   C802      1.0  0.02678  0.83501  0.41277  1.0000
  C   C803      1.0  0.47576  0.85270  0.55283  1.0000
  C   C804      1.0  0.35173  0.99150  0.56280  1.0000
  C   C805      1.0  0.36602  0.53332  0.50302  1.0000
  H   H613      1.0  0.47513  0.89450  0.53116  1.0000
  C   C806      1.0  0.44603  0.79924  0.38795  1.0000
  H   H614      1.0  0.43381  0.89967  0.33566  1.0000
  H   H615      1.0  0.40344  0.85251  0.35203  1.0000
  C   C807      1.0  0.43916  0.98506  0.61272  1.0000
  C   C808      1.0  0.21969  0.53732  0.56814  1.0000
  H   H616      1.0  0.43858  0.96094  0.61399  1.0000
  Fe  Fe56      1.0  0.00931  0.53277  0.46268  1.0000
  C   C809      1.0  0.38522  0.58350  0.35057  1.0000
  C   C810      1.0  0.40328  0.55703  0.35008  1.0000
  C   C811      1.0  0.43414  0.55810  0.34648  1.0000
  C   C812      1.0  0.44726  0.58557  0.34341  1.0000
  C   C813      1.0  0.42921  0.61202  0.34428  1.0000
  C   C814      1.0  0.39844  0.61094  0.34803  1.0000
  H   H617      1.0  0.09593  0.56878  0.53340  1.0000
  C   C815      1.0  0.39632  0.67128  0.52481  1.0000
  H   H618      1.0  0.43885  0.63332  0.34194  1.0000
  H   H619      1.0  0.38473  0.63149  0.34886  1.0000
  C   C816      1.0  0.45970  0.81445  0.36734  1.0000
  C   C817      1.0  0.40202  0.89957  0.41673  1.0000
  H   H620      1.0  0.40125  0.71755  0.51524  1.0000
  Fe  Fe57      1.0  0.45279  0.68756  0.59055  1.0000
  H   H621      1.0  0.04820  0.85289  0.44703  1.0000
  S   S109      1.0  0.41183  0.66019  0.59203  1.0000
  C   C818      1.0  0.45959  0.59441  0.46316  1.0000
  H   H622      1.0  0.31664  0.61203  0.31284  1.0000
  C   C819      1.0  0.09611  0.52721  0.55486  1.0000
  H   H623      1.0  0.36938  0.56150  0.59379  1.0000
  C   C820      1.0  0.40639  0.64165  0.52007  1.0000
  H   H624      1.0  0.21052  0.55823  0.55996  1.0000
  S   S110      1.0  0.46309  0.71534  0.55471  1.0000
  S   S111      1.0  0.46363  0.72393  0.61961  1.0000
  C   C821      1.0  0.37944  0.54427  0.52570  1.0000
  S   S112      1.0  0.40593  0.02145  0.45854  1.0000
  C   C822      1.0  0.45395  0.75245  0.36428  1.0000
  S   S113      1.0  0.46104  0.95364  0.43491  1.0000
  C   C823      1.0  0.18671  0.54473  0.47992  1.0000
  H   H625      1.0  0.46894  0.81518  0.48407  1.0000
  C   C824      1.0  0.44297  0.57270  0.59520  1.0000
  C   C825      1.0  0.44170  0.60414  0.59414  1.0000
  C   C826      1.0  0.41438  0.62042  0.59300  1.0000
  C   C827      1.0  0.38833  0.60473  0.59291  1.0000
  C   C828      1.0  0.38960  0.57319  0.59390  1.0000
  C   C829      1.0  0.47182  0.85709  0.50473  1.0000
  H   H626      1.0  0.46194  0.61564  0.59428  1.0000
  H   H627      1.0  0.36703  0.61704  0.59209  1.0000
  Fe  Fe58      1.0  0.47886  0.74929  0.58362  1.0000
  C   C830      1.0  0.41336  0.01184  0.33863  1.0000
  H   H628      1.0  0.34386  0.66751  0.31495  1.0000
  C   C831      1.0  0.43143  0.68833  0.49283  1.0000
  C   C832      1.0  0.40226  0.56381  0.52326  1.0000
  C   C833      1.0  0.46683  0.76742  0.34332  1.0000
  C   C834      1.0  0.40328  0.86584  0.36999  1.0000
  C   C835      1.0  0.38480  0.68877  0.31922  1.0000
  C   C836      1.0  0.35143  0.01426  0.54355  1.0000
  C   C837      1.0  0.23304  0.54778  0.50360  1.0000
  C   C838      1.0  0.37852  0.95748  0.53271  1.0000
  H   H629      1.0  0.44638  0.61540  0.39891  1.0000
  S   S114      1.0  0.45760  0.96493  0.49935  1.0000
  S   S115      1.0  0.28466  0.53507  0.32205  1.0000
  H   H630      1.0  0.45259  0.72840  0.36364  1.0000
  S   S116      1.0  0.46808  0.87860  0.47512  1.0000
  C   C839      1.0  0.36316  0.00762  0.51830  1.0000
  H   H631      1.0  0.47496  0.75486  0.32614  1.0000
  H   H632      1.0  0.48474  0.63121  0.52530  1.0000
  H   H633      1.0  0.47948  0.80936  0.32822  1.0000
  H   H634      1.0  0.44789  0.53752  0.34599  1.0000
  C   C840      1.0  0.47113  0.82575  0.50322  1.0000
  C   C841      1.0  0.46968  0.58651  0.52072  1.0000
  P   P30       1.0  0.44249  0.59687  0.49557  1.0000
  H   H635      1.0  0.43406  0.75650  0.40295  1.0000
  C   C842      1.0  0.24326  0.56638  0.48371  1.0000
  H   H636      1.0  0.24102  0.55880  0.60069  1.0000
  C   C843      1.0  0.42988  0.87066  0.38329  1.0000
  H   H637      1.0  0.26520  0.62267  0.32727  1.0000
  C   C844      1.0  0.41209  0.57242  0.49811  1.0000
  H   H638      1.0  0.37226  0.53749  0.54521  1.0000
  H   H639      1.0  0.42829  0.70611  0.31921  1.0000
  Fe  Fe59      1.0  0.47551  0.92840  0.47211  1.0000
  H   H640      1.0  0.44157  0.70643  0.48268  1.0000
  C   C845      1.0  0.36550  0.67012  0.30642  1.0000
  H   H641      1.0  0.44891  0.89076  0.41816  1.0000
  H   H642      1.0  0.43803  0.81113  0.40553  1.0000
  C   C846      1.0  0.40602  0.98219  0.34227  1.0000
  C   C847      1.0  0.37569  0.89508  0.40316  1.0000
  H   H643      1.0  0.37787  0.70034  0.33726  1.0000
  C   C848      1.0  0.45800  0.60576  0.41597  1.0000
  H   H644      1.0  0.46424  0.56045  0.59605  1.0000
  C   C849      1.0  0.02725  0.84956  0.43730  1.0000
  H   H645      1.0  0.46138  0.53933  0.52014  1.0000
  H   H646      1.0  0.39667  0.94806  0.37074  1.0000
  H   H647      1.0  0.04738  0.82716  0.40343  1.0000
  C   C850      1.0  0.44469  0.60705  0.44100  1.0000
  C   C851      1.0  0.40507  0.98972  0.38984  1.0000
  H   H648      1.0  0.35586  0.87442  0.36945  1.0000
  H   H649      1.0  0.42279  0.61797  0.44310  1.0000
  C   C852      1.0  0.46266  0.90510  0.30269  1.0000
  H   H650      1.0  0.00112  0.87174  0.46800  1.0000
  C   C853      1.0  0.47264  0.80797  0.52638  1.0000
  H   H651      1.0  0.14770  0.56119  0.51860  1.0000
  C   C854      1.0  0.44346  0.76836  0.38651  1.0000
  H   H652      1.0  0.40356  0.96788  0.32518  1.0000
  H   H653      1.0  0.36626  0.94606  0.57254  1.0000
  C   C855      1.0  0.22530  0.57400  0.46186  1.0000
  C   C856      1.0  0.19703  0.56318  0.45998  1.0000
  C   C857      1.0  0.00071  0.86011  0.44914  1.0000
  H   H654      1.0  0.48031  0.96349  0.37388  1.0000
  C   C858      1.0  0.37631  0.87818  0.37981  1.0000
  C   C859      1.0  0.10887  0.54866  0.53908  1.0000
  C   C860      1.0  0.20451  0.53704  0.50198  1.0000
  H   H655      1.0  0.40163  0.91219  0.43512  1.0000
  C   C861      1.0  0.47458  0.87045  0.52966  1.0000
  H   H656      1.0  0.41248  0.57202  0.54104  1.0000
  C   C862      1.0  0.43259  0.99973  0.58876  1.0000
  H   H657      1.0  0.47158  0.78396  0.52493  1.0000
  H   H658      1.0  0.42665  0.98699  0.57145  1.0000
  C   C863      1.0  0.44168  0.65876  0.48815  1.0000
  H   H659      1.0  0.18335  0.56832  0.44269  1.0000
  H   H660      1.0  0.36505  0.53310  0.46032  1.0000
  H   H661      1.0  0.07332  0.53069  0.56139  1.0000
  C   C864      1.0  0.47456  0.82141  0.55137  1.0000
  C   C865      1.0  0.37551  0.54176  0.47788  1.0000
  S   S117      1.0  0.29147  0.52867  0.38687  1.0000
  H   H662      1.0  0.46577  0.96216  0.32641  1.0000
  H   H663      1.0  0.41615  0.02005  0.31862  1.0000
  H   H664      1.0  0.39347  0.53576  0.35227  1.0000
  H   H665      1.0  0.23353  0.58774  0.44610  1.0000
  C   C866      1.0  0.37695  0.97948  0.51304  1.0000
  C   C867      1.0  0.27287  0.63253  0.30904  1.0000
  H   H666      1.0  0.26551  0.57405  0.48485  1.0000
  Fe  Fe60      1.0  0.44819  0.99198  0.46235  1.0000
  C   C868      1.0  0.42900  0.88739  0.40690  1.0000
  H   H667      1.0  0.47726  0.86333  0.57203  1.0000
  C   C869      1.0  0.40212  0.97105  0.36788  1.0000
  C   C870      1.0  0.42891  0.63508  0.50144  1.0000
  H   H668      1.0  0.38943  0.93575  0.52859  1.0000
  C   C871      1.0  0.48633  0.59205  0.41289  1.0000
  C   C872      1.0  0.36563  0.96338  0.55750  1.0000
  H   H669      1.0  0.98706  0.54802  0.33243  1.0000
  H   H670      1.0  0.45990  0.65457  0.47448  1.0000
  P   P31       1.0  0.46446  0.85412  0.37058  1.0000
  Fe  Fe61      1.0  0.32028  0.54150  0.35269  1.0000
  C   C873      1.0  0.45470  0.89228  0.32678  1.0000
  H   H671      1.0  0.24802  0.54088  0.51955  1.0000
  H   H672      1.0  0.35481  0.90444  0.41093  1.0000
  C   C874      1.0  0.41250  0.01930  0.38624  1.0000
  H   H673      1.0  0.39693  0.62416  0.53149  1.0000
  C   C875      1.0  0.47463  0.55646  0.52835  1.0000
  C   C876      1.0  0.41324  0.69193  0.30915  1.0000
  H   H674      1.0  0.34111  0.99517  0.58184  1.0000
  H   H675      1.0  0.16512  0.53578  0.47772  1.0000
  H   H676      1.0  0.99972  0.81979  0.38100  1.0000
  H   H677      1.0  0.27764  0.02372  0.56210  1.0000
  H   H678      1.0  0.40165  0.98139  0.40974  1.0000
  C   C877      1.0  0.47400  0.87090  0.33929  1.0000
  H   H679      1.0  0.38645  0.97477  0.49363  1.0000
  C   C878      1.0  0.99977  0.83075  0.40019  1.0000
  C   C879      1.0  0.46962  0.79835  0.34475  1.0000
  S   S118      1.0  0.20778  0.52830  0.35845  1.0000
  H   H680      1.0  0.98796  0.67835  0.30719  1.0000
  H   H681      1.0  0.36187  0.02426  0.50263  1.0000
  H   H682      1.0  0.22926  0.02488  0.53914  1.0000
  H   H683      1.0  0.14423  0.53284  0.36365  1.0000
  C   C880      1.0  0.44738  0.00138  0.63491  1.0000
  S   S119      1.0  0.48637  0.67395  0.34089  1.0000
  S   S120      1.0  0.48604  0.58589  0.33798  1.0000
  H   H684      1.0  0.99274  0.97691  0.70802  1.0000
  H   H685      1.0  0.19628  0.61231  0.91302  1.0000
  H   H686      1.0  0.45684  0.55155  0.66989  1.0000
  H   H687      1.0  0.39591  0.53503  0.85183  1.0000
  S   S121      1.0  0.34966  0.58309  0.84439  1.0000
  C   C881      1.0  0.44161  0.77068  0.93230  1.0000
  H   H688      1.0  0.15011  0.54968  0.86694  1.0000
  C   C882      1.0  0.44224  0.58459  0.92066  1.0000
  C   C883      1.0  0.39146  0.96804  0.74128  1.0000
  H   H689      1.0  0.06928  0.56442  0.85695  1.0000
  C   C884      1.0  0.36385  0.55731  0.71023  1.0000
  H   H690      1.0  0.42497  0.84567  0.93720  1.0000
  C   C885      1.0  0.45239  0.57927  0.74257  1.0000
  P   P32       1.0  0.41152  0.01908  0.80594  1.0000
  C   C886      1.0  0.18785  0.59390  0.95170  1.0000
  C   C887      1.0  0.39018  0.87000  0.86769  1.0000
  H   H691      1.0  0.44704  0.90074  0.83557  1.0000
  C   C888      1.0  0.39799  0.57190  0.66639  1.0000
  C   C889      1.0  0.46472  0.59878  0.67225  1.0000
  Fe  Fe62      1.0  0.44169  0.98714  0.96177  1.0000
  C   C890      1.0  0.48135  0.60222  0.77660  1.0000
  C   C891      1.0  0.42963  0.76171  0.95642  1.0000
  H   H692      1.0  0.41494  0.76968  0.87932  1.0000
  C   C892      1.0  0.40480  0.68608  0.65989  1.0000
  H   H693      1.0  0.42694  0.94257  0.87652  1.0000
  C   C893      1.0  0.14520  0.54390  0.80620  1.0000
  S   S122      1.0  0.39916  0.01652  0.95648  1.0000
  C   C894      1.0  0.39904  0.98011  0.88977  1.0000
  H   H694      1.0  0.38981  0.62920  0.83544  1.0000
  H   H695      1.0  0.34792  0.01768  0.81484  1.0000
  C   C895      1.0  0.35806  0.54510  0.68534  1.0000
  C   C896      1.0  0.46040  0.85808  0.78056  1.0000
  S   S123      1.0  0.29265  0.53333  0.87968  1.0000
  C   C897      1.0  0.38897  0.58209  0.84377  1.0000
  C   C898      1.0  0.40641  0.55575  0.84845  1.0000
  C   C899      1.0  0.43757  0.55629  0.84910  1.0000
  C   C900      1.0  0.45163  0.58314  0.84530  1.0000
  C   C901      1.0  0.43418  0.60925  0.83983  1.0000
  C   C902      1.0  0.40306  0.60876  0.83926  1.0000
  H   H696      1.0  0.03120  0.95988  0.75377  1.0000
  C   C903      1.0  0.38611  0.00817  0.88324  1.0000
  H   H697      1.0  0.44456  0.62995  0.83637  1.0000
  H   H698      1.0  0.07688  0.59315  0.89817  1.0000
  C   C904      1.0  0.41311  0.99110  0.77994  1.0000
  H   H699      1.0  0.38425  0.72558  0.67792  1.0000
  C   C905      1.0  0.45881  0.74084  0.82985  1.0000
  H   H700      1.0  0.44771  0.78435  0.78741  1.0000
  P   P33       1.0  0.43486  0.60783  0.69518  1.0000
  H   H701      1.0  0.36070  0.64764  0.96173  1.0000
  C   C906      1.0  0.46613  0.63937  0.90955  1.0000
  H   H702      1.0  0.46953  0.64975  0.72475  1.0000
  H   H703      1.0  0.40743  0.65297  0.73103  1.0000
  C   C907      1.0  0.02749  0.00091  0.69065  1.0000
  C   C908      1.0  0.38969  0.01977  0.85778  1.0000
  H   H704      1.0  0.42726  0.83454  0.80141  1.0000
  H   H705      1.0  0.45294  0.98986  0.65334  1.0000
  C   C909      1.0  0.20204  0.59460  0.92707  1.0000
  C   C910      1.0  0.38964  0.98914  0.76175  1.0000
  C   C911      1.0  0.11015  0.58676  0.80970  1.0000
  C   C912      1.0  0.41581  0.96370  0.87092  1.0000
  C   C913      1.0  0.41904  0.97500  0.84524  1.0000
  C   C914      1.0  0.40712  0.66212  0.71112  1.0000
  H   H706      1.0  0.37409  0.02125  0.89831  1.0000
  C   C915      1.0  0.38697  0.57652  0.71328  1.0000
  C   C916      1.0  0.40492  0.88930  0.85119  1.0000
  H   H707      1.0  0.32489  0.56050  0.96501  1.0000
  H   H708      1.0  0.47550  0.86025  0.85934  1.0000
  H   H709      1.0  0.45119  0.88009  0.78607  1.0000
  H   H710      1.0  0.38605  0.70421  0.72348  1.0000
  H   H711      1.0  0.24639  0.53117  0.93254  1.0000
  C   C917      1.0  0.99714  0.58600  0.87042  1.0000
  H   H712      1.0  0.47907  0.73350  0.72891  1.0000
  S   S124      1.0  0.99764  0.58492  0.96149  1.0000
  H   H713      1.0  0.45081  0.53582  0.85270  1.0000
  H   H714      1.0  0.10545  0.61024  0.81408  1.0000
  C   C918      1.0  0.43917  0.80087  0.92464  1.0000
  H   H715      1.0  0.45350  0.75413  0.92004  1.0000
  C   C919      1.0  0.05474  0.59147  0.89030  1.0000
  H   H716      1.0  0.48050  0.64361  0.67173  1.0000
  H   H717      1.0  0.40339  0.60243  0.89986  1.0000
  C   C920      1.0  0.43745  0.63408  0.90119  1.0000
  H   H718      1.0  0.43275  0.96226  0.83122  1.0000
  H   H719      1.0  0.47475  0.53551  0.89591  1.0000
  H   H720      1.0  0.45961  0.93560  0.75440  1.0000
  H   H721      1.0  0.99574  0.93911  0.78542  1.0000
  C   C921      1.0  0.45247  0.60553  0.72732  1.0000
  H   H722      1.0  0.16770  0.53461  0.80854  1.0000
  H   H723      1.0  0.47543  0.66054  0.90514  1.0000
  H   H724      1.0  0.46594  0.55785  0.77942  1.0000
  H   H725      1.0  0.36632  0.87265  0.86981  1.0000
  H   H726      1.0  0.41560  0.73122  0.84414  1.0000
  C   C922      1.0  0.23055  0.54902  0.93819  1.0000
  H   H727      1.0  0.15687  0.58772  0.81831  1.0000
  C   C923      1.0  0.37499  0.55261  0.66339  1.0000
  H   H728      1.0  0.43213  0.73847  0.96243  1.0000
  C   C924      1.0  0.48318  0.75829  0.83307  1.0000
  H   H729      1.0  0.13385  0.56417  0.95786  1.0000
  H   H730      1.0  0.41818  0.93251  0.72271  1.0000
  C   C925      1.0  0.41348  0.81303  0.96596  1.0000
  S   S125      1.0  0.45438  0.95009  0.93289  1.0000
  H   H731      1.0  0.40360  0.69519  0.63995  1.0000
  C   C926      1.0  0.13907  0.57418  0.81192  1.0000
  C   C927      1.0  0.42545  0.82204  0.94187  1.0000
  C   C928      1.0  0.47055  0.56922  0.66355  1.0000
  Fe  Fe63      1.0  0.02371  0.53980  0.96098  1.0000
  C   C929      1.0  0.32687  0.58195  0.95545  1.0000
  C   C930      1.0  0.42549  0.60671  0.90676  1.0000
  C   C931      1.0  0.21619  0.54799  0.96271  1.0000
  C   C932      1.0  0.41719  0.65712  0.66405  1.0000
  C   C933      1.0  0.33098  0.63718  0.93035  1.0000
  C   C934      1.0  0.31269  0.61606  0.91977  1.0000
  C   C935      1.0  0.31019  0.58872  0.93266  1.0000
  H   H732      1.0  0.11942  0.53632  0.90569  1.0000
  H   H733      1.0  0.03349  0.61645  0.92224  1.0000
  H   H734      1.0  0.45890  0.72404  0.81436  1.0000
  C   C936      1.0  0.43567  0.88577  0.84837  1.0000
  H   H735      1.0  0.35037  0.55188  0.72714  1.0000
  H   H736      1.0  0.45159  0.65087  0.96384  1.0000
  H   H737      1.0  0.39253  0.90703  0.84062  1.0000
  C   C937      1.0  0.43711  0.84381  0.87906  1.0000
  C   C938      1.0  0.41658  0.94861  0.73878  1.0000
  C   C939      1.0  0.34730  0.63069  0.95348  1.0000
  C   C940      1.0  0.39380  0.70315  0.68129  1.0000
  C   C941      1.0  0.05046  0.57541  0.86701  1.0000
  C   C942      1.0  0.99729  0.96309  0.78375  1.0000
  C   C943      1.0  0.00165  0.60161  0.89411  1.0000
  H   H738      1.0  0.23381  0.57213  0.90090  1.0000
  C   C944      1.0  0.40499  0.58299  0.69155  1.0000
  H   H739      1.0  0.42470  0.65096  0.88995  1.0000
  S   S126      1.0  0.28894  0.53215  0.81460  1.0000
  H   H740      1.0  0.33257  0.65854  0.92052  1.0000
  H   H741      1.0  0.30045  0.62083  0.90157  1.0000
  C   C945      1.0  0.45875  0.78393  0.87023  1.0000
  H   H742      1.0  0.39666  0.97153  0.90974  1.0000
  C   C946      1.0  0.43995  0.95035  0.75672  1.0000
  H   H743      1.0  0.39427  0.83200  0.89362  1.0000
  H   H744      1.0  0.37350  0.96707  0.72709  1.0000
  C   C947      1.0  0.44689  0.83248  0.78907  1.0000
  H   H745      1.0  0.44102  0.02538  0.70710  1.0000
  C   C948      1.0  0.45173  0.86300  0.86209  1.0000
  C   C949      1.0  0.03035  0.60464  0.90377  1.0000
  C   C950      1.0  0.43420  0.76655  0.86664  1.0000
  H   H746      1.0  0.06476  0.57855  0.80033  1.0000
  C   C951      1.0  0.01717  0.97483  0.76588  1.0000
  C   C952      1.0  0.01900  0.00582  0.76362  1.0000
  C   C953      1.0  0.41890  0.64515  0.68976  1.0000
  C   C954      1.0  0.48307  0.78000  0.85302  1.0000
  C   C955      1.0  0.46810  0.62967  0.73657  1.0000
  H   H747      1.0  0.38298  0.55260  0.94975  1.0000
  C   C956      1.0  0.43841  0.97164  0.77708  1.0000
  C   C957      1.0  0.08727  0.56896  0.80197  1.0000
  H   H748      1.0  0.39075  0.58622  0.73260  1.0000
  H   H749      1.0  0.37012  0.00422  0.76271  1.0000
  C   C958      1.0  0.03484  0.02285  0.67246  1.0000
  H   H750      1.0  0.48194  0.86945  0.91170  1.0000
  H   H751      1.0  0.45726  0.97329  0.79019  1.0000
  H   H752      1.0  0.03453  0.01429  0.74964  1.0000
  C   C959      1.0  0.22337  0.57212  0.92030  1.0000
  H   H753      1.0  0.01920  0.56013  0.83910  1.0000
  H   H754      1.0  0.04478  0.98918  0.70212  1.0000
  C   C960      1.0  0.02186  0.57287  0.85700  1.0000
  C   C961      1.0  0.15950  0.53481  0.88204  1.0000
  H   H755      1.0  0.43246  0.56366  0.92488  1.0000
  Fe  Fe64      1.0  0.32347  0.54120  0.84561  1.0000
  C   C962      1.0  0.40559  0.00298  0.83833  1.0000
  C   C963      1.0  0.40615  0.84716  0.88140  1.0000
  H   H756      1.0  0.08140  0.58109  0.95222  1.0000
  H   H757      1.0  0.29557  0.57260  0.92485  1.0000
  H   H758      1.0  0.44168  0.55986  0.73539  1.0000
  C   C964      1.0  0.09333  0.53863  0.79650  1.0000
  C   C965      1.0  0.43435  0.74493  0.84663  1.0000
  H   H759      1.0  0.40847  0.62011  0.95727  1.0000
  Fe  Fe65      1.0  0.47152  0.92406  0.96877  1.0000
  S   S127      1.0  0.21064  0.53353  0.85199  1.0000
  C   C966      1.0  0.39484  0.69113  0.70690  1.0000
  H   H760      1.0  0.41038  0.57802  0.64904  1.0000
  C   C967      1.0  0.99792  0.99397  0.69387  1.0000
  P   P34       1.0  0.45749  0.81296  0.89505  1.0000
  C   C968      1.0  0.45850  0.80420  0.78133  1.0000
  H   H761      1.0  0.37030  0.54348  0.64400  1.0000
  C   C969      1.0  0.48400  0.80139  0.76561  1.0000
  C   C970      1.0  0.48576  0.85539  0.76468  1.0000
  C   C971      1.0  0.14204  0.52726  0.90400  1.0000
  H   H762      1.0  0.42533  0.64408  0.64719  1.0000
  C   C972      1.0  0.47136  0.58950  0.92859  1.0000
  C   C973      1.0  0.48300  0.61723  0.92331  1.0000
  C   C974      1.0  0.48382  0.62084  0.66457  1.0000
  C   C975      1.0  0.46645  0.57785  0.76733  1.0000
  C   C976      1.0  0.48226  0.62804  0.76122  1.0000
  H   H763      1.0  0.17147  0.61161  0.95665  1.0000
  H   H764      1.0  0.34026  0.53008  0.68295  1.0000
  S   S128      1.0  0.48546  0.00752  0.95929  1.0000
  C   C977      1.0  0.00079  0.02538  0.77916  1.0000
  C   C978      1.0  0.38748  0.54055  0.96808  1.0000
  C   C979      1.0  0.34624  0.60252  0.96558  1.0000
  H   H765      1.0  0.53114  0.11236  0.07230  1.0000
  H   H766      1.0  0.92426  0.27321  0.00465  1.0000
  C   C980      1.0  0.88209  0.05081  0.15982  1.0000
  S   S129      1.0  0.84170  0.08473  0.09985  1.0000
  H   H767      1.0  0.84777  0.03784  0.20529  1.0000
  H   H768      1.0  0.88695  0.03592  0.09299  1.0000
  H   H769      1.0  0.80713  0.08511  0.03760  1.0000
  Fe  Fe66      1.0  0.96590  0.46766  0.21270  1.0000
  H   H770      1.0  0.95640  0.48873  0.29398  1.0000
  C   C981      1.0  0.93625  0.02810  0.18032  1.0000
  C   C982      1.0  0.86679  0.49012  0.11462  1.0000
  C   C983      1.0  0.94630  0.05551  0.24382  1.0000
  H   H771      1.0  0.83487  0.12624  0.01888  1.0000
  H   H772      1.0  0.93796  0.13034  0.10169  1.0000
  H   H773      1.0  0.96055  0.48578  0.15306  1.0000
  C   C984      1.0  0.87685  0.49725  0.98009  1.0000
  H   H774      1.0  0.96785  0.51534  0.03775  1.0000
  H   H775      1.0  0.98225  0.45466  0.08022  1.0000
  C   C985      1.0  0.75723  0.05130  0.27335  1.0000
  C   C986      1.0  0.97048  0.34950  0.27955  1.0000
  C   C987      1.0  0.97408  0.25239  0.07214  1.0000
  H   H776      1.0  0.51248  0.14535  0.02977  1.0000
  C   C988      1.0  0.95138  0.13395  0.16197  1.0000
  S   S130      1.0  0.53848  0.03936  0.23831  1.0000
  Fe  Fe67      1.0  0.81597  0.04242  0.10070  1.0000
  C   C989      1.0  0.95857  0.13141  0.02826  1.0000
  S   S131      1.0  0.97861  0.42948  0.18500  1.0000
  C   C990      1.0  0.94271  0.16352  0.15552  1.0000
  C   C991      1.0  0.92209  0.17338  0.02683  1.0000
  H   H777      1.0  0.95234  0.46769  0.00952  1.0000
  C   C992      1.0  0.95877  0.24316  0.04973  1.0000
  H   H778      1.0  0.86714  0.19277  0.99060  1.0000
  H   H779      1.0  0.97812  0.12232  0.23653  1.0000
  C   C993      1.0  0.84813  0.10182  0.98346  1.0000
  H   H780      1.0  0.75878  0.47726  0.02738  1.0000
  C   C994      1.0  0.90022  0.43900  0.25990  1.0000
  C   C995      1.0  0.88105  0.08330  0.09934  1.0000
  H   H781      1.0  0.80939  0.48295  0.04400  1.0000
  H   H782      1.0  0.88319  0.13070  0.10577  1.0000
  H   H783      1.0  0.49426  0.05308  0.01563  1.0000
  H   H784      1.0  0.98411  0.11602  0.28475  1.0000
  H   H785      1.0  0.94210  0.05014  0.00255  1.0000
  H   H786      1.0  0.96970  0.37368  0.28018  1.0000
  C   C996      1.0  0.83015  0.05211  0.97970  1.0000
  H   H787      1.0  0.94236  0.08915  0.03940  1.0000
  H   H788      1.0  0.78993  0.24142  0.02120  1.0000
  C   C997      1.0  0.92190  0.22263  0.07819  1.0000
  H   H789      1.0  0.86120  0.05957  0.15162  1.0000
  H   H790      1.0  0.97243  0.26258  0.27752  1.0000
  H   H791      1.0  0.89637  0.09403  0.16985  1.0000
  C   C998      1.0  0.88294  0.50221  0.00703  1.0000
  C   C999      1.0  0.81363  0.23613  0.02182  1.0000
  C   C1000     1.0  0.84161  0.15826  0.29207  1.0000
  H   H792      1.0  0.94137  0.03549  0.08914  1.0000
  C   C1001     1.0  0.92485  0.47093  0.97465  1.0000
  H   H793      1.0  0.86635  0.46327  0.05152  1.0000
  C   C1002     1.0  0.96467  0.30165  0.30194  1.0000
  S   S132      1.0  0.98234  0.08176  0.08952  1.0000
  C   C1003     1.0  0.86514  0.47951  0.06749  1.0000
  C   C1004     1.0  0.89602  0.41488  0.27678  1.0000
  C   C1005     1.0  0.86501  0.04242  0.27098  1.0000
  C   C1006     1.0  0.94358  0.08288  0.09520  1.0000
  C   C1007     1.0  0.92691  0.18167  0.17378  1.0000
  C   C1008     1.0  0.95142  0.16181  0.02421  1.0000
  C   C1009     1.0  0.85755  0.03219  0.22434  1.0000
  C   C1010     1.0  0.90210  0.07030  0.17034  1.0000
  C   C1011     1.0  0.83383  0.10548  0.00798  1.0000
  H   H794      1.0  0.91581  0.49517  0.03809  1.0000
  C   C1012     1.0  0.92883  0.05630  0.09300  1.0000
  C   C1013     1.0  0.92698  0.10963  0.10030  1.0000
  C   C1014     1.0  0.87494  0.22221  0.02363  1.0000
  H   H795      1.0  0.90379  0.48644  0.25693  1.0000
  C   C1015     1.0  0.90003  0.04498  0.02163  1.0000
  S   S133      1.0  0.78795  0.02733  0.13472  1.0000
  C   C1016     1.0  0.81916  0.51760  0.01583  1.0000
  H   H796      1.0  0.71157  0.06615  0.26734  1.0000
  C   C1017     1.0  0.86048  0.51017  0.06193  1.0000
  C   C1018     1.0  0.52845  0.07059  0.99220  1.0000
  P   P35       1.0  0.91434  0.21315  0.02406  1.0000
  C   C1019     1.0  0.91892  0.16999  0.19827  1.0000
  Fe  Fe68      1.0  0.50461  0.05367  0.20706  1.0000
  C   C1020     1.0  0.92756  0.22671  0.99273  1.0000
  H   H797      1.0  0.92151  0.20497  0.16916  1.0000
  H   H798      1.0  0.87235  0.44593  0.09787  1.0000
  C   C1021     1.0  0.89067  0.13614  0.28298  1.0000
  H   H799      1.0  0.82113  0.26665  0.05385  1.0000
  S   S134      1.0  0.53320  0.03536  0.17341  1.0000
  C   C1022     1.0  0.95709  0.08041  0.23079  1.0000
  C   C1023     1.0  0.85365  0.05153  0.24610  1.0000
  C   C1024     1.0  0.53863  0.12230  0.99979  1.0000
  P   P36       1.0  0.83183  0.08647  0.24314  1.0000
  C   C1025     1.0  0.84745  0.11383  0.26450  1.0000
  C   C1026     1.0  0.83220  0.10044  0.20946  1.0000
  C   C1027     1.0  0.84937  0.12445  0.20260  1.0000
  C   C1028     1.0  0.84822  0.13619  0.17687  1.0000
  C   C1029     1.0  0.82979  0.12424  0.15788  1.0000
  C   C1030     1.0  0.81259  0.10045  0.16452  1.0000
  C   C1031     1.0  0.81388  0.08843  0.19014  1.0000
  H   H800      1.0  0.85632  0.50590  0.97120  1.0000
  C   C1032     1.0  0.90020  0.46800  0.27016  1.0000
  C   C1033     1.0  0.94381  0.12216  0.18667  1.0000
  C   C1034     1.0  0.90003  0.15424  0.03428  1.0000
  C   C1035     1.0  0.87834  0.11398  0.26771  1.0000
  C   C1036     1.0  0.79383  0.08087  0.25204  1.0000
  C   C1037     1.0  0.78679  0.05643  0.26777  1.0000
  C   C1038     1.0  0.51093  0.09526  0.13505  1.0000
  C   C1039     1.0  0.86847  0.46959  0.09372  1.0000
  C   C1040     1.0  0.74127  0.09523  0.24806  1.0000
  C   C1041     1.0  0.77083  0.10045  0.24245  1.0000
  H   H801      1.0  0.96886  0.17658  0.01987  1.0000
  C   C1042     1.0  0.92927  0.05908  0.18088  1.0000
  H   H802      1.0  0.90695  0.18415  0.21255  1.0000
  H   H803      1.0  0.92035  0.13156  0.22355  1.0000
  H   H804      1.0  0.86127  0.05643  0.28830  1.0000
  H   H805      1.0  0.86348  0.13441  0.21700  1.0000
  H   H806      1.0  0.92927  0.22730  0.12031  1.0000
  H   H807      1.0  0.82899  0.13318  0.13788  1.0000
  H   H808      1.0  0.79846  0.09118  0.14961  1.0000
  H   H809      1.0  0.80037  0.06993  0.19490  1.0000
  C   C1043     1.0  0.80130  0.49668  0.02759  1.0000
  C   C1044     1.0  0.97016  0.10253  0.24589  1.0000
  H   H810      1.0  0.86168  0.15450  0.17158  1.0000
  H   H811      1.0  0.89294  0.09710  0.25835  1.0000
  H   H812      1.0  0.51929  0.09564  0.15522  1.0000
  C   C1045     1.0  0.91036  0.49147  0.01750  1.0000
  H   H813      1.0  0.80310  0.03813  0.01205  1.0000
  H   H814      1.0  0.72357  0.11002  0.24018  1.0000
  H   H815      1.0  0.77567  0.11950  0.23030  1.0000
  H   H816      1.0  0.87759  0.16276  0.03813  1.0000
  C   C1046     1.0  0.83121  0.25029  0.04026  1.0000
  C   C1047     1.0  0.92950  0.25756  0.98872  1.0000
  H   H817      1.0  0.73905  0.50849  0.98992  1.0000
  C   C1048     1.0  0.96324  0.24697  0.09754  1.0000
  H   H818      1.0  0.87506  0.25525  0.05511  1.0000
  C   C1049     1.0  0.89782  0.05650  0.09510  1.0000
  C   C1050     1.0  0.96402  0.07374  0.28581  1.0000
  H   H819      1.0  0.89080  0.06684  0.01601  1.0000
  H   H820      1.0  0.98145  0.12281  0.02714  1.0000
  C   C1051     1.0  0.52852  0.10420  0.11407  1.0000
  H   H821      1.0  0.97360  0.22475  0.20965  1.0000
  C   C1052     1.0  0.85724  0.20863  0.00474  1.0000
  H   H822      1.0  0.81310  0.20474  0.98945  1.0000
  C   C1053     1.0  0.86181  0.24355  0.04107  1.0000
  H   H823      1.0  0.85967  0.12026  0.97540  1.0000
  C   C1054     1.0  0.77251  0.49339  0.01822  1.0000
  H   H824      1.0  0.97558  0.25338  0.11492  1.0000
  H   H825      1.0  0.90239  0.21004  0.08088  1.0000
  C   C1055     1.0  0.93238  0.22848  0.05256  1.0000
  C   C1056     1.0  0.90719  0.12377  0.03806  1.0000
  H   H826      1.0  0.75203  0.03190  0.28497  1.0000
  H   H827      1.0  0.93532  0.03849  0.23305  1.0000
  C   C1057     1.0  0.82916  0.13611  0.27683  1.0000
  C   C1058     1.0  0.81799  0.08238  0.01848  1.0000
  C   C1059     1.0  0.89586  0.10982  0.10240  1.0000
  C   C1060     1.0  0.92695  0.14022  0.20456  1.0000
  C   C1061     1.0  0.73447  0.07057  0.26339  1.0000
  H   H828      1.0  0.91444  0.13588  0.28592  1.0000
  C   C1062     1.0  0.92882  0.03552  0.01408  1.0000
  H   H829      1.0  0.80534  0.13652  0.27469  1.0000
  C   C1063     1.0  0.97204  0.28674  0.27827  1.0000
  H   H830      1.0  0.49895  0.03969  0.28637  1.0000
  S   S135      1.0  0.92383  0.49704  0.20595  1.0000
  C   C1064     1.0  0.51737  0.10476  0.08817  1.0000
  H   H831      1.0  0.93178  0.18318  0.97374  1.0000
  C   C1065     1.0  0.93711  0.23217  0.10056  1.0000
  H   H832      1.0  0.94929  0.17276  0.13673  1.0000
  C   C1066     1.0  0.93116  0.47587  0.00137  1.0000
  C   C1067     1.0  0.93645  0.11239  0.03504  1.0000
  H   H833      1.0  0.96423  0.12049  0.14775  1.0000
  H   H834      1.0  0.55076  0.11089  0.11798  1.0000
  C   C1068     1.0  0.51654  0.12444  0.01925  1.0000
  C   C1069     1.0  0.97361  0.09913  0.27326  1.0000
  H   H835      1.0  0.91021  0.09041  0.97553  1.0000
  H   H836      1.0  0.90410  0.43529  0.23888  1.0000
  C   C1070     1.0  0.50622  0.07272  0.01147  1.0000
  C   C1071     1.0  0.48853  0.09618  0.08312  1.0000
  C   C1072     1.0  0.50013  0.09963  0.02526  1.0000
  C   C1073     1.0  0.94988  0.05220  0.27128  1.0000
  H   H837      1.0  0.86931  0.48239  0.13497  1.0000
  H   H838      1.0  0.94197  0.03281  0.28136  1.0000
  P   P37       1.0  0.95514  0.08401  0.19505  1.0000
  H   H839      1.0  0.89035  0.10928  0.04479  1.0000
  H   H840      1.0  0.86016  0.03280  0.04131  1.0000
  S   S136      1.0  0.78171  0.03301  0.06982  1.0000
  C   C1074     1.0  0.81582  0.05588  0.00415  1.0000
  H   H841      1.0  0.80389  0.04082  0.27538  1.0000
  S   S137      1.0  0.97432  0.44018  0.24973  1.0000
  C   C1075     1.0  0.82667  0.21542  0.00398  1.0000
  H   H842      1.0  0.96842  0.24636  0.03036  1.0000
  H   H843      1.0  0.97509  0.05630  0.14471  1.0000
  H   H844      1.0  0.89681  0.39231  0.26889  1.0000
  H   H845      1.0  0.53337  0.04944  0.98218  1.0000
  H   H846      1.0  0.98393  0.20647  0.25551  1.0000
  C   C1076     1.0  0.54463  0.09535  0.98631  1.0000
  C   C1077     1.0  0.87232  0.15836  0.29502  1.0000
  C   C1078     1.0  0.96168  0.50920  0.14806  1.0000
  C   C1079     1.0  0.76137  0.51096  0.99712  1.0000
  H   H847      1.0  0.55133  0.14144  0.99534  1.0000
  C   C1080     1.0  0.95400  0.51247  0.28977  1.0000
  H   H848      1.0  0.91456  0.51653  0.14425  1.0000
  C   C1081     1.0  0.97717  0.33456  0.25570  1.0000
  H   H849      1.0  0.82747  0.17531  0.30176  1.0000
  C   C1082     1.0  0.97805  0.30315  0.25524  1.0000
  C   C1083     1.0  0.89595  0.47316  0.29736  1.0000
  C   C1084     1.0  0.84731  0.07463  0.96960  1.0000
  H   H850      1.0  0.49028  0.50448  0.97607  1.0000
  C   C1085     1.0  0.86185  0.52063  0.10931  1.0000
  H   H851      1.0  0.98308  0.29141  0.23687  1.0000
  S   S138      1.0  0.98401  0.35396  0.22589  1.0000
  H   H852      1.0  0.95124  0.12404  0.97045  1.0000
  H   H853      1.0  0.56199  0.09348  0.97149  1.0000
  C   C1086     1.0  0.93364  0.20698  0.97148  1.0000
  P   P38       1.0  0.85619  0.52268  0.02790  1.0000
  C   C1087     1.0  0.96402  0.33309  0.30251  1.0000
  S   S139      1.0  0.90861  0.13899  0.35122  1.0000
  C   C1088     1.0  0.50856  0.22322  0.52731  1.0000
  C   C1089     1.0  0.52087  0.17649  0.56322  1.0000
  H   H854      1.0  0.94406  0.47298  0.39273  1.0000
  H   H855      1.0  0.91571  0.24322  0.44214  1.0000
  H   H856      1.0  0.88961  0.16750  0.52717  1.0000
  P   P39       1.0  0.89677  0.51084  0.30996  1.0000
  C   C1090     1.0  0.89985  0.03656  0.58950  1.0000
  C   C1091     1.0  0.94528  0.36678  0.44465  1.0000
  H   H857      1.0  0.91369  0.18858  0.44634  1.0000
  C   C1092     1.0  0.91282  0.09955  0.34827  1.0000
  H   H858      1.0  0.52556  0.15827  0.57707  1.0000
  C   C1093     1.0  0.97149  0.27642  0.56156  1.0000
  C   C1094     1.0  0.79717  0.06982  0.50012  1.0000
  C   C1095     1.0  0.94006  0.08373  0.35240  1.0000
  C   C1096     1.0  0.97496  0.35558  0.44513  1.0000
  C   C1097     1.0  0.82368  0.07621  0.51296  1.0000
  H   H859      1.0  0.93731  0.47499  0.34421  1.0000
  C   C1098     1.0  0.94658  0.06110  0.59414  1.0000
  H   H860      1.0  0.95568  0.04328  0.48858  1.0000
  H   H861      1.0  0.96808  0.21540  0.48249  1.0000
  C   C1099     1.0  0.79523  0.09142  0.55218  1.0000
  H   H862      1.0  0.93455  0.16450  0.48708  1.0000
  H   H863      1.0  0.96784  0.07075  0.30677  1.0000
  H   H864      1.0  0.52215  0.09404  0.42590  1.0000
  H   H865      1.0  0.97871  0.03656  0.53284  1.0000
  P   P40       1.0  0.85925  0.06886  0.49698  1.0000
  C   C1100     1.0  0.92407  0.49033  0.35663  1.0000
  C   C1101     1.0  0.92266  0.13262  0.53664  1.0000
  H   H866      1.0  0.78427  0.08469  0.62767  1.0000
  C   C1102     1.0  0.95017  0.12420  0.46705  1.0000
  S   S140      1.0  0.84512  0.06379  0.60357  1.0000
  C   C1103     1.0  0.93085  0.03648  0.58616  1.0000
  Fe  Fe69      1.0  0.94728  0.16844  0.34531  1.0000
  C   C1104     1.0  0.93098  0.08571  0.60561  1.0000
  H   H867      1.0  0.50582  0.05986  0.61926  1.0000
  H   H868      1.0  0.85164  0.02850  0.54225  1.0000
  H   H869      1.0  0.91501  0.50808  0.42184  1.0000
  H   H870      1.0  0.91957  0.16281  0.40302  1.0000
  C   C1105     1.0  0.95458  0.30095  0.41939  1.0000
  H   H871      1.0  0.88823  0.10550  0.61689  1.0000
  H   H872      1.0  0.95794  0.27240  0.45425  1.0000
  H   H873      1.0  0.92857  0.35504  0.43421  1.0000
  C   C1106     1.0  0.50388  0.08920  0.41300  1.0000
  H   H874      1.0  0.52753  0.32053  0.58402  1.0000
  C   C1107     1.0  0.88424  0.06162  0.60028  1.0000
  C   C1108     1.0  0.90000  0.08614  0.60827  1.0000
  H   H875      1.0  0.90288  0.29475  0.37069  1.0000
  C   C1109     1.0  0.92451  0.16644  0.44535  1.0000
  H   H876      1.0  0.83762  0.51419  0.33443  1.0000
  H   H877      1.0  0.49974  0.52518  0.55323  1.0000
  H   H878      1.0  0.87833  0.11613  0.46013  1.0000
  H   H879      1.0  0.62077  0.09098  0.58126  1.0000
  H   H880      1.0  0.84478  0.08726  0.38545  1.0000
  C   C1110     1.0  0.98499  0.25040  0.60242  1.0000
  H   H881      1.0  0.97097  0.43688  0.57553  1.0000
  C   C1111     1.0  0.84152  0.05374  0.44587  1.0000
  C   C1112     1.0  0.92810  0.48918  0.38413  1.0000
  H   H882      1.0  0.50417  0.24127  0.51325  1.0000
  C   C1113     1.0  0.88783  0.08358  0.34254  1.0000
  H   H883      1.0  0.55760  0.16369  0.53761  1.0000
  C   C1114     1.0  0.92193  0.26118  0.42933  1.0000
  C   C1115     1.0  0.62262  0.06906  0.57216  1.0000
  C   C1116     1.0  0.92791  0.15195  0.42095  1.0000
  C   C1117     1.0  0.94215  0.05224  0.35085  1.0000
  C   C1118     1.0  0.95352  0.10932  0.44256  1.0000
  C   C1119     1.0  0.48681  0.08669  0.53310  1.0000
  H   H884      1.0  0.82624  0.04210  0.40690  1.0000
  H   H885      1.0  0.91403  0.40231  0.45703  1.0000
  H   H886      1.0  0.87062  0.04045  0.33602  1.0000
  H   H887      1.0  0.88574  0.45242  0.33493  1.0000
  H   H888      1.0  0.96301  0.20988  0.60979  1.0000
  H   H889      1.0  0.94459  0.32481  0.38266  1.0000
  C   C1120     1.0  0.76997  0.07457  0.51312  1.0000
  C   C1121     1.0  0.83733  0.05842  0.41867  1.0000
  H   H890      1.0  0.84254  0.09046  0.55018  1.0000
  C   C1122     1.0  0.93588  0.15268  0.46834  1.0000
  C   C1123     1.0  0.86258  0.10443  0.42170  1.0000
  H   H891      1.0  0.96327  0.04019  0.35401  1.0000
  H   H892      1.0  0.94271  0.10439  0.61271  1.0000
  H   H893      1.0  0.94588  0.11330  0.40029  1.0000
  C   C1124     1.0  0.49766  0.28733  0.57173  1.0000
  C   C1125     1.0  0.93837  0.30732  0.39607  1.0000
  H   H894      1.0  0.93744  0.14763  0.54605  1.0000
  H   H895      1.0  0.98017  0.44242  0.62389  1.0000
  C   C1126     1.0  0.91717  0.03629  0.34494  1.0000
  C   C1127     1.0  0.59735  0.05315  0.56809  1.0000
  C   C1128     1.0  0.49661  0.19674  0.56750  1.0000
  H   H896      1.0  0.97965  0.35386  0.56882  1.0000
  C   C1129     1.0  0.94264  0.12369  0.41949  1.0000
  C   C1130     1.0  0.65044  0.05632  0.56506  1.0000
  H   H897      1.0  0.91767  0.05888  0.52317  1.0000
  H   H898      1.0  0.87116  0.12376  0.41206  1.0000
  C   C1131     1.0  0.76898  0.08548  0.53911  1.0000
  C   C1132     1.0  0.93691  0.39366  0.45751  1.0000
  C   C1133     1.0  0.96533  0.22849  0.59635  1.0000
  H   H899      1.0  0.88823  0.02921  0.39734  1.0000
  H   H900      1.0  0.95108  0.09340  0.54427  1.0000
  C   C1134     1.0  0.93046  0.10203  0.53537  1.0000
  C   C1135     1.0  0.91447  0.29041  0.38928  1.0000
  C   C1136     1.0  0.85555  0.07479  0.46147  1.0000
  S   S141      1.0  0.95542  0.28182  0.33094  1.0000
  C   C1137     1.0  0.86654  0.09997  0.44903  1.0000
  S   S142      1.0  0.95575  0.20704  0.37250  1.0000
  S   S143      1.0  0.95322  0.19544  0.30809  1.0000
  C   C1138     1.0  0.89578  0.14383  0.52584  1.0000
  H   H901      1.0  0.95957  0.09563  0.35682  1.0000
  C   C1139     1.0  0.50474  0.31430  0.58353  1.0000
  H   H902      1.0  0.74797  0.08854  0.54937  1.0000
  H   H903      1.0  0.48717  0.13514  0.41014  1.0000
  H   H904      1.0  0.74967  0.06931  0.50317  1.0000
  C   C1140     1.0  0.87159  0.03045  0.50317  1.0000
  C   C1141     1.0  0.90630  0.26729  0.40583  1.0000
  C   C1142     1.0  0.87695  0.12452  0.51333  1.0000
  H   H905      1.0  0.98141  0.21159  0.43467  1.0000
  H   H906      1.0  0.91697  0.07125  0.41161  1.0000
  C   C1143     1.0  0.94909  0.23022  0.57276  1.0000
  C   C1144     1.0  0.53284  0.20295  0.52312  1.0000
  H   H907      1.0  0.79470  0.09887  0.57266  1.0000
  C   C1145     1.0  0.91155  0.08258  0.52312  1.0000
  Fe  Fe70      1.0  0.96716  0.23201  0.33521  1.0000
  C   C1146     1.0  0.84780  0.08379  0.40659  1.0000
  C   C1147     1.0  0.94597  0.27790  0.43613  1.0000
  H   H908      1.0  0.95840  0.34480  0.32077  1.0000
  H   H909      1.0  0.88728  0.40120  0.31684  1.0000
  H   H910      1.0  0.88812  0.25389  0.40021  1.0000
  C   C1148     1.0  0.50018  0.05982  0.40495  1.0000
  H   H911      1.0  0.86671  0.09559  0.33910  1.0000
  H   H912      1.0  0.85606  0.13347  0.50525  1.0000
  C   C1149     1.0  0.95219  0.25414  0.55536  1.0000
  H   H913      1.0  0.54692  0.20537  0.50593  1.0000
  C   C1150     1.0  0.88999  0.05219  0.34084  1.0000
  C   C1151     1.0  0.88480  0.09376  0.51165  1.0000
  H   H914      1.0  0.93465  0.21262  0.56769  1.0000
  C   C1152     1.0  0.92434  0.04891  0.41759  1.0000
  H   H915      1.0  0.79720  0.06089  0.48024  1.0000
  H   H916      1.0  0.57575  0.06275  0.57381  1.0000
  C   C1153     1.0  0.82245  0.08663  0.53928  1.0000
  C   C1154     1.0  0.53890  0.17950  0.54098  1.0000
  H   H917      1.0  0.94002  0.25506  0.53683  1.0000
  C   C1155     1.0  0.48997  0.21998  0.54930  1.0000
  H   H918      1.0  0.97348  0.29473  0.54782  1.0000
  H   H919      1.0  0.67023  0.06808  0.56907  1.0000
  C   C1156     1.0  0.95052  0.04350  0.43224  1.0000
  H   H920      1.0  0.83369  0.03361  0.45470  1.0000
  H   H921      1.0  0.88195  0.17530  0.30713  1.0000
  S   S144      1.0  0.97968  0.14607  0.59144  1.0000
  H   H922      1.0  0.51522  0.27303  0.56311  1.0000
  H   H923      1.0  0.81236  0.13004  0.62219  1.0000
  C   C1157     1.0  0.89035  0.44899  0.31405  1.0000
  C   C1158     1.0  0.89083  0.41990  0.30382  1.0000
  C   C1159     1.0  0.91175  0.50905  0.40056  1.0000
  H   H924      1.0  0.98242  0.42730  0.34756  1.0000
  H   H925      1.0  0.51581  0.04194  0.41126  1.0000
  H   H926      1.0  0.95927  0.11446  0.48514  1.0000
  C   C1160     1.0  0.95812  0.40971  0.47062  1.0000
  H   H927      1.0  0.95179  0.43071  0.48039  1.0000
  H   H928      1.0  0.96183  0.29792  0.62992  1.0000
  C   C1161     1.0  0.97115  0.31919  0.63329  1.0000
  P   P41       1.0  0.97410  0.07352  0.44030  1.0000
  C   C1162     1.0  0.97748  0.05129  0.49199  1.0000
  C   C1163     1.0  0.50270  0.08054  0.63035  1.0000
  S   S145      1.0  0.98558  0.06049  0.58946  1.0000
  H   H929      1.0  0.49970  0.07076  0.52088  1.0000
  C   C1164     1.0  0.90285  0.51078  0.34543  1.0000
  C   C1165     1.0  0.65304  0.02772  0.55385  1.0000
  H   H930      1.0  0.48777  0.35473  0.60290  1.0000
  H   H931      1.0  0.48701  0.12222  0.50428  1.0000
  H   H932      1.0  0.93906  0.33165  0.66365  1.0000
  S   S146      1.0  0.89776  0.15506  0.83267  1.0000
  C   C1166     1.0  0.81528  0.13847  0.66426  1.0000
  C   C1167     1.0  0.91197  0.08845  0.69764  1.0000
  H   H933      1.0  0.85539  0.05639  0.82733  1.0000
  C   C1168     1.0  0.93226  0.48822  0.88511  1.0000
  C   C1169     1.0  0.92750  0.06780  0.84057  1.0000
  C   C1170     1.0  0.94459  0.24859  0.94312  1.0000
  Fe  Fe71      1.0  0.94431  0.48325  0.71600  1.0000
  C   C1171     1.0  0.49544  0.13358  0.65951  1.0000
  H   H934      1.0  0.96191  0.49315  0.91793  1.0000
  C   C1172     1.0  0.91595  0.03631  0.68385  1.0000
  H   H935      1.0  0.82410  0.02985  0.91484  1.0000
  C   C1173     1.0  0.94960  0.24854  0.70127  1.0000
  H   H936      1.0  0.88838  0.03624  0.89176  1.0000
  S   S147      1.0  0.95479  0.44371  0.68922  1.0000
  S   S148      1.0  0.95380  0.45706  0.75360  1.0000
  C   C1174     1.0  0.92628  0.09914  0.83979  1.0000
  C   C1175     1.0  0.89958  0.11540  0.83455  1.0000
  H   H937      1.0  0.93110  0.13423  0.88761  1.0000
  H   H938      1.0  0.90499  0.48328  0.78579  1.0000
  C   C1176     1.0  0.88872  0.04050  0.67056  1.0000
  C   C1177     1.0  0.96538  0.31301  0.80743  1.0000
  C   C1178     1.0  0.80651  0.12274  0.64192  1.0000
  H   H939      1.0  0.80397  0.13063  0.87557  1.0000
  Fe  Fe72      1.0  0.94033  0.18008  0.83544  1.0000
  H   H940      1.0  0.78334  0.03853  0.88297  1.0000
  C   C1179     1.0  0.79695  0.05680  0.88818  1.0000
  C   C1180     1.0  0.87517  0.06818  0.83095  1.0000
  H   H941      1.0  0.50653  0.09313  0.89160  1.0000
  C   C1181     1.0  0.96825  0.36160  0.78532  1.0000
  C   C1182     1.0  0.83763  0.07550  0.91360  1.0000
  C   C1183     1.0  0.52153  0.11546  0.66197  1.0000
  H   H942      1.0  0.77364  0.08852  0.86246  1.0000
  H   H943      1.0  0.97391  0.35417  0.82748  1.0000
  H   H944      1.0  0.88911  0.12607  0.76847  1.0000
  H   H945      1.0  0.94838  0.05775  0.70777  1.0000
  C   C1184     1.0  0.95977  0.30007  0.78281  1.0000
  H   H946      1.0  0.53867  0.12150  0.67567  1.0000
  C   C1185     1.0  0.96334  0.11540  0.77786  1.0000
  S   S149      1.0  0.95578  0.21162  0.80392  1.0000
  H   H947      1.0  0.92125  0.10714  0.70774  1.0000
  H   H948      1.0  0.94115  0.45906  0.96213  1.0000
  H   H949      1.0  0.85855  0.48353  0.81175  1.0000
  C   C1186     1.0  0.87388  0.09974  0.83053  1.0000
  H   H950      1.0  0.85298  0.11200  0.82682  1.0000
  C   C1187     1.0  0.95777  0.33847  0.65214  1.0000
  C   C1188     1.0  0.92620  0.12480  0.90683  1.0000
  H   H951      1.0  0.85246  0.07170  0.66035  1.0000
  C   C1189     1.0  0.94208  0.21794  0.94680  1.0000
  S   S150      1.0  0.90192  0.51285  0.71208  1.0000
  C   C1190     1.0  0.91356  0.08340  0.76655  1.0000
  H   H952      1.0  0.94822  0.05571  0.84514  1.0000
  C   C1191     1.0  0.94144  0.06843  0.76886  1.0000
  C   C1192     1.0  0.83109  0.10412  0.90295  1.0000
  C   C1193     1.0  0.79135  0.08502  0.87682  1.0000
  H   H953      1.0  0.95887  0.25921  0.66079  1.0000
  C   C1194     1.0  0.90312  0.10556  0.90947  1.0000
  C   C1195     1.0  0.91064  0.11439  0.76970  1.0000
  C   C1196     1.0  0.50323  0.05913  0.80641  1.0000
  C   C1197     1.0  0.88338  0.03207  0.93435  1.0000
  C   C1198     1.0  0.88492  0.09244  0.68436  1.0000
  H   H954      1.0  0.82789  0.03153  0.96876  1.0000
  C   C1199     1.0  0.82283  0.04969  0.75808  1.0000
  C   C1200     1.0  0.81327  0.05631  0.73205  1.0000
  C   C1201     1.0  0.91998  0.50140  0.86219  1.0000
  P   P42       1.0  0.78674  0.08739  0.72582  1.0000
  C   C1202     1.0  0.75009  0.07347  0.72852  1.0000
  C   C1203     1.0  0.79105  0.11597  0.75068  1.0000
  C   C1204     1.0  0.76607  0.13128  0.76183  1.0000
  C   C1205     1.0  0.76945  0.15281  0.78156  1.0000
  C   C1206     1.0  0.79773  0.15923  0.79028  1.0000
  C   C1207     1.0  0.82271  0.14430  0.77914  1.0000
  C   C1208     1.0  0.81945  0.12285  0.75930  1.0000
  C   C1209     1.0  0.72740  0.08236  0.71059  1.0000
  C   C1210     1.0  0.69965  0.07017  0.71234  1.0000
  H   H955      1.0  0.82759  0.15833  0.66181  1.0000
  H   H956      1.0  0.50236  0.05260  0.84867  1.0000
  C   C1211     1.0  0.74396  0.05363  0.74908  1.0000
  C   C1212     1.0  0.79333  0.10217  0.69303  1.0000
  C   C1213     1.0  0.78412  0.08687  0.67040  1.0000
  Fe  Fe73      1.0  0.96869  0.41898  0.72680  1.0000
  C   C1214     1.0  0.80873  0.12827  0.68973  1.0000
  C   C1215     1.0  0.97574  0.17751  0.71403  1.0000
  C   C1216     1.0  0.92736  0.06047  0.69749  1.0000
  H   H957      1.0  0.81465  0.04027  0.69132  1.0000
  H   H958      1.0  0.81516  0.06339  0.77468  1.0000
  C   C1217     1.0  0.89298  0.50426  0.79037  1.0000
  H   H959      1.0  0.74396  0.12655  0.75545  1.0000
  H   H960      1.0  0.75009  0.16444  0.79021  1.0000
  H   H961      1.0  0.80039  0.17576  0.80569  1.0000
  H   H962      1.0  0.84456  0.14933  0.78617  1.0000
  H   H963      1.0  0.83902  0.11140  0.75087  1.0000
  H   H964      1.0  0.73103  0.09843  0.69509  1.0000
  H   H965      1.0  0.68252  0.07617  0.69792  1.0000
  H   H966      1.0  0.95625  0.27647  0.78169  1.0000
  H   H967      1.0  0.48734  0.04644  0.90932  1.0000
  C   C1218     1.0  0.79070  0.09712  0.64501  1.0000
  H   H968      1.0  0.77233  0.06661  0.67233  1.0000
  H   H969      1.0  0.89300  0.47812  0.94319  1.0000
  H   H970      1.0  0.81612  0.14064  0.70668  1.0000
  C   C1219     1.0  0.95791  0.31786  0.75970  1.0000
  H   H971      1.0  0.54549  0.07507  0.64916  1.0000
  C   C1220     1.0  0.96205  0.34868  0.76079  1.0000
  C   C1221     1.0  0.95228  0.50353  0.90031  1.0000
  C   C1222     1.0  0.89769  0.48155  0.96403  1.0000
  H   H972      1.0  0.76083  0.04675  0.76342  1.0000
  C   C1223     1.0  0.93547  0.13035  0.77535  1.0000
  H   H973      1.0  0.94720  0.20263  0.93055  1.0000
  Fe  Fe74      1.0  0.51225  0.02724  0.71122  1.0000
  C   C1224     1.0  0.96747  0.25821  0.68079  1.0000
  H   H974      1.0  0.94330  0.04459  0.76611  1.0000
  H   H975      1.0  0.94020  0.29217  0.96114  1.0000
  C   C1225     1.0  0.86679  0.50445  0.80501  1.0000
  C   C1226     1.0  0.90219  0.05210  0.83564  1.0000
  C   C1227     1.0  0.80841  0.10869  0.88422  1.0000
  H   H976      1.0  0.89418  0.07095  0.76267  1.0000
  H   H977      1.0  0.98372  0.09275  0.72521  1.0000
  H   H978      1.0  0.92723  0.24250  0.69710  1.0000
  C   C1228     1.0  0.93743  0.11917  0.95358  1.0000
  S   S151      1.0  0.95879  0.36991  0.73100  1.0000
  H   H979      1.0  0.67272  0.03991  0.73345  1.0000
  C   C1229     1.0  0.87323  0.06847  0.67099  1.0000
  C   C1230     1.0  0.82014  0.05195  0.90632  1.0000
  H   H980      1.0  0.96114  0.14642  0.92672  1.0000
  H   H981      1.0  0.49250  0.15382  0.67119  1.0000
  H   H982      1.0  0.94611  0.11057  0.84338  1.0000
  H   H983      1.0  0.89096  0.09964  0.89189  1.0000
  S   S152      1.0  0.98427  0.15477  0.83865  1.0000
  H   H984      1.0  0.93294  0.15428  0.77847  1.0000
  P   P43       1.0  0.86630  0.06926  0.93824  1.0000
  H   H985      1.0  0.98516  0.43038  0.85252  1.0000
  H   H986      1.0  0.95207  0.18047  0.71097  1.0000
  H   H987      1.0  0.87327  0.11423  0.68406  1.0000
  C   C1231     1.0  0.91411  0.10026  0.95637  1.0000
  C   C1232     1.0  0.89603  0.09421  0.93453  1.0000
  H   H988      1.0  0.98241  0.12819  0.78206  1.0000
  H   H989      1.0  0.95153  0.25695  0.92403  1.0000
  S   S153      1.0  0.94933  0.21145  0.86916  1.0000
  C   C1233     1.0  0.94320  0.13171  0.92889  1.0000
  H   H990      1.0  0.94715  0.23799  0.74287  1.0000
  H   H991      1.0  0.84345  0.12294  0.90900  1.0000
  C   C1234     1.0  0.96837  0.36672  0.65619  1.0000
  C   C1235     1.0  0.93828  0.26840  0.96407  1.0000
  H   H992      1.0  0.52538  0.06714  0.80633  1.0000
  H   H993      1.0  0.90458  0.48944  0.85036  1.0000
  C   C1236     1.0  0.71614  0.04173  0.75094  1.0000
  C   C1237     1.0  0.82231  0.03673  0.71140  1.0000
  C   C1238     1.0  0.49015  0.05120  0.83026  1.0000
  H   H994      1.0  0.95287  0.30779  0.74086  1.0000
  C   C1239     1.0  0.96086  0.24583  0.72700  1.0000
  C   C1240     1.0  0.52530  0.08915  0.64715  1.0000
  H   H995      1.0  0.92668  0.46596  0.89092  1.0000
  C   C1241     1.0  0.96650  0.08426  0.77480  1.0000
  S   S154      1.0  0.96687  0.29155  0.83719  1.0000
  C   C1242     1.0  0.69407  0.04973  0.73242  1.0000
  C   C1243     1.0  0.96964  0.34388  0.80854  1.0000
  H   H996      1.0  0.49860  0.06139  0.76405  1.0000
  S   S155      1.0  0.97978  0.18096  0.66008  1.0000
  H   H997      1.0  0.97138  0.38532  0.78651  1.0000
  H   H998      1.0  0.96619  0.04314  0.64893  1.0000
  Fe  Fe75      1.0  0.96935  0.24050  0.83774  1.0000
  H   H999      1.0  0.97237  0.17939  0.75659  1.0000
  C   C1244     1.0  0.98308  0.03117  0.66077  1.0000
  H   H1000     1.0  0.96619  0.02764  0.80895  1.0000
  H   H1001     1.0  0.95788  0.38151  0.67087  1.0000
  C   C1245     1.0  0.48813  0.05576  0.78253  1.0000
  Fe  Fe76      1.0  0.51445  0.99680  0.24082  1.0000
  C   C1246     1.0  0.94310  0.69647  0.30244  1.0000
  C   C1247     1.0  0.90360  0.92041  0.00979  1.0000
  Fe  Fe77      1.0  0.50963  0.99341  0.17958  1.0000
  H   H1002     1.0  0.57923  0.96429  0.15880  1.0000
  H   H1003     1.0  0.49622  0.90751  0.27264  1.0000
  C   C1248     1.0  0.62026  0.68933  0.28061  1.0000
  H   H1004     1.0  0.53069  0.83667  0.02251  1.0000
  C   C1249     1.0  0.69950  0.77861  0.98266  1.0000
  S   S156      1.0  0.54228  0.97315  0.20915  1.0000
  S   S157      1.0  0.79087  0.63664  0.98124  1.0000
  H   H1005     1.0  0.95689  0.64641  0.00541  1.0000
  C   C1250     1.0  0.53841  0.67748  0.20899  1.0000
  S   S158      1.0  0.52568  0.99528  0.02677  1.0000
  C   C1251     1.0  0.67069  0.01262  0.17970  1.0000
  C   C1252     1.0  0.88488  0.99587  0.25196  1.0000
  H   H1006     1.0  0.50950  0.52921  0.12359  1.0000
  C   C1253     1.0  0.50039  0.60833  0.15491  1.0000
  S   S159      1.0  0.79285  0.97755  0.27919  1.0000
  C   C1254     1.0  0.53795  0.90937  0.03866  1.0000
  S   S160      1.0  0.77793  0.96671  0.09766  1.0000
  C   C1255     1.0  0.50800  0.58890  0.99331  1.0000
  H   H1007     1.0  0.62957  0.95596  0.14035  1.0000
  C   C1256     1.0  0.59268  0.73288  0.26302  1.0000
  Fe  Fe78      1.0  0.80553  0.98786  0.06627  1.0000
  S   S161      1.0  0.82681  0.96795  0.02854  1.0000
  Fe  Fe79      1.0  0.81061  0.98207  0.12763  1.0000
  S   S162      1.0  0.83208  0.95266  0.15969  1.0000
  C   C1257     1.0  0.68075  0.01715  0.13235  1.0000
  H   H1008     1.0  0.93296  0.68010  0.97225  1.0000
  Fe  Fe80      1.0  0.85954  0.73369  0.22224  1.0000
  S   S163      1.0  0.81276  0.71968  0.21704  1.0000
  S   S164      1.0  0.86831  0.78290  0.22930  1.0000
  Fe  Fe81      1.0  0.88584  0.66931  0.21427  1.0000
  S   S165      1.0  0.84108  0.65147  0.20961  1.0000
  S   S166      1.0  0.92786  0.63880  0.21349  1.0000
  Fe  Fe82      1.0  0.83068  0.69108  0.18304  1.0000
  S   S167      1.0  0.80444  0.67803  0.14635  1.0000
  Fe  Fe83      1.0  0.82786  0.68152  0.24357  1.0000
  S   S168      1.0  0.87656  0.70783  0.18600  1.0000
  S   S169      1.0  0.87356  0.69670  0.25042  1.0000
  H   H1009     1.0  0.73426  0.87025  0.15909  1.0000
  H   H1010     1.0  0.66500  0.68739  0.21481  1.0000
  H   H1011     1.0  0.91674  0.57034  0.13299  1.0000
  Fe  Fe84      1.0  0.80582  0.68344  0.98538  1.0000
  S   S170      1.0  0.81653  0.70933  0.02316  1.0000
  H   H1012     1.0  0.63412  0.59977  0.01300  1.0000
  C   C1258     1.0  0.81435  0.69889  0.05714  1.0000
  C   C1259     1.0  0.83029  0.71448  0.07617  1.0000
  C   C1260     1.0  0.82822  0.70788  0.10348  1.0000
  C   C1261     1.0  0.80957  0.68605  0.11214  1.0000
  C   C1262     1.0  0.79361  0.67049  0.09312  1.0000
  C   C1263     1.0  0.79606  0.67674  0.06579  1.0000
  H   H1013     1.0  0.84408  0.73205  0.06983  1.0000
  H   H1014     1.0  0.84048  0.72016  0.11788  1.0000
  H   H1015     1.0  0.77896  0.65370  0.09962  1.0000
  H   H1016     1.0  0.78317  0.66500  0.05150  1.0000
  C   C1264     1.0  0.53381  0.85602  0.03477  1.0000
  C   C1265     1.0  0.91621  0.00869  0.16964  1.0000
  C   C1266     1.0  0.91872  0.93617  0.07304  1.0000
  H   H1017     1.0  0.74098  0.65364  0.25989  1.0000
  S   S171      1.0  0.70530  0.01833  0.10467  1.0000
  Fe  Fe85      1.0  0.50421  0.70080  0.11949  1.0000
  C   C1267     1.0  0.89887  0.55452  0.20544  1.0000
  C   C1268     1.0  0.89928  0.58590  0.20702  1.0000
  C   C1269     1.0  0.92599  0.59946  0.21128  1.0000
  C   C1270     1.0  0.95219  0.58134  0.21374  1.0000
  C   C1271     1.0  0.95181  0.55005  0.21200  1.0000
  H   H1018     1.0  0.87811  0.54423  0.20225  1.0000
  H   H1019     1.0  0.87894  0.59944  0.20490  1.0000
  H   H1020     1.0  0.97284  0.59149  0.21757  1.0000
  C   C1272     1.0  0.53865  0.87845  0.07834  1.0000
  C   C1273     1.0  0.86503  0.85091  0.28348  1.0000
  C   C1274     1.0  0.86729  0.83412  0.25980  1.0000
  C   C1275     1.0  0.86569  0.80282  0.25999  1.0000
  C   C1276     1.0  0.86248  0.78841  0.28443  1.0000
  H   H1021     1.0  0.86598  0.87496  0.28284  1.0000
  H   H1022     1.0  0.87026  0.84558  0.24120  1.0000
  H   H1023     1.0  0.86133  0.76438  0.28500  1.0000
  H   H1024     1.0  0.85732  0.95474  0.98003  1.0000
  C   C1277     1.0  0.81511  0.97168  0.99500  1.0000
  C   C1278     1.0  0.78652  0.98242  0.98798  1.0000
  C   C1279     1.0  0.88056  0.01472  0.27385  1.0000
  C   C1280     1.0  0.60830  0.64176  0.01285  1.0000
  C   C1281     1.0  0.80427  0.97048  0.24615  1.0000
  C   C1282     1.0  0.82733  0.94936  0.24015  1.0000
  C   C1283     1.0  0.83567  0.94406  0.21358  1.0000
  C   C1284     1.0  0.82099  0.95977  0.19284  1.0000
  C   C1285     1.0  0.79788  0.98079  0.19885  1.0000
  C   C1286     1.0  0.78955  0.98609  0.22540  1.0000
  H   H1025     1.0  0.83854  0.93691  0.25593  1.0000
  H   H1026     1.0  0.85364  0.92784  0.20915  1.0000
  C   C1287     1.0  0.52333  0.57442  0.12252  1.0000
  C   C1288     1.0  0.48744  0.55663  0.15358  1.0000
  C   C1289     1.0  0.85870  0.54325  0.27531  1.0000
  C   C1290     1.0  0.89820  0.89423  0.09588  1.0000
  C   C1291     1.0  0.70128  0.67241  0.24070  1.0000
  C   C1292     1.0  0.52922  0.78805  0.13197  1.0000
  C   C1293     1.0  0.65194  0.62252  0.26787  1.0000
  H   H1027     1.0  0.88873  0.00759  0.29318  1.0000
  C   C1294     1.0  0.58078  0.76262  0.98737  1.0000
  C   C1295     1.0  0.52373  0.69470  0.18909  1.0000
  H   H1028     1.0  0.98247  0.60809  0.17421  1.0000
  H   H1029     1.0  0.77149  0.00223  0.22985  1.0000
  C   C1296     1.0  0.49905  0.97716  0.11288  1.0000
  C   C1297     1.0  0.52312  0.99439  0.10735  1.0000
  C   C1298     1.0  0.53111  0.99987  0.08087  1.0000
  C   C1299     1.0  0.51537  0.98782  0.05979  1.0000
  H   H1030     1.0  0.78607  0.56762  0.27848  1.0000
  H   H1031     1.0  0.53852  0.57033  0.10613  1.0000
  H   H1032     1.0  0.64168  0.02291  0.10786  1.0000
  C   C1300     1.0  0.56268  0.92495  0.14060  1.0000
  H   H1033     1.0  0.88026  0.98248  0.05324  1.0000
  C   C1301     1.0  0.50825  0.71024  0.98845  1.0000
  S   S172      1.0  0.80038  0.66351  0.27655  1.0000
  H   H1034     1.0  0.85497  0.55439  0.07958  1.0000
  C   C1302     1.0  0.56925  0.90003  0.12422  1.0000
  C   C1303     1.0  0.53654  0.66667  0.97196  1.0000
  S   S173      1.0  0.61540  0.01522  0.20308  1.0000
  C   C1304     1.0  0.86181  0.56217  0.02608  1.0000
  C   C1305     1.0  0.88851  0.57240  0.01662  1.0000
  C   C1306     1.0  0.89180  0.60303  0.01383  1.0000
  C   C1307     1.0  0.86852  0.62364  0.02018  1.0000
  C   C1308     1.0  0.84223  0.61366  0.03043  1.0000
  C   C1309     1.0  0.83881  0.58305  0.03337  1.0000
  H   H1035     1.0  0.90652  0.55694  0.01055  1.0000
  H   H1036     1.0  0.91212  0.61054  0.00570  1.0000
  H   H1037     1.0  0.87056  0.64732  0.01682  1.0000
  H   H1038     1.0  0.82422  0.62969  0.03534  1.0000
  H   H1039     1.0  0.88530  0.92575  0.02323  1.0000
  C   C1310     1.0  0.93698  0.55681  0.13664  1.0000
  C   C1311     1.0  0.73479  0.66756  0.19379  1.0000
  C   C1312     1.0  0.94048  0.00709  0.02133  1.0000
  S   S174      1.0  0.50566  0.71557  0.27737  1.0000
  P   P44       1.0  0.68053  0.67576  0.27131  1.0000
  C   C1313     1.0  0.64613  0.69814  0.26813  1.0000
  H   H1040     1.0  0.74132  0.77423  0.00339  1.0000
  C   C1314     1.0  0.58450  0.94483  0.14649  1.0000
  C   C1315     1.0  0.50191  0.88672  0.15615  1.0000
  C   C1316     1.0  0.61959  0.91577  0.11933  1.0000
  C   C1317     1.0  0.61860  0.74262  0.25163  1.0000
  C   C1318     1.0  0.64533  0.72546  0.25438  1.0000
  H   H1041     1.0  0.49951  0.72360  0.00486  1.0000
  H   H1042     1.0  0.77064  0.65071  0.21885  1.0000
  C   C1319     1.0  0.93208  0.92960  0.01551  1.0000
  H   H1043     1.0  0.54967  0.01333  0.07674  1.0000
  H   H1044     1.0  0.64145  0.91270  0.11062  1.0000
  H   H1045     1.0  0.61788  0.76331  0.24047  1.0000
  H   H1046     1.0  0.66530  0.73329  0.24555  1.0000
  C   C1320     1.0  0.71287  0.73931  0.01417  1.0000
  H   H1047     1.0  0.52651  0.79778  0.25171  1.0000
  C   C1321     1.0  0.51270  0.70667  0.24355  1.0000
  H   H1048     1.0  0.82983  0.56932  0.24898  1.0000
  C   C1322     1.0  0.86159  0.52875  0.30001  1.0000
  H   H1049     1.0  0.87782  0.90430  0.13386  1.0000
  C   C1323     1.0  0.89830  0.90492  0.98632  1.0000
  C   C1324     1.0  0.92344  0.98810  0.03639  1.0000
  P   P45       1.0  0.93803  0.95112  0.04510  1.0000
  H   H1050     1.0  0.67893  0.00981  0.19977  1.0000
  C   C1325     1.0  0.49181  0.55631  0.26203  1.0000
  S   S175      1.0  0.49572  0.97472  0.27788  1.0000
  H   H1051     1.0  0.60605  0.02179  0.14540  1.0000
  H   H1052     1.0  0.93536  0.86558  0.30023  1.0000
  C   C1326     1.0  0.65745  0.66526  0.98876  1.0000
  C   C1327     1.0  0.65821  0.63502  0.99574  1.0000
  C   C1328     1.0  0.63364  0.62325  0.00784  1.0000
  H   H1053     1.0  0.54987  0.64624  0.97562  1.0000
  H   H1054     1.0  0.97661  0.93241  0.00019  1.0000
  H   H1055     1.0  0.96168  0.65394  0.11909  1.0000
  H   H1056     1.0  0.57358  0.69925  0.28692  1.0000
  C   C1329     1.0  0.83165  0.55748  0.26776  1.0000
  C   C1330     1.0  0.55441  0.77335  0.02847  1.0000
  C   C1331     1.0  0.57616  0.75634  0.04240  1.0000
  C   C1332     1.0  0.59977  0.74177  0.02880  1.0000
  C   C1333     1.0  0.93569  0.52652  0.14274  1.0000
  C   C1334     1.0  0.61293  0.94020  0.13596  1.0000
  H   H1057     1.0  0.92403  0.58366  0.08497  1.0000
  H   H1058     1.0  0.69496  0.68399  0.17389  1.0000
  C   C1335     1.0  0.50701  0.55130  0.13237  1.0000
  H   H1059     1.0  0.54938  0.54518  0.97419  1.0000
  H   H1060     1.0  0.94695  0.59739  0.27395  1.0000
  C   C1336     1.0  0.50346  0.71796  0.19655  1.0000
  H   H1061     1.0  0.87590  0.98962  0.21046  1.0000
  Fe  Fe86      1.0  0.49887  0.97718  0.99309  1.0000
  H   H1062     1.0  0.79064  0.80932  0.28444  1.0000
  C   C1337     1.0  0.97052  0.59082  0.03238  1.0000
  C   C1338     1.0  0.72672  0.70863  0.29112  1.0000
  H   H1063     1.0  0.52083  0.60889  0.03013  1.0000
  H   H1064     1.0  0.89003  0.95722  0.13325  1.0000
  C   C1339     1.0  0.64993  0.02000  0.12792  1.0000
  H   H1065     1.0  0.57244  0.82548  0.24932  1.0000
  H   H1066     1.0  0.53556  0.78371  0.03898  1.0000
  H   H1067     1.0  0.57435  0.75390  0.06372  1.0000
  C   C1340     1.0  0.48897  0.56954  0.98088  1.0000
  C   C1341     1.0  0.88975  0.91292  0.11709  1.0000
  C   C1342     1.0  0.52463  0.68335  0.99335  1.0000
  C   C1343     1.0  0.50527  0.88672  0.12844  1.0000
  H   H1068     1.0  0.91943  0.89081  0.05789  1.0000
  H   H1069     1.0  0.83673  0.71066  0.29518  1.0000
  C   C1344     1.0  0.80697  0.55641  0.28433  1.0000
  C   C1345     1.0  0.70120  0.69343  0.29697  1.0000
  H   H1070     1.0  0.89626  0.97408  0.25435  1.0000
  H   H1071     1.0  0.53333  0.62070  0.12684  1.0000
  C   C1346     1.0  0.71993  0.76499  0.00039  1.0000
  H   H1072     1.0  0.49856  0.63054  0.16352  1.0000
  H   H1073     1.0  0.96272  0.99995  0.01517  1.0000
  H   H1074     1.0  0.68049  0.70714  0.02100  1.0000
  H   H1075     1.0  0.57176  0.74559  0.26043  1.0000
  Fe  Fe87      1.0  0.56461  0.01669  0.20465  1.0000
  C   C1347     1.0  0.66534  0.73983  0.99142  1.0000
  H   H1076     1.0  0.53578  0.00328  0.12337  1.0000
  H   H1077     1.0  0.87318  0.00515  0.15163  1.0000
  C   C1348     1.0  0.63988  0.01578  0.17530  1.0000
  C   C1349     1.0  0.60759  0.67201  0.00591  1.0000
  C   C1350     1.0  0.68552  0.72696  0.01000  1.0000
  H   H1078     1.0  0.62862  0.58198  0.26604  1.0000
  H   H1079     1.0  0.49222  0.73155  0.18145  1.0000
  H   H1080     1.0  0.58753  0.68578  0.00934  1.0000
  C   C1351     1.0  0.95161  0.59998  0.05340  1.0000
  C   C1352     1.0  0.93839  0.57787  0.06847  1.0000
  P   P46       1.0  0.94776  0.63909  0.06332  1.0000
  C   C1353     1.0  0.92577  0.64206  0.09329  1.0000
  H   H1081     1.0  0.88265  0.02035  0.97603  1.0000
  C   C1354     1.0  0.97534  0.55705  0.27297  1.0000
  C   C1355     1.0  0.59363  0.70651  0.27780  1.0000
  C   C1356     1.0  0.88904  0.02006  0.15952  1.0000
  H   H1082     1.0  0.54195  0.92654  0.07817  1.0000
  H   H1083     1.0  0.60299  0.83138  0.28942  1.0000
  C   C1357     1.0  0.89546  0.63660  0.09230  1.0000
  C   C1358     1.0  0.87826  0.63826  0.11533  1.0000
  C   C1359     1.0  0.89115  0.64528  0.13954  1.0000
  C   C1360     1.0  0.92115  0.65103  0.14068  1.0000
  C   C1361     1.0  0.93848  0.64948  0.11767  1.0000
  C   C1362     1.0  0.93033  0.66371  0.03846  1.0000
  C   C1363     1.0  0.93960  0.66236  0.01183  1.0000
  C   C1364     1.0  0.92626  0.68165  0.99287  1.0000
  C   C1365     1.0  0.90403  0.70288  0.00034  1.0000
  C   C1366     1.0  0.89556  0.70533  0.02688  1.0000
  C   C1367     1.0  0.90868  0.68606  0.04590  1.0000
  H   H1084     1.0  0.58896  0.63274  0.02185  1.0000
  C   C1368     1.0  0.52029  0.60280  0.13403  1.0000
  C   C1369     1.0  0.80782  0.53505  0.99452  1.0000
  C   C1370     1.0  0.67418  0.63777  0.28063  1.0000
  H   H1085     1.0  0.81794  0.57569  0.04072  1.0000
  H   H1086     1.0  0.96495  0.59306  0.13057  1.0000
  H   H1087     1.0  0.55998  0.75476  0.14878  1.0000
  H   H1088     1.0  0.88510  0.63114  0.07368  1.0000
  H   H1089     1.0  0.85478  0.63450  0.11446  1.0000
  H   H1090     1.0  0.87777  0.64655  0.15740  1.0000
  H   H1091     1.0  0.93083  0.65687  0.15948  1.0000
  C   C1371     1.0  0.63235  0.68409  0.99420  1.0000
  C   C1372     1.0  0.51347  0.57599  0.26872  1.0000
  C   C1373     1.0  0.53133  0.78821  0.29341  1.0000
  C   C1374     1.0  0.55689  0.77677  0.00099  1.0000
  H   H1092     1.0  0.87840  0.72199  0.03260  1.0000
  H   H1093     1.0  0.90164  0.68893  0.06630  1.0000
  C   C1375     1.0  0.79903  0.87417  0.03596  1.0000
  C   C1376     1.0  0.82126  0.89383  0.04068  1.0000
  C   C1377     1.0  0.82779  0.90222  0.06664  1.0000
  C   C1378     1.0  0.81251  0.89049  0.08800  1.0000
  C   C1379     1.0  0.79046  0.87024  0.08349  1.0000
  C   C1380     1.0  0.78342  0.86269  0.05721  1.0000
  P   P47       1.0  0.76869  0.85709  0.11073  1.0000
  C   C1381     1.0  0.75302  0.82242  0.10111  1.0000
  C   C1382     1.0  0.79205  0.85081  0.13967  1.0000
  C   C1383     1.0  0.80225  0.82176  0.14731  1.0000
  C   C1384     1.0  0.81951  0.81734  0.17019  1.0000
  C   C1385     1.0  0.82666  0.84173  0.18566  1.0000
  C   C1386     1.0  0.81664  0.87061  0.17827  1.0000
  C   C1387     1.0  0.79946  0.87520  0.15541  1.0000
  C   C1388     1.0  0.72311  0.81763  0.10600  1.0000
  C   C1389     1.0  0.71133  0.79066  0.09851  1.0000
  C   C1390     1.0  0.72932  0.76830  0.08617  1.0000
  C   C1391     1.0  0.75908  0.77292  0.08116  1.0000
  C   C1392     1.0  0.77089  0.79987  0.08852  1.0000
  C   C1393     1.0  0.74007  0.88562  0.11873  1.0000
  C   C1394     1.0  0.73108  0.90763  0.10003  1.0000
  C   C1395     1.0  0.71090  0.93115  0.10718  1.0000
  C   C1396     1.0  0.69942  0.93276  0.13289  1.0000
  C   C1397     1.0  0.70753  0.91050  0.15136  1.0000
  C   C1398     1.0  0.72769  0.88693  0.14432  1.0000
  H   H1094     1.0  0.79339  0.86848  0.01574  1.0000
  H   H1095     1.0  0.83267  0.90345  0.02413  1.0000
  H   H1096     1.0  0.84396  0.91872  0.07012  1.0000
  H   H1097     1.0  0.81744  0.89802  0.10783  1.0000
  H   H1098     1.0  0.76551  0.84842  0.05299  1.0000
  H   H1099     1.0  0.79682  0.80235  0.13602  1.0000
  H   H1100     1.0  0.82727  0.79494  0.17618  1.0000
  H   H1101     1.0  0.83983  0.83814  0.20346  1.0000
  H   H1102     1.0  0.82200  0.88953  0.19036  1.0000
  H   H1103     1.0  0.79180  0.89787  0.15024  1.0000
  H   H1104     1.0  0.70884  0.83460  0.11561  1.0000
  H   H1105     1.0  0.68825  0.78703  0.10238  1.0000
  H   H1106     1.0  0.72028  0.74731  0.08061  1.0000
  H   H1107     1.0  0.77310  0.75548  0.07173  1.0000
  H   H1108     1.0  0.79407  0.80302  0.08462  1.0000
  H   H1109     1.0  0.74029  0.90739  0.08021  1.0000
  H   H1110     1.0  0.70491  0.94884  0.09308  1.0000
  H   H1111     1.0  0.68461  0.95159  0.13858  1.0000
  H   H1112     1.0  0.69875  0.91204  0.17136  1.0000
  H   H1113     1.0  0.60296  0.87767  0.09963  1.0000
  H   H1114     1.0  0.67772  0.62070  0.99117  1.0000
  H   H1115     1.0  0.89306  0.87091  0.09631  1.0000
  H   H1116     1.0  0.60097  0.78930  0.15182  1.0000
  H   H1117     1.0  0.78605  0.99268  0.18311  1.0000
  C   C1399     1.0  0.91288  0.90571  0.07401  1.0000
  C   C1400     1.0  0.69100  0.01327  0.15843  1.0000
  C   C1401     1.0  0.74758  0.65882  0.21802  1.0000
  H   H1118     1.0  0.73493  0.71011  0.27104  1.0000
  H   H1119     1.0  0.55435  0.65964  0.20340  1.0000
  H   H1120     1.0  0.67634  0.67391  0.97878  1.0000
  H   H1121     1.0  0.63858  0.63337  0.25239  1.0000
  H   H1122     1.0  0.51157  0.77570  0.29420  1.0000
  P   P48       1.0  0.63109  0.72268  0.98386  1.0000
  S   S176      1.0  0.51989  0.72770  0.08497  1.0000
  H   H1123     1.0  0.93440  0.53069  0.07495  1.0000
  C   C1402     1.0  0.92537  0.55993  0.29039  1.0000
  H   H1124     1.0  0.54416  0.66977  0.25113  1.0000
  H   H1125     1.0  0.95718  0.01900  0.18821  1.0000
  S   S177      1.0  0.53073  0.66992  0.02586  1.0000
  S   S178      1.0  0.53284  0.68744  0.15536  1.0000
  C   C1403     1.0  0.94419  0.54753  0.06286  1.0000
  H   H1126     1.0  0.54063  0.92975  0.14830  1.0000
  H   H1127     1.0  0.53858  0.93122  0.02949  1.0000
  H   H1128     1.0  0.50327  0.82507  0.11542  1.0000
  H   H1129     1.0  0.53246  0.88634  0.00159  1.0000
  C   C1404     1.0  0.49159  0.97029  0.06538  1.0000
  H   H1130     1.0  0.77075  0.98916  0.00330  1.0000
  C   C1405     1.0  0.53477  0.88411  0.02293  1.0000
  C   C1406     1.0  0.53269  0.68318  0.23607  1.0000
  H   H1131     1.0  0.91642  0.97782  0.09509  1.0000
  C   C1407     1.0  0.53987  0.90660  0.06626  1.0000
  H   H1132     1.0  0.51122  0.77313  0.13078  1.0000
  H   H1133     1.0  0.89327  0.71744  0.98558  1.0000
  C   C1408     1.0  0.68816  0.68000  0.21613  1.0000
  C   C1409     1.0  0.59780  0.89589  0.11331  1.0000
  C   C1410     1.0  0.53555  0.85311  0.06239  1.0000
  C   C1411     1.0  0.89660  0.94290  0.11672  1.0000
  H   H1134     1.0  0.50867  0.62148  0.21478  1.0000
  C   C1412     1.0  0.89426  0.99734  0.04290  1.0000
  H   H1135     1.0  0.74799  0.66624  0.17579  1.0000
  C   C1413     1.0  0.53981  0.80062  0.26937  1.0000
  H   H1136     1.0  0.59325  0.84171  0.13711  1.0000
  C   C1414     1.0  0.85873  0.53066  0.08309  1.0000
  C   C1415     1.0  0.97641  0.95131  0.05482  1.0000
  H   H1137     1.0  0.87621  0.89800  0.98199  1.0000
  C   C1416     1.0  0.54782  0.83728  0.12466  1.0000
  H   H1138     1.0  0.53390  0.83121  0.07106  1.0000
  P   P49       1.0  0.54077  0.87563  0.11406  1.0000
  Fe  Fe88      1.0  0.50366  0.69149  0.05897  1.0000
  C   C1417     1.0  0.51982  0.59905  0.25135  1.0000
  H   H1139     1.0  0.92154  0.98480  0.16945  1.0000
  C   C1418     1.0  0.67222  0.76619  0.97831  1.0000
  H   H1140     1.0  0.52083  0.88164  0.16890  1.0000
  C   C1419     1.0  0.57532  0.82695  0.13521  1.0000
  C   C1420     1.0  0.57974  0.79724  0.14377  1.0000
  H   H1141     1.0  0.54002  0.79006  0.99020  1.0000
  H   H1142     1.0  0.53693  0.61403  0.25632  1.0000
  C   C1421     1.0  0.52479  0.81759  0.12328  1.0000
  H   H1143     1.0  0.87728  0.54359  0.26175  1.0000
  S   S179      1.0  0.84048  0.99820  0.09607  1.0000
  H   H1144     1.0  0.97048  0.69887  0.06565  1.0000
  C   C1422     1.0  0.70498  0.67779  0.19279  1.0000
  C   C1423     1.0  0.96433  0.56981  0.13599  1.0000
  C   C1424     1.0  0.60185  0.74412  0.00108  1.0000
  C   C1425     1.0  0.55670  0.77778  0.14212  1.0000
  H   H1145     1.0  0.90546  0.57337  0.29526  1.0000
  H   H1146     1.0  0.71457  0.01092  0.16224  1.0000
  C   C1426     1.0  0.94906  0.57375  0.27872  1.0000
  C   C1427     1.0  0.73077  0.66077  0.24130  1.0000
  C   C1428     1.0  0.97589  0.56045  0.02662  1.0000
  C   C1429     1.0  0.56574  0.81604  0.26803  1.0000
  C   C1430     1.0  0.91131  0.95448  0.09496  1.0000
  H   H1147     1.0  0.52529  0.57335  0.28742  1.0000
  C   C1431     1.0  0.50372  0.60319  0.22782  1.0000
  C   C1432     1.0  0.50583  0.59428  0.02057  1.0000
  C   C1433     1.0  0.95485  0.92426  0.99686  1.0000
  C   C1434     1.0  0.87346  0.00467  0.22722  1.0000
  H   H1148     1.0  0.52463  0.59980  0.98202  1.0000
  C   C1435     1.0  0.64634  0.59335  0.27544  1.0000
  H   H1149     1.0  0.72885  0.72868  0.02777  1.0000
  H   H1150     1.0  0.82119  0.55129  0.98498  1.0000
  C   C1436     1.0  0.66327  0.57904  0.29545  1.0000
  H   H1151     1.0  0.94865  0.71252  0.28739  1.0000
  S   S180      1.0  0.48846  0.96930  0.14576  1.0000
  C   C1437     1.0  0.58298  0.81929  0.29081  1.0000
  H   H1152     1.0  0.97217  0.53655  0.21403  1.0000
  H   H1153     1.0  0.61596  0.72795  0.03982  1.0000
  C   C1438     1.0  0.96299  0.53884  0.04197  1.0000
  H   H1154     1.0  0.86039  0.53652  0.12557  1.0000
  C   C1439     1.0  0.97776  0.52645  0.27844  1.0000
  C   C1440     1.0  0.92513  0.53642  0.20806  1.0000
  C   C1441     1.0  0.48993  0.89694  0.29102  1.0000
  C   C1442     1.0  0.49826  0.72412  0.22367  1.0000
  H   H1155     1.0  0.53041  0.86976  0.29421  1.0000
  C   C1443     1.0  0.69181  0.62286  0.30003  1.0000
  H   H1156     1.0  0.98603  0.90438  0.04633  1.0000
  S   S181      1.0  0.49254  0.66256  0.09341  1.0000
  H   H1157     1.0  0.97855  0.66185  0.18382  1.0000
  C   C1444     1.0  0.98434  0.65192  0.06912  1.0000
  H   H1158     1.0  0.97386  0.99764  0.06774  1.0000
  C   C1445     1.0  0.77903  0.53178  0.98529  1.0000
  C   C1446     1.0  0.62962  0.01935  0.14920  1.0000
  H   H1159     1.0  0.48723  0.53827  0.27547  1.0000
  H   H1160     1.0  0.62047  0.66922  0.29255  1.0000
  Fe  Fe89      1.0  0.75601  0.01289  0.10346  1.0000
  C   C1447     1.0  0.92745  0.52904  0.29547  1.0000
  C   C1448     1.0  0.83519  0.96285  0.97479  1.0000
  H   H1161     1.0  0.67809  0.75385  0.30158  1.0000
  H   H1162     1.0  0.98216  0.60681  0.02094  1.0000
  H   H1163     1.0  0.90847  0.97117  0.97021  1.0000
  H   H1164     1.0  0.65857  0.55666  0.30166  1.0000
  C   C1449     1.0  0.94944  0.90885  0.97334  1.0000
  H   H1165     1.0  0.70499  0.79860  0.97207  1.0000
  C   C1450     1.0  0.88267  0.02578  0.03579  1.0000
  Fe  Fe90      1.0  0.50626  0.97156  0.43549  1.0000
  C   C1451     1.0  0.58628  0.94011  0.59986  1.0000
  S   S182      1.0  0.53572  0.97871  0.39955  1.0000
  H   H1166     1.0  0.89175  0.75383  0.34828  1.0000
  C   C1452     1.0  0.85408  0.64126  0.54130  1.0000
  Fe  Fe91      1.0  0.82484  0.95885  0.37460  1.0000
  S   S183      1.0  0.80191  0.97934  0.41132  1.0000
  Fe  Fe92      1.0  0.85339  0.90801  0.33998  1.0000
  S   S184      1.0  0.85949  0.85689  0.33830  1.0000
  C   C1453     1.0  0.96505  0.55537  0.39662  1.0000
  S   S185      1.0  0.80674  0.92825  0.34367  1.0000
  S   S186      1.0  0.62143  0.64588  0.34674  1.0000
  H   H1167     1.0  0.65093  0.84498  0.35410  1.0000
  C   C1454     1.0  0.74589  0.88132  0.44431  1.0000
  Fe  Fe93      1.0  0.75278  0.66440  0.45179  1.0000
  S   S187      1.0  0.77259  0.70913  0.45404  1.0000
  S   S188      1.0  0.70250  0.66862  0.44777  1.0000
  Fe  Fe94      1.0  0.80691  0.68894  0.42642  1.0000
  S   S189      1.0  0.82365  0.71465  0.39146  1.0000
  S   S190      1.0  0.78588  0.64516  0.42239  1.0000
  C   C1455     1.0  0.91289  0.78949  0.36811  1.0000
  H   H1168     1.0  0.52407  0.61644  0.55721  1.0000
  C   C1456     1.0  0.83100  0.71216  0.33763  1.0000
  C   C1457     1.0  0.81685  0.70029  0.35963  1.0000
  C   C1458     1.0  0.79719  0.67774  0.35580  1.0000
  C   C1459     1.0  0.79229  0.66658  0.33024  1.0000
  H   H1169     1.0  0.63012  0.93371  0.44515  1.0000
  H   H1170     1.0  0.84574  0.73004  0.34036  1.0000
  H   H1171     1.0  0.78529  0.66919  0.37234  1.0000
  H   H1172     1.0  0.77697  0.64918  0.32745  1.0000
  C   C1460     1.0  0.94282  0.57917  0.46521  1.0000
  C   C1461     1.0  0.92738  0.60723  0.46685  1.0000
  C   C1462     1.0  0.89629  0.60996  0.46455  1.0000
  H   H1173     1.0  0.93959  0.62698  0.46971  1.0000
  H   H1174     1.0  0.88497  0.63176  0.46558  1.0000
  C   C1463     1.0  0.68107  0.66342  0.41877  1.0000
  C   C1464     1.0  0.69275  0.64880  0.39624  1.0000
  C   C1465     1.0  0.67423  0.64350  0.37438  1.0000
  C   C1466     1.0  0.64395  0.65282  0.37474  1.0000
  C   C1467     1.0  0.63246  0.66786  0.39709  1.0000
  C   C1468     1.0  0.65102  0.67343  0.41881  1.0000
  H   H1175     1.0  0.71584  0.64099  0.39589  1.0000
  H   H1176     1.0  0.68336  0.63180  0.35724  1.0000
  H   H1177     1.0  0.60916  0.67486  0.39773  1.0000
  H   H1178     1.0  0.64188  0.68491  0.43609  1.0000
  C   C1469     1.0  0.86956  0.61454  0.33754  1.0000
  C   C1470     1.0  0.48741  0.96917  0.33175  1.0000
  Fe  Fe95      1.0  0.57130  0.65588  0.34603  1.0000
  H   H1179     1.0  0.85827  0.79387  0.32692  1.0000
  H   H1180     1.0  0.54147  0.78105  0.33439  1.0000
  C   C1471     1.0  0.80809  0.96965  0.44509  1.0000
  C   C1472     1.0  0.82569  0.94433  0.45252  1.0000
  C   C1473     1.0  0.62776  0.01155  0.54969  1.0000
  H   H1181     1.0  0.83704  0.93089  0.43747  1.0000
  C   C1474     1.0  0.57428  0.80737  0.31522  1.0000
  H   H1182     1.0  0.95500  0.59455  0.32849  1.0000
  H   H1183     1.0  0.88616  0.56384  0.56568  1.0000
  C   C1475     1.0  0.52362  0.97892  0.36595  1.0000
  C   C1476     1.0  0.54302  0.98755  0.34590  1.0000
  C   C1477     1.0  0.53463  0.98712  0.31890  1.0000
  H   H1184     1.0  0.67079  0.68211  0.32799  1.0000
  C   C1478     1.0  0.94272  0.68472  0.60135  1.0000
  H   H1185     1.0  0.88304  0.87247  0.38881  1.0000
  H   H1186     1.0  0.78554  0.99299  0.50704  1.0000
  H   H1187     1.0  0.83057  0.60565  0.31500  1.0000
  C   C1479     1.0  0.86559  0.60881  0.38524  1.0000
  S   S191      1.0  0.52397  0.00455  0.53047  1.0000
  H   H1188     1.0  0.89738  0.80663  0.36022  1.0000
  C   C1480     1.0  0.72802  0.75649  0.62298  1.0000
  C   C1481     1.0  0.59751  0.97020  0.45005  1.0000
  S   S192      1.0  0.52190  0.94407  0.47097  1.0000
  C   C1482     1.0  0.90712  0.84353  0.41678  1.0000
  S   S193      1.0  0.76991  0.95380  0.59964  1.0000
  C   C1483     1.0  0.85746  0.85418  0.44962  1.0000
  H   H1189     1.0  0.78018  0.00688  0.45939  1.0000
  S   S194      1.0  0.83735  0.97652  0.59891  1.0000
  Fe  Fe96      1.0  0.80178  0.96896  0.56877  1.0000
  S   S195      1.0  0.81494  0.94057  0.53263  1.0000
  C   C1484     1.0  0.50737  0.71105  0.48794  1.0000
  Fe  Fe97      1.0  0.81411  0.63142  0.45774  1.0000
  S   S196      1.0  0.83703  0.67423  0.45990  1.0000
  S   S197      1.0  0.84102  0.58680  0.45720  1.0000
  Fe  Fe98      1.0  0.80030  0.68979  0.48756  1.0000
  S   S198      1.0  0.81267  0.71876  0.52263  1.0000
  S   S199      1.0  0.77852  0.64598  0.48746  1.0000
  C   C1485     1.0  0.80647  0.71069  0.55665  1.0000
  C   C1486     1.0  0.82316  0.72470  0.57610  1.0000
  C   C1487     1.0  0.81786  0.72026  0.60336  1.0000
  C   C1488     1.0  0.79521  0.70236  0.61144  1.0000
  C   C1489     1.0  0.77860  0.68819  0.59200  1.0000
  C   C1490     1.0  0.78448  0.69195  0.56474  1.0000
  H   H1190     1.0  0.84019  0.73926  0.57007  1.0000
  H   H1191     1.0  0.83069  0.73143  0.61809  1.0000
  H   H1192     1.0  0.76102  0.67432  0.59805  1.0000
  H   H1193     1.0  0.77152  0.68093  0.55002  1.0000
  C   C1491     1.0  0.88015  0.58453  0.46099  1.0000
  C   C1492     1.0  0.89550  0.55638  0.46015  1.0000
  C   C1493     1.0  0.92663  0.55371  0.46216  1.0000
  H   H1194     1.0  0.62721  0.76064  0.37065  1.0000
  H   H1195     1.0  0.68284  0.98566  0.50510  1.0000
  C   C1494     1.0  0.52171  0.84717  0.43373  1.0000
  H   H1196     1.0  0.50037  0.57124  0.47663  1.0000
  C   C1495     1.0  0.81327  0.95328  0.49929  1.0000
  C   C1496     1.0  0.82790  0.93595  0.47945  1.0000
  C   C1497     1.0  0.52690  0.89547  0.41348  1.0000
  H   H1197     1.0  0.84088  0.91585  0.48496  1.0000
  Fe  Fe99      1.0  0.52166  0.68673  0.31243  1.0000
  C   C1498     1.0  0.51207  0.96225  0.61214  1.0000
  S   S200      1.0  0.50101  0.71441  0.40771  1.0000
  C   C1499     1.0  0.50576  0.96048  0.56407  1.0000
  C   C1500     1.0  0.51801  0.98833  0.56167  1.0000
  C   C1501     1.0  0.52644  0.00341  0.58453  1.0000
  C   C1502     1.0  0.52350  0.99041  0.60961  1.0000
  C   C1503     1.0  0.97365  0.85590  0.43660  1.0000
  H   H1198     1.0  0.75644  0.85483  0.35368  1.0000
  H   H1199     1.0  0.58028  0.01214  0.55458  1.0000
  C   C1504     1.0  0.96001  0.01382  0.43834  1.0000
  H   H1200     1.0  0.71674  0.78791  0.31506  1.0000
  C   C1505     1.0  0.77238  0.83469  0.31756  1.0000
  H   H1201     1.0  0.54939  0.88055  0.44920  1.0000
  H   H1202     1.0  0.80148  0.59225  0.35463  1.0000
  C   C1506     1.0  0.63701  0.78905  0.63560  1.0000
  C   C1507     1.0  0.55042  0.77408  0.40413  1.0000
  C   C1508     1.0  0.69529  0.65155  0.62380  1.0000
  H   H1203     1.0  0.88192  0.62000  0.31998  1.0000
  H   H1204     1.0  0.53619  0.91718  0.41364  1.0000
  C   C1509     1.0  0.93852  0.86159  0.36783  1.0000
  H   H1205     1.0  0.97545  0.64246  0.34203  1.0000
  C   C1510     1.0  0.71032  0.80257  0.39944  1.0000
  C   C1511     1.0  0.65645  0.82485  0.34285  1.0000
  C   C1512     1.0  0.84053  0.60594  0.33458  1.0000
  C   C1513     1.0  0.85231  0.61605  0.52526  1.0000
  C   C1514     1.0  0.59768  0.74627  0.40049  1.0000
  C   C1515     1.0  0.65205  0.01463  0.63186  1.0000
  C   C1516     1.0  0.56989  0.75058  0.41242  1.0000
  H   H1206     1.0  0.61265  0.72798  0.40692  1.0000
  H   H1207     1.0  0.56314  0.73536  0.42776  1.0000
  H   H1208     1.0  0.52861  0.77673  0.41304  1.0000
  H   H1209     1.0  0.66349  0.79599  0.40174  1.0000
  H   H1210     1.0  0.84005  0.88213  0.41783  1.0000
  H   H1211     1.0  0.76883  0.81648  0.61082  1.0000
  C   C1517     1.0  0.69382  0.79283  0.32072  1.0000
  C   C1518     1.0  0.92745  0.57918  0.60869  1.0000
  Fe  Fe100     1.0  0.82173  0.96077  0.31322  1.0000
  P   P50       1.0  0.89799  0.60820  0.60701  1.0000
  C   C1519     1.0  0.88050  0.61113  0.57482  1.0000
  C   C1520     1.0  0.64256  0.77979  0.32055  1.0000
  C   C1521     1.0  0.82605  0.70108  0.31203  1.0000
  C   C1522     1.0  0.77715  0.81057  0.36075  1.0000
  H   H1212     1.0  0.52651  0.83165  0.44985  1.0000
  H   H1213     1.0  0.87291  0.54919  0.35370  1.0000
  C   C1523     1.0  0.89195  0.53070  0.38947  1.0000
  C   C1524     1.0  0.49560  0.97000  0.35874  1.0000
  Fe  Fe101     1.0  0.50954  0.70200  0.61975  1.0000
  C   C1525     1.0  0.87778  0.58567  0.55892  1.0000
  H   H1214     1.0  0.96727  0.67223  0.44549  1.0000
  C   C1526     1.0  0.86784  0.63883  0.56611  1.0000
  C   C1527     1.0  0.91490  0.64253  0.61497  1.0000
  C   C1528     1.0  0.92959  0.65806  0.59521  1.0000
  H   H1215     1.0  0.95760  0.99297  0.62743  1.0000
  H   H1216     1.0  0.58415  0.00898  0.50700  1.0000
  H   H1217     1.0  0.86245  0.56876  0.52147  1.0000
  H   H1218     1.0  0.98068  0.00896  0.44879  1.0000
  C   C1529     1.0  0.66687  0.69910  0.62444  1.0000
  C   C1530     1.0  0.70673  0.70609  0.34355  1.0000
  S   S201      1.0  0.49778  0.66442  0.59303  1.0000
  H   H1219     1.0  0.51717  0.84744  0.33729  1.0000
  Fe  Fe102     1.0  0.80370  0.96605  0.62968  1.0000
  C   C1531     1.0  0.53446  0.87478  0.43345  1.0000
  C   C1532     1.0  0.92825  0.73705  0.37253  1.0000
  C   C1533     1.0  0.79381  0.98722  0.46496  1.0000
  C   C1534     1.0  0.93892  0.90336  0.32624  1.0000
  H   H1220     1.0  0.66289  0.95109  0.61671  1.0000
  C   C1535     1.0  0.57697  0.90405  0.34800  1.0000
  C   C1536     1.0  0.88864  0.01426  0.48416  1.0000
  H   H1221     1.0  0.90932  0.97140  0.47341  1.0000
  H   H1222     1.0  0.86837  0.65859  0.57847  1.0000
  H   H1223     1.0  0.93080  0.64961  0.57507  1.0000
  H   H1224     1.0  0.95345  0.86490  0.44583  1.0000
  C   C1537     1.0  0.49667  0.54826  0.54688  1.0000
  S   S202      1.0  0.54425  0.64083  0.31117  1.0000
  C   C1538     1.0  0.93732  0.87296  0.32061  1.0000
  C   C1539     1.0  0.68615  0.59370  0.30757  1.0000
  P   P51       1.0  0.59622  0.81328  0.34465  1.0000
  H   H1225     1.0  0.53149  0.56354  0.57176  1.0000
  H   H1226     1.0  0.87915  0.70819  0.42775  1.0000
  H   H1227     1.0  0.58787  0.70641  0.61413  1.0000
  C   C1540     1.0  0.97438  0.53537  0.61213  1.0000
  C   C1541     1.0  0.51011  0.59966  0.54941  1.0000
  C   C1542     1.0  0.74986  0.77352  0.61195  1.0000
  Fe  Fe103     1.0  0.50877  0.69386  0.55898  1.0000
  C   C1543     1.0  0.83681  0.59955  0.38215  1.0000
  C   C1544     1.0  0.89625  0.67287  0.40223  1.0000
  S   S203      1.0  0.98218  0.57722  0.46524  1.0000
  H   H1228     1.0  0.89681  0.71090  0.30298  1.0000
  S   S204      1.0  0.70457  0.01483  0.60424  1.0000
  H   H1229     1.0  0.94149  0.96134  0.59100  1.0000
  H   H1230     1.0  0.94199  0.93651  0.35686  1.0000
  C   C1545     1.0  0.88114  0.83507  0.45813  1.0000
  C   C1546     1.0  0.54846  0.79140  0.31625  1.0000
  H   H1231     1.0  0.86738  0.97553  0.54954  1.0000
  C   C1547     1.0  0.57239  0.91242  0.56101  1.0000
  H   H1232     1.0  0.97092  0.77921  0.41110  1.0000
  H   H1233     1.0  0.54329  0.81141  0.37769  1.0000
  H   H1234     1.0  0.50341  0.72633  0.50432  1.0000
  H   H1235     1.0  0.72789  0.73313  0.61756  1.0000
  H   H1236     1.0  0.93865  0.58065  0.56684  1.0000
  C   C1548     1.0  0.94368  0.57043  0.58592  1.0000
  C   C1549     1.0  0.76106  0.90471  0.43344  1.0000
  C   C1550     1.0  0.77903  0.89958  0.41120  1.0000
  C   C1551     1.0  0.78192  0.87114  0.39976  1.0000
  C   C1552     1.0  0.76570  0.84785  0.40978  1.0000
  P   P52       1.0  0.77109  0.81065  0.39621  1.0000
  C   C1553     1.0  0.80214  0.79387  0.41447  1.0000
  C   C1554     1.0  0.83094  0.79310  0.40398  1.0000
  C   C1555     1.0  0.85466  0.77999  0.41857  1.0000
  C   C1556     1.0  0.84995  0.76826  0.44383  1.0000
  C   C1557     1.0  0.82154  0.76988  0.45472  1.0000
  C   C1558     1.0  0.79774  0.78278  0.44017  1.0000
  C   C1559     1.0  0.55869  0.79334  0.38393  1.0000
  C   C1560     1.0  0.51443  0.56986  0.55741  1.0000
  C   C1561     1.0  0.74270  0.75790  0.40436  1.0000
  H   H1237     1.0  0.75938  0.92675  0.44247  1.0000
  H   H1238     1.0  0.79117  0.91760  0.40309  1.0000
  H   H1239     1.0  0.79712  0.86735  0.38328  1.0000
  H   H1240     1.0  0.83511  0.80238  0.38456  1.0000
  H   H1241     1.0  0.87668  0.77869  0.41026  1.0000
  H   H1242     1.0  0.86826  0.75786  0.45499  1.0000
  H   H1243     1.0  0.81789  0.76073  0.47432  1.0000
  H   H1244     1.0  0.77584  0.78372  0.44892  1.0000
  H   H1245     1.0  0.67056  0.74119  0.40977  1.0000
  H   H1246     1.0  0.72110  0.71695  0.41109  1.0000
  H   H1247     1.0  0.76462  0.74670  0.40438  1.0000
  C   C1562     1.0  0.71910  0.95811  0.52096  1.0000
  C   C1563     1.0  0.72821  0.93700  0.54014  1.0000
  C   C1564     1.0  0.70772  0.92676  0.55825  1.0000
  C   C1565     1.0  0.67807  0.93763  0.55726  1.0000
  C   C1566     1.0  0.66873  0.95887  0.53804  1.0000
  C   C1567     1.0  0.68950  0.96903  0.51990  1.0000
  P   P53       1.0  0.63067  0.97379  0.53675  1.0000
  C   C1568     1.0  0.60728  0.95145  0.55685  1.0000
  C   C1569     1.0  0.93618  0.56707  0.63341  1.0000
  H   H1248     1.0  0.73263  0.88516  0.46202  1.0000
  C   C1570     1.0  0.68310  0.01058  0.63338  1.0000
  H   H1249     1.0  0.92530  0.71389  0.36777  1.0000
  H   H1250     1.0  0.59176  0.92493  0.52418  1.0000
  H   H1251     1.0  0.60542  0.84124  0.39628  1.0000
  H   H1252     1.0  0.73712  0.83484  0.44176  1.0000
  H   H1253     1.0  0.89543  0.94674  0.51527  1.0000
  C   C1571     1.0  0.69088  0.69302  0.32322  1.0000
  H   H1254     1.0  0.79711  0.76548  0.36013  1.0000
  C   C1572     1.0  0.60491  0.95674  0.58429  1.0000
  C   C1573     1.0  0.61786  0.97280  0.50270  1.0000
  C   C1574     1.0  0.63028  0.95124  0.48502  1.0000
  C   C1575     1.0  0.62027  0.95014  0.45876  1.0000
  H   H1255     1.0  0.70278  0.83361  0.34096  1.0000
  H   H1256     1.0  0.80544  0.76497  0.31162  1.0000
  H   H1257     1.0  0.96775  0.54423  0.41564  1.0000
  H   H1258     1.0  0.95374  0.69680  0.58599  1.0000
  H   H1259     1.0  0.75127  0.92882  0.54109  1.0000
  H   H1260     1.0  0.71496  0.91059  0.57323  1.0000
  H   H1261     1.0  0.66263  0.92945  0.57151  1.0000
  C   C1576     1.0  0.59459  0.88822  0.39140  1.0000
  C   C1577     1.0  0.50691  0.70109  0.44035  1.0000
  H   H1262     1.0  0.53055  0.00208  0.62685  1.0000
  C   C1578     1.0  0.59086  0.92914  0.54531  1.0000
  H   H1263     1.0  0.92372  0.81417  0.44827  1.0000
  C   C1579     1.0  0.97593  0.55758  0.34975  1.0000
  H   H1264     1.0  0.74555  0.72957  0.35350  1.0000
  C   C1580     1.0  0.90939  0.75957  0.36155  1.0000
  C   C1581     1.0  0.92028  0.65275  0.39630  1.0000
  H   H1265     1.0  0.55909  0.89582  0.55194  1.0000
  H   H1266     1.0  0.61697  0.97412  0.59360  1.0000
  H   H1267     1.0  0.57667  0.65327  0.61710  1.0000
  C   C1582     1.0  0.90789  0.02508  0.40940  1.0000
  C   C1583     1.0  0.86091  0.80519  0.30821  1.0000
  C   C1584     1.0  0.58049  0.87454  0.33895  1.0000
  H   H1268     1.0  0.87628  0.67346  0.39028  1.0000
  C   C1585     1.0  0.93760  0.85205  0.34127  1.0000
  C   C1586     1.0  0.89788  0.69274  0.42347  1.0000
  H   H1269     1.0  0.82425  0.59353  0.39948  1.0000
  C   C1587     1.0  0.95413  0.77423  0.39673  1.0000
  C   C1588     1.0  0.79673  0.97935  0.49197  1.0000
  H   H1270     1.0  0.62099  0.60851  0.44176  1.0000
  C   C1589     1.0  0.68597  0.81851  0.33543  1.0000
  C   C1590     1.0  0.95051  0.74433  0.39019  1.0000
  C   C1591     1.0  0.75156  0.80350  0.61910  1.0000
  C   C1592     1.0  0.93941  0.97884  0.63083  1.0000
  S   S205      1.0  0.92084  0.99669  0.34271  1.0000
  C   C1593     1.0  0.92831  0.65437  0.34080  1.0000
  C   C1594     1.0  0.68952  0.75461  0.40707  1.0000
  C   C1595     1.0  0.74833  0.85292  0.43264  1.0000
  C   C1596     1.0  0.94619  0.65315  0.41166  1.0000
  C   C1597     1.0  0.64490  0.62642  0.47457  1.0000
  C   C1598     1.0  0.62103  0.62557  0.45701  1.0000
  C   C1599     1.0  0.59772  0.64738  0.45852  1.0000
  C   C1600     1.0  0.59817  0.67003  0.47764  1.0000
  C   C1601     1.0  0.62214  0.67112  0.49523  1.0000
  C   C1602     1.0  0.64540  0.64898  0.49372  1.0000
  P   P54       1.0  0.62233  0.69940  0.52080  1.0000
  C   C1603     1.0  0.59889  0.73151  0.51024  1.0000
  C   C1604     1.0  0.60899  0.68438  0.55169  1.0000
  C   C1605     1.0  0.60389  0.70313  0.57380  1.0000
  C   C1606     1.0  0.59259  0.69179  0.59735  1.0000
  C   C1607     1.0  0.58614  0.66176  0.59903  1.0000
  C   C1608     1.0  0.59108  0.64296  0.57718  1.0000
  C   C1609     1.0  0.60244  0.65416  0.55361  1.0000
  C   C1610     1.0  0.60715  0.74910  0.48866  1.0000
  C   C1611     1.0  0.58874  0.77350  0.48020  1.0000
  C   C1612     1.0  0.56197  0.78060  0.49323  1.0000
  C   C1613     1.0  0.55340  0.76307  0.51445  1.0000
  C   C1614     1.0  0.57150  0.73839  0.52262  1.0000
  C   C1615     1.0  0.66013  0.71048  0.52394  1.0000
  C   C1616     1.0  0.67336  0.71408  0.54892  1.0000
  C   C1617     1.0  0.70304  0.72119  0.55085  1.0000
  C   C1618     1.0  0.71973  0.72492  0.52789  1.0000
  C   C1619     1.0  0.70675  0.72142  0.50302  1.0000
  C   C1620     1.0  0.67723  0.71408  0.50103  1.0000
  H   H1271     1.0  0.66344  0.61008  0.47287  1.0000
  C   C1621     1.0  0.60581  0.76501  0.37986  1.0000
  P   P55       1.0  0.93846  0.83556  0.39527  1.0000
  H   H1272     1.0  0.57986  0.68664  0.47862  1.0000
  H   H1273     1.0  0.66420  0.64935  0.50703  1.0000
  H   H1274     1.0  0.60792  0.72668  0.57259  1.0000
  C   C1622     1.0  0.67188  0.67022  0.61416  1.0000
  H   H1275     1.0  0.52351  0.56931  0.43238  1.0000
  H   H1276     1.0  0.58535  0.61986  0.57823  1.0000
  H   H1277     1.0  0.60508  0.63932  0.53673  1.0000
  H   H1278     1.0  0.62751  0.74377  0.47805  1.0000
  H   H1279     1.0  0.59512  0.78677  0.46341  1.0000
  H   H1280     1.0  0.54759  0.79942  0.48680  1.0000
  H   H1281     1.0  0.53237  0.76821  0.52430  1.0000
  H   H1282     1.0  0.56356  0.72439  0.53818  1.0000
  H   H1283     1.0  0.66120  0.71091  0.56694  1.0000
  H   H1284     1.0  0.71336  0.72330  0.57012  1.0000
  H   H1285     1.0  0.74286  0.73000  0.52933  1.0000
  H   H1286     1.0  0.71974  0.72359  0.48517  1.0000
  H   H1287     1.0  0.66813  0.71026  0.48153  1.0000
  H   H1288     1.0  0.88014  0.82426  0.47733  1.0000
  Fe  Fe104     1.0  0.87961  0.96993  0.34165  1.0000
  S   S206      1.0  0.87042  0.93629  0.37348  1.0000
  C   C1623     1.0  0.95783  0.58392  0.34760  1.0000
  C   C1624     1.0  0.58627  0.78865  0.37129  1.0000
  C   C1625     1.0  0.73906  0.78896  0.40078  1.0000
  S   S207      1.0  0.55102  0.70296  0.34497  1.0000
  C   C1626     1.0  0.71805  0.74089  0.40785  1.0000
  H   H1289     1.0  0.53335  0.63986  0.47498  1.0000
  C   C1627     1.0  0.82411  0.59852  0.35688  1.0000
  C   C1628     1.0  0.87352  0.98653  0.53144  1.0000
  C   C1629     1.0  0.50669  0.88861  0.39373  1.0000
  H   H1290     1.0  0.87994  0.54665  0.40228  1.0000
  H   H1291     1.0  0.49658  0.59101  0.39347  1.0000
  C   C1630     1.0  0.94045  0.89217  0.37326  1.0000
  C   C1631     1.0  0.92336  0.69244  0.43919  1.0000
  Fe  Fe105     1.0  0.51771  0.68555  0.37336  1.0000
  S   S208      1.0  0.83486  0.99342  0.34418  1.0000
  H   H1292     1.0  0.89490  0.02471  0.46584  1.0000
  P   P56       1.0  0.91884  0.62945  0.36722  1.0000
  Fe  Fe106     1.0  0.81744  0.02322  0.60107  1.0000
  C   C1632     1.0  0.52428  0.66238  0.47135  1.0000
  C   C1633     1.0  0.86407  0.58825  0.53404  1.0000
  C   C1634     1.0  0.50685  0.97760  0.31164  1.0000
  C   C1635     1.0  0.85845  0.86765  0.42466  1.0000
  S   S209      1.0  0.53959  0.63932  0.37629  1.0000
  S   S210      1.0  0.53257  0.67138  0.52445  1.0000
  C   C1636     1.0  0.58465  0.99131  0.46760  1.0000
  H   H1293     1.0  0.94265  0.01732  0.57729  1.0000
  H   H1294     1.0  0.52168  0.65638  0.42899  1.0000
  H   H1295     1.0  0.62603  0.76447  0.31465  1.0000
  H   H1296     1.0  0.93473  0.58987  0.41172  1.0000
  H   H1297     1.0  0.83821  0.85832  0.46221  1.0000
  C   C1637     1.0  0.51786  0.67177  0.44525  1.0000
  H   H1298     1.0  0.56471  0.99460  0.35124  1.0000
  H   H1299     1.0  0.96468  0.72670  0.39906  1.0000
  S   S211      1.0  0.52553  0.72927  0.58568  1.0000
  H   H1300     1.0  0.73514  0.96618  0.50711  1.0000
  H   H1301     1.0  0.84160  0.61805  0.50608  1.0000
  H   H1302     1.0  0.57949  0.64695  0.44459  1.0000
  C   C1638     1.0  0.90690  0.94233  0.61363  1.0000
  H   H1303     1.0  0.88325  0.53653  0.45777  1.0000
  H   H1304     1.0  0.57542  0.87011  0.31848  1.0000
  C   C1639     1.0  0.88308  0.86229  0.40827  1.0000
  C   C1640     1.0  0.90579  0.82950  0.44167  1.0000
  H   H1305     1.0  0.50067  0.90532  0.37881  1.0000
  C   C1641     1.0  0.90642  0.67442  0.33005  1.0000
  H   H1306     1.0  0.58965  0.96935  0.42975  1.0000
  H   H1307     1.0  0.64925  0.71350  0.61608  1.0000
  C   C1642     1.0  0.51978  0.68221  0.49267  1.0000
  Fe  Fe107     1.0  0.75405  0.00214  0.60276  1.0000
  H   H1308     1.0  0.55514  0.90557  0.60029  1.0000
  C   C1643     1.0  0.80924  0.54069  0.30829  1.0000
  H   H1309     1.0  0.89973  0.92847  0.59749  1.0000
  C   C1644     1.0  0.97298  0.84061  0.41226  1.0000
  H   H1310     1.0  0.95129  0.96724  0.43424  1.0000
  Fe  Fe108     1.0  0.51033  0.62885  0.34157  1.0000
  H   H1311     1.0  0.56870  0.92175  0.33472  1.0000
  C   C1645     1.0  0.50933  0.87591  0.30339  1.0000
  H   H1312     1.0  0.64168  0.02041  0.61308  1.0000
  C   C1646     1.0  0.88200  0.61680  0.36298  1.0000
  H   H1313     1.0  0.87489  0.60986  0.40505  1.0000
  C   C1647     1.0  0.93036  0.96082  0.61000  1.0000
  C   C1648     1.0  0.89721  0.98415  0.48849  1.0000
  C   C1649     1.0  0.68563  0.78543  0.40266  1.0000
  H   H1314     1.0  0.70701  0.82636  0.39582  1.0000
  H   H1315     1.0  0.69908  0.70471  0.36385  1.0000
  C   C1650     1.0  0.94355  0.59641  0.37004  1.0000
  C   C1651     1.0  0.94757  0.67276  0.43319  1.0000
  H   H1316     1.0  0.88369  0.67435  0.33679  1.0000
  C   C1652     1.0  0.91746  0.99572  0.41554  1.0000
  C   C1653     1.0  0.73269  0.72022  0.33773  1.0000
  C   C1654     1.0  0.95791  0.65646  0.33295  1.0000
  C   C1655     1.0  0.50145  0.57971  0.43484  1.0000
  H   H1317     1.0  0.84465  0.66268  0.53452  1.0000
  H   H1318     1.0  0.90490  0.97741  0.40855  1.0000
  H   H1319     1.0  0.58343  0.94511  0.62079  1.0000
  C   C1656     1.0  0.96517  0.67713  0.31351  1.0000
  C   C1657     1.0  0.93579  0.79714  0.38520  1.0000
  C   C1658     1.0  0.94661  0.58143  0.39441  1.0000
  H   H1320     1.0  0.53559  0.02507  0.58285  1.0000
  H   H1321     1.0  0.94135  0.90005  0.39354  1.0000
  H   H1322     1.0  0.65785  0.66242  0.59845  1.0000
  C   C1659     1.0  0.91382  0.69537  0.31099  1.0000
  C   C1660     1.0  0.88951  0.97026  0.51208  1.0000
  H   H1323     1.0  0.92425  0.70732  0.45609  1.0000
  H   H1324     1.0  0.87808  0.55371  0.63301  1.0000
  C   C1661     1.0  0.48775  0.60800  0.53122  1.0000
  C   C1662     1.0  0.88784  0.53190  0.36194  1.0000
  H   H1325     1.0  0.58152  0.93388  0.38101  1.0000
  S   S212      1.0  0.86750  0.93946  0.30819  1.0000
  H   H1326     1.0  0.59987  0.89363  0.41175  1.0000
  H   H1327     1.0  0.76588  0.76324  0.59822  1.0000
  C   C1663     1.0  0.57019  0.91784  0.58827  1.0000
  C   C1664     1.0  0.94082  0.91291  0.35254  1.0000
  S   S213      1.0  0.78634  0.01359  0.63449  1.0000
  C   C1665     1.0  0.50163  0.86323  0.32762  1.0000
  C   C1666     1.0  0.50113  0.72053  0.46181  1.0000
  C   C1667     1.0  0.58423  0.91093  0.37413  1.0000
  C   C1668     1.0  0.80693  0.67799  0.30833  1.0000
  C   C1669     1.0  0.50274  0.94749  0.58929  1.0000
  C   C1670     1.0  0.94356  0.99007  0.42997  1.0000
  C   C1671     1.0  0.59062  0.85148  0.35620  1.0000
  H   H1328     1.0  0.93666  0.82872  0.33621  1.0000
  C   C1672     1.0  0.79455  0.78440  0.32097  1.0000
  C   C1673     1.0  0.63453  0.80545  0.33552  1.0000
  C   C1674     1.0  0.76749  0.83514  0.34497  1.0000
  Fe  Fe109     1.0  0.50296  0.98212  0.49590  1.0000
  C   C1675     1.0  0.96676  0.54826  0.58761  1.0000
  C   C1676     1.0  0.50108  0.84038  0.41429  1.0000
  H   H1329     1.0  0.96528  0.63824  0.40725  1.0000
  H   H1330     1.0  0.85046  0.64767  0.62931  1.0000
  H   H1331     1.0  0.54984  0.99372  0.30370  1.0000
  C   C1677     1.0  0.79011  0.78493  0.34844  1.0000
  H   H1332     1.0  0.97881  0.54106  0.56990  1.0000
  C   C1678     1.0  0.59753  0.85857  0.38258  1.0000
  H   H1333     1.0  0.64757  0.93514  0.49149  1.0000
  H   H1334     1.0  0.93805  0.53195  0.46114  1.0000
  H   H1335     1.0  0.49928  0.94861  0.54651  1.0000
  C   C1679     1.0  0.86182  0.83656  0.30788  1.0000
  C   C1680     1.0  0.86812  0.60156  0.62961  1.0000
  H   H1336     1.0  0.88806  0.01741  0.58347  1.0000
  C   C1681     1.0  0.60794  0.79983  0.63012  1.0000
  H   H1337     1.0  0.60388  0.82073  0.61950  1.0000
  H   H1338     1.0  0.49380  0.92570  0.59102  1.0000
  H   H1339     1.0  0.65498  0.80189  0.62875  1.0000
  H   H1340     1.0  0.69921  0.58265  0.32313  1.0000
  H   H1341     1.0  0.49061  0.81942  0.41579  1.0000
  H   H1342     1.0  0.69956  0.62939  0.61550  1.0000
  C   C1682     1.0  0.67208  0.77359  0.31318  1.0000
  H   H1343     1.0  0.78998  0.53939  0.32091  1.0000
  S   S214      1.0  0.49253  0.01126  0.46066  1.0000
  H   H1344     1.0  0.49232  0.74315  0.45822  1.0000
  C   C1683     1.0  0.86442  0.01649  0.52705  1.0000
  H   H1345     1.0  0.71529  0.93355  0.62198  1.0000
  C   C1684     1.0  0.49345  0.86103  0.39408  1.0000
  H   H1346     1.0  0.53097  0.57900  0.62498  1.0000
  C   C1685     1.0  0.94165  0.69576  0.62732  1.0000
  H   H1347     1.0  0.70971  0.63375  0.30962  1.0000
  C   C1686     1.0  0.74246  0.72175  0.31149  1.0000
  H   H1348     1.0  0.93839  0.91961  0.31028  1.0000
  S   S215      1.0  0.78333  0.01658  0.56925  1.0000
  C   C1687     1.0  0.59475  0.99265  0.49381  1.0000
  H   H1349     1.0  0.95172  0.71644  0.63214  1.0000
  C   C1688     1.0  0.83638  0.52667  0.31601  1.0000
  C   C1689     1.0  0.66965  0.93769  0.63379  1.0000
  H   H1350     1.0  0.56150  0.79167  0.63341  1.0000
  H   H1351     1.0  0.76280  0.73226  0.30697  1.0000
  C   C1690     1.0  0.78606  0.80938  0.30558  1.0000
  H   H1352     1.0  0.76610  0.85419  0.30562  1.0000
  C   C1691     1.0  0.48816  0.58082  0.45991  1.0000
  C   C1692     1.0  0.97965  0.54339  0.37430  1.0000
  H   H1353     1.0  0.67497  0.01812  0.54946  1.0000
  H   H1354     1.0  0.48785  0.83468  0.63072  1.0000
  H   H1355     1.0  0.56658  0.00648  0.46093  1.0000
  C   C1693     1.0  0.59995  0.02448  0.55705  1.0000
  C   C1694     1.0  0.95924  0.54493  0.63505  1.0000
  Fe  Fe110     1.0  0.52723  0.96870  0.74040  1.0000
  H   H1356     1.0  0.96292  0.64581  0.86404  1.0000
  S   S216      1.0  0.51623  0.93908  0.77547  1.0000
  Fe  Fe111     1.0  0.52421  0.97076  0.67932  1.0000
  H   H1357     1.0  0.60180  0.54737  0.96098  1.0000
  H   H1358     1.0  0.73229  0.64759  0.65087  1.0000
  C   C1695     1.0  0.88735  0.55817  0.78616  1.0000
  H   H1359     1.0  0.94761  0.62909  0.76994  1.0000
  C   C1696     1.0  0.54415  0.80657  0.91886  1.0000
  S   S217      1.0  0.55814  0.95153  0.70810  1.0000
  H   H1360     1.0  0.82161  0.56881  0.89875  1.0000
  C   C1697     1.0  0.68487  0.70932  0.64489  1.0000
  H   H1361     1.0  0.92504  0.57462  0.65143  1.0000
  S   S218      1.0  0.52230  0.98522  0.89491  1.0000
  Fe  Fe112     1.0  0.80806  0.97146  0.80968  1.0000
  S   S219      1.0  0.85514  0.95498  0.80231  1.0000
  S   S220      1.0  0.77614  0.98530  0.77705  1.0000
  Fe  Fe113     1.0  0.81387  0.96617  0.87019  1.0000
  S   S221      1.0  0.78609  0.97624  0.90729  1.0000
  Fe  Fe114     1.0  0.84602  0.92058  0.83300  1.0000
  S   S222      1.0  0.85899  0.87114  0.82859  1.0000
  H   H1362     1.0  0.69454  0.80960  0.66299  1.0000
  S   S223      1.0  0.79805  0.93537  0.83842  1.0000
  H   H1363     1.0  0.84792  0.01892  0.78343  1.0000
  S   S224      1.0  0.81664  0.93627  0.66431  1.0000
  H   H1364     1.0  0.66459  0.71789  0.89036  1.0000
  S   S225      1.0  0.62606  0.65230  0.84458  1.0000
  S   S226      1.0  0.49082  0.58325  0.84816  1.0000
  Fe  Fe115     1.0  0.84863  0.75344  0.71495  1.0000
  S   S227      1.0  0.80060  0.74418  0.71117  1.0000
  S   S228      1.0  0.85994  0.80208  0.71784  1.0000
  Fe  Fe116     1.0  0.86778  0.68700  0.71353  1.0000
  S   S229      1.0  0.82118  0.67318  0.71080  1.0000
  S   S230      1.0  0.90798  0.65428  0.71345  1.0000
  Fe  Fe117     1.0  0.81482  0.70985  0.68046  1.0000
  H   H1365     1.0  0.61469  0.56320  0.91538  1.0000
  Fe  Fe118     1.0  0.81109  0.70866  0.74152  1.0000
  S   S231      1.0  0.77886  0.70197  0.77495  1.0000
  S   S232      1.0  0.86233  0.72197  0.68140  1.0000
  S   S233      1.0  0.85840  0.71961  0.74701  1.0000
  Fe  Fe119     1.0  0.76264  0.65461  0.94697  1.0000
  H   H1366     1.0  0.85651  0.56015  0.71720  1.0000
  S   S234      1.0  0.71465  0.64162  0.94387  1.0000
  Fe  Fe120     1.0  0.81200  0.68991  0.92477  1.0000
  S   S235      1.0  0.82782  0.71929  0.89184  1.0000
  S   S236      1.0  0.79794  0.64376  0.91662  1.0000
  C   C1698     1.0  0.79281  0.70666  0.80731  1.0000
  C   C1699     1.0  0.81480  0.72662  0.81234  1.0000
  C   C1700     1.0  0.82497  0.73069  0.83840  1.0000
  C   C1701     1.0  0.81377  0.71431  0.85950  1.0000
  C   C1702     1.0  0.79171  0.69440  0.85447  1.0000
  C   C1703     1.0  0.78106  0.69083  0.82849  1.0000
  H   H1367     1.0  0.82364  0.73934  0.79625  1.0000
  H   H1368     1.0  0.84182  0.74635  0.84214  1.0000
  H   H1369     1.0  0.78259  0.68196  0.87057  1.0000
  H   H1370     1.0  0.76386  0.67555  0.82477  1.0000
  S   S237      1.0  0.86128  0.94844  0.86727  1.0000
  C   C1704     1.0  0.84963  0.00474  0.74259  1.0000
  H   H1371     1.0  0.48995  0.78545  0.65317  1.0000
  C   C1705     1.0  0.70830  0.69030  0.65448  1.0000
  H   H1372     1.0  0.87951  0.02251  0.65949  1.0000
  C   C1706     1.0  0.90345  0.55221  0.71124  1.0000
  C   C1707     1.0  0.93019  0.56568  0.70736  1.0000
  C   C1708     1.0  0.93089  0.59701  0.70711  1.0000
  C   C1709     1.0  0.90502  0.61519  0.71120  1.0000
  C   C1710     1.0  0.87804  0.60181  0.71436  1.0000
  C   C1711     1.0  0.87732  0.57040  0.71444  1.0000
  Fe  Fe121     1.0  0.57539  0.65535  0.84545  1.0000
  H   H1373     1.0  0.95171  0.60723  0.70405  1.0000
  H   H1374     1.0  0.85784  0.61553  0.71724  1.0000
  P   P57       1.0  0.67991  0.74745  0.65674  1.0000
  C   C1712     1.0  0.69039  0.64536  0.91601  1.0000
  C   C1713     1.0  0.70034  0.65315  0.89078  1.0000
  C   C1714     1.0  0.68043  0.65498  0.86913  1.0000
  C   C1715     1.0  0.65027  0.64959  0.87250  1.0000
  C   C1716     1.0  0.64029  0.64210  0.89779  1.0000
  C   C1717     1.0  0.66028  0.63978  0.91931  1.0000
  H   H1375     1.0  0.72342  0.65740  0.88784  1.0000
  H   H1376     1.0  0.68842  0.66071  0.84966  1.0000
  H   H1377     1.0  0.61721  0.63792  0.90074  1.0000
  H   H1378     1.0  0.65226  0.63360  0.93861  1.0000
  C   C1718     1.0  0.85799  0.85254  0.79756  1.0000
  C   C1719     1.0  0.85783  0.86819  0.77348  1.0000
  C   C1720     1.0  0.85844  0.85248  0.74921  1.0000
  C   C1721     1.0  0.85872  0.82107  0.74876  1.0000
  C   C1722     1.0  0.85835  0.80550  0.77283  1.0000
  C   C1723     1.0  0.85822  0.82116  0.79708  1.0000
  H   H1379     1.0  0.85773  0.89232  0.77354  1.0000
  H   H1380     1.0  0.85866  0.86470  0.73069  1.0000
  H   H1381     1.0  0.85853  0.78137  0.77281  1.0000
  H   H1382     1.0  0.85827  0.80886  0.81556  1.0000
  C   C1724     1.0  0.91124  0.61465  0.95172  1.0000
  C   C1725     1.0  0.79816  0.97483  0.94082  1.0000
  H   H1383     1.0  0.50191  0.79365  0.85490  1.0000
  H   H1384     1.0  0.54018  0.99183  0.79933  1.0000
  H   H1385     1.0  0.83766  0.54560  0.66422  1.0000
  C   C1726     1.0  0.78523  0.96939  0.74592  1.0000
  C   C1727     1.0  0.80743  0.94645  0.74368  1.0000
  C   C1728     1.0  0.81674  0.93621  0.71856  1.0000
  C   C1729     1.0  0.80354  0.94850  0.69555  1.0000
  C   C1730     1.0  0.78015  0.97019  0.69780  1.0000
  C   C1731     1.0  0.77096  0.98054  0.72295  1.0000
  H   H1386     1.0  0.81772  0.93682  0.76126  1.0000
  H   H1387     1.0  0.83454  0.91906  0.71699  1.0000
  H   H1388     1.0  0.76916  0.97904  0.68022  1.0000
  Fe  Fe122     1.0  0.82742  0.63019  0.95101  1.0000
  C   C1732     1.0  0.76089  0.88162  0.70238  1.0000
  H   H1389     1.0  0.95567  0.53827  0.95390  1.0000
  C   C1733     1.0  0.77626  0.60205  0.73092  1.0000
  C   C1734     1.0  0.93513  0.93352  0.73793  1.0000
  C   C1735     1.0  0.63424  0.01102  0.65447  1.0000
  H   H1390     1.0  0.50213  0.75491  0.82003  1.0000
  H   H1391     1.0  0.71209  0.02567  0.76641  1.0000
  C   C1736     1.0  0.92801  0.52974  0.85431  1.0000
  C   C1737     1.0  0.90631  0.60257  0.88102  1.0000
  C   C1738     1.0  0.51700  0.95258  0.80850  1.0000
  S   S238      1.0  0.51026  0.94462  0.64342  1.0000
  H   H1392     1.0  0.97889  0.53612  0.81853  1.0000
  C   C1739     1.0  0.51899  0.97226  0.86185  1.0000
  C   C1740     1.0  0.53170  0.98850  0.84138  1.0000
  C   C1741     1.0  0.53032  0.97901  0.81481  1.0000
  H   H1393     1.0  0.90415  0.64129  0.65683  1.0000
  H   H1394     1.0  0.85161  0.57250  0.85805  1.0000
  C   C1742     1.0  0.77024  0.78965  0.78233  1.0000
  C   C1743     1.0  0.78412  0.81129  0.76769  1.0000
  C   C1744     1.0  0.78475  0.84045  0.77740  1.0000
  C   C1745     1.0  0.77209  0.84784  0.80202  1.0000
  C   C1746     1.0  0.75836  0.82612  0.81702  1.0000
  C   C1747     1.0  0.75693  0.79709  0.80668  1.0000
  P   P58       1.0  0.73948  0.83696  0.84739  1.0000
  C   C1748     1.0  0.76211  0.85991  0.86757  1.0000
  C   C1749     1.0  0.70589  0.85734  0.83672  1.0000
  C   C1750     1.0  0.70548  0.88841  0.83280  1.0000
  C   C1751     1.0  0.67955  0.90416  0.82432  1.0000
  C   C1752     1.0  0.65404  0.88899  0.81921  1.0000
  C   C1753     1.0  0.65451  0.85796  0.82228  1.0000
  C   C1754     1.0  0.68048  0.84209  0.83059  1.0000
  C   C1755     1.0  0.74880  0.88069  0.88545  1.0000
  C   C1756     1.0  0.76631  0.89833  0.90126  1.0000
  C   C1757     1.0  0.79715  0.89472  0.89993  1.0000
  C   C1758     1.0  0.81053  0.87336  0.88288  1.0000
  C   C1759     1.0  0.79313  0.85603  0.86669  1.0000
  C   C1760     1.0  0.73246  0.80543  0.86844  1.0000
  C   C1761     1.0  0.75422  0.78200  0.87162  1.0000
  C   C1762     1.0  0.74925  0.75813  0.88864  1.0000
  C   C1763     1.0  0.72283  0.75758  0.90288  1.0000
  C   C1764     1.0  0.70142  0.78121  0.90046  1.0000
  C   C1765     1.0  0.70635  0.80526  0.88359  1.0000
  H   H1395     1.0  0.77019  0.76693  0.77497  1.0000
  H   H1396     1.0  0.79498  0.80535  0.74908  1.0000
  H   H1397     1.0  0.79577  0.85713  0.76610  1.0000
  H   H1398     1.0  0.77326  0.87046  0.80942  1.0000
  H   H1399     1.0  0.74586  0.78001  0.81737  1.0000
  H   H1400     1.0  0.72516  0.90056  0.83626  1.0000
  H   H1401     1.0  0.67925  0.92820  0.82176  1.0000
  H   H1402     1.0  0.63393  0.90135  0.81289  1.0000
  H   H1403     1.0  0.63470  0.84624  0.81826  1.0000
  H   H1404     1.0  0.68073  0.81797  0.83236  1.0000
  H   H1405     1.0  0.72494  0.88352  0.88707  1.0000
  H   H1406     1.0  0.75607  0.91515  0.91436  1.0000
  H   H1407     1.0  0.81064  0.90876  0.91189  1.0000
  H   H1408     1.0  0.83447  0.87058  0.88178  1.0000
  H   H1409     1.0  0.80404  0.83978  0.85345  1.0000
  H   H1410     1.0  0.77518  0.78216  0.86116  1.0000
  H   H1411     1.0  0.76608  0.74011  0.89101  1.0000
  H   H1412     1.0  0.68996  0.82382  0.88270  1.0000
  H   H1413     1.0  0.86511  0.61935  0.89848  1.0000
  H   H1414     1.0  0.89542  0.57831  0.77783  1.0000
  H   H1415     1.0  0.92794  0.68509  0.88233  1.0000
  C   C1766     1.0  0.59167  0.56218  0.92118  1.0000
  H   H1416     1.0  0.49248  0.77924  0.75966  1.0000
  S   S239      1.0  0.54650  0.01375  0.74238  1.0000
  P   P59       1.0  0.53083  0.82373  0.73705  1.0000
  C   C1767     1.0  0.55566  0.85218  0.74622  1.0000
  C   C1768     1.0  0.55156  0.78866  0.74314  1.0000
  C   C1769     1.0  0.56482  0.77206  0.72219  1.0000
  C   C1770     1.0  0.58011  0.74458  0.72721  1.0000
  C   C1771     1.0  0.58323  0.73402  0.75322  1.0000
  C   C1772     1.0  0.57105  0.75092  0.77424  1.0000
  C   C1773     1.0  0.55531  0.77816  0.76927  1.0000
  C   C1774     1.0  0.57447  0.86399  0.72729  1.0000
  C   C1775     1.0  0.59310  0.88652  0.73438  1.0000
  C   C1776     1.0  0.59337  0.89720  0.76041  1.0000
  C   C1777     1.0  0.57544  0.88488  0.77958  1.0000
  C   C1778     1.0  0.55689  0.86222  0.77262  1.0000
  H   H1417     1.0  0.91400  0.98652  0.88626  1.0000
  H   H1418     1.0  0.87907  0.67191  0.89963  1.0000
  H   H1419     1.0  0.91821  0.53973  0.83659  1.0000
  C   C1779     1.0  0.93883  0.94939  0.71435  1.0000
  C   C1780     1.0  0.51635  0.79973  0.90920  1.0000
  H   H1420     1.0  0.57063  0.74331  0.65661  1.0000
  C   C1781     1.0  0.78102  0.58546  0.88005  1.0000
  H   H1421     1.0  0.56302  0.77994  0.70194  1.0000
  H   H1422     1.0  0.58870  0.73092  0.71090  1.0000
  H   H1423     1.0  0.59431  0.71231  0.75706  1.0000
  H   H1424     1.0  0.57285  0.74228  0.79432  1.0000
  H   H1425     1.0  0.57454  0.85611  0.70698  1.0000
  H   H1426     1.0  0.60678  0.89627  0.71955  1.0000
  H   H1427     1.0  0.60701  0.91546  0.76556  1.0000
  H   H1428     1.0  0.57496  0.89374  0.79962  1.0000
  C   C1782     1.0  0.54958  0.83606  0.92548  1.0000
  C   C1783     1.0  0.94237  0.61343  0.95449  1.0000
  H   H1429     1.0  0.77405  0.60812  0.81601  1.0000
  H   H1430     1.0  0.74459  0.60424  0.85671  1.0000
  H   H1431     1.0  0.90075  0.66901  0.76784  1.0000
  H   H1432     1.0  0.52245  0.57452  0.89582  1.0000
  H   H1433     1.0  0.49247  0.60102  0.79559  1.0000
  H   H1434     1.0  0.50518  0.62169  0.92962  1.0000
  C   C1784     1.0  0.73492  0.86612  0.70484  1.0000
  C   C1785     1.0  0.93412  0.60974  0.87127  1.0000
  H   H1435     1.0  0.89883  0.70004  0.80852  1.0000
  H   H1436     1.0  0.54070  0.66324  0.92954  1.0000
  H   H1437     1.0  0.56263  0.66316  0.70306  1.0000
  C   C1786     1.0  0.68757  0.96058  0.75714  1.0000
  C   C1787     1.0  0.70927  0.95557  0.77663  1.0000
  C   C1788     1.0  0.72769  0.92942  0.77612  1.0000
  C   C1789     1.0  0.72459  0.90833  0.75603  1.0000
  C   C1790     1.0  0.70334  0.91356  0.73592  1.0000
  C   C1791     1.0  0.68454  0.93966  0.73690  1.0000
  Fe  Fe123     1.0  0.52333  0.68273  0.81245  1.0000
  H   H1438     1.0  0.57092  0.84138  0.93339  1.0000
  H   H1439     1.0  0.49554  0.93316  0.87117  1.0000
  C   C1792     1.0  0.78924  0.83509  0.69391  1.0000
  C   C1793     1.0  0.76373  0.81943  0.69729  1.0000
  C   C1794     1.0  0.73673  0.83477  0.70306  1.0000
  H   H1440     1.0  0.67341  0.98098  0.75728  1.0000
  H   H1441     1.0  0.71238  0.97224  0.79182  1.0000
  H   H1442     1.0  0.74507  0.92606  0.79084  1.0000
  H   H1443     1.0  0.73922  0.88832  0.75600  1.0000
  H   H1444     1.0  0.66783  0.94446  0.72192  1.0000
  C   C1795     1.0  0.51504  0.85535  0.69070  1.0000
  H   H1445     1.0  0.81010  0.82320  0.68907  1.0000
  H   H1446     1.0  0.76485  0.79540  0.69507  1.0000
  H   H1447     1.0  0.71742  0.82199  0.70572  1.0000
  C   C1796     1.0  0.82820  0.57907  0.85741  1.0000
  Fe  Fe124     1.0  0.52246  0.68545  0.87367  1.0000
  H   H1448     1.0  0.75317  0.99759  0.72448  1.0000
  C   C1797     1.0  0.68692  0.74756  0.69221  1.0000
  C   C1798     1.0  0.71620  0.74687  0.70170  1.0000
  C   C1799     1.0  0.72192  0.74540  0.72899  1.0000
  C   C1800     1.0  0.69862  0.74484  0.74707  1.0000
  C   C1801     1.0  0.66944  0.74598  0.73791  1.0000
  C   C1802     1.0  0.66357  0.74741  0.71064  1.0000
  C   C1803     1.0  0.90714  0.99404  0.90586  1.0000
  C   C1804     1.0  0.91284  0.97558  0.92784  1.0000
  H   H1449     1.0  0.92713  0.68831  0.66740  1.0000
  C   C1805     1.0  0.49825  0.82698  0.75775  1.0000
  H   H1450     1.0  0.71927  0.73894  0.91601  1.0000
  H   H1451     1.0  0.68113  0.78099  0.91185  1.0000
  C   C1806     1.0  0.81034  0.57160  0.75820  1.0000
  C   C1807     1.0  0.82090  0.59167  0.66401  1.0000
  H   H1452     1.0  0.57151  0.71016  0.90280  1.0000
  H   H1453     1.0  0.73474  0.74658  0.68804  1.0000
  H   H1454     1.0  0.74447  0.74383  0.73629  1.0000
  H   H1455     1.0  0.70336  0.74297  0.76814  1.0000
  H   H1456     1.0  0.65139  0.74522  0.75198  1.0000
  H   H1457     1.0  0.64083  0.74811  0.70426  1.0000
  C   C1808     1.0  0.50348  0.72008  0.96220  1.0000
  H   H1458     1.0  0.92282  0.53066  0.76858  1.0000
  H   H1459     1.0  0.61040  0.01417  0.65297  1.0000
  H   H1460     1.0  0.87340  0.62327  0.76553  1.0000
  C   C1809     1.0  0.49731  0.80486  0.66363  1.0000
  S   S240      1.0  0.62587  0.99992  0.70819  1.0000
  Fe  Fe125     1.0  0.49883  0.96959  0.93195  1.0000
  C   C1810     1.0  0.92488  0.97858  0.65546  1.0000
  H   H1461     1.0  0.53095  0.88140  0.92837  1.0000
  H   H1462     1.0  0.86186  0.98381  0.74678  1.0000
  C   C1811     1.0  0.49721  0.71796  0.72332  1.0000
  S   S241      1.0  0.50697  0.71507  0.90798  1.0000
  C   C1812     1.0  0.64571  0.71868  0.90364  1.0000
  C   C1813     1.0  0.97570  0.55814  0.78086  1.0000
  C   C1814     1.0  0.82690  0.96456  0.94783  1.0000
  Fe  Fe126     1.0  0.86574  0.98461  0.83656  1.0000
  H   H1463     1.0  0.62168  0.72364  0.66594  1.0000
  C   C1815     1.0  0.52717  0.85866  0.92245  1.0000
  C   C1816     1.0  0.77811  0.98389  0.96102  1.0000
  C   C1817     1.0  0.94373  0.55962  0.95342  1.0000
  S   S242      1.0  0.78539  0.69890  0.64535  1.0000
  H   H1464     1.0  0.87028  0.68433  0.84743  1.0000
  C   C1818     1.0  0.86100  0.55866  0.80098  1.0000
  H   H1465     1.0  0.52225  0.63078  0.64180  1.0000
  P   P60       1.0  0.83740  0.59254  0.80414  1.0000
  C   C1819     1.0  0.85818  0.62580  0.80625  1.0000
  C   C1820     1.0  0.81405  0.59607  0.77509  1.0000
  C   C1821     1.0  0.79897  0.62355  0.76944  1.0000
  C   C1822     1.0  0.77990  0.62643  0.74762  1.0000
  C   C1823     1.0  0.50399  0.71356  0.69624  1.0000
  C   C1824     1.0  0.96739  0.58436  0.76721  1.0000
  H   H1466     1.0  0.96352  0.97341  0.81314  1.0000
  C   C1825     1.0  0.85714  0.64366  0.82923  1.0000
  C   C1826     1.0  0.87193  0.67020  0.83001  1.0000
  C   C1827     1.0  0.88793  0.67914  0.80805  1.0000
  C   C1828     1.0  0.88890  0.66170  0.78511  1.0000
  C   C1829     1.0  0.87365  0.63549  0.78400  1.0000
  C   C1830     1.0  0.81505  0.58992  0.83375  1.0000
  C   C1831     1.0  0.71355  0.66165  0.64387  1.0000
  H   H1467     1.0  0.96538  0.53516  0.65412  1.0000
  C   C1832     1.0  0.90317  0.53106  0.78091  1.0000
  C   C1833     1.0  0.76788  0.59684  0.85677  1.0000
  C   C1834     1.0  0.78477  0.59907  0.83368  1.0000
  H   H1468     1.0  0.73185  0.90539  0.66148  1.0000
  H   H1469     1.0  0.61432  0.71234  0.87226  1.0000
  H   H1470     1.0  0.80169  0.64267  0.78217  1.0000
  H   H1471     1.0  0.76812  0.64775  0.74364  1.0000
  H   H1472     1.0  0.68886  0.99397  0.69929  1.0000
  C   C1835     1.0  0.61820  0.74525  0.65635  1.0000
  C   C1836     1.0  0.95873  0.58585  0.95598  1.0000
  H   H1473     1.0  0.84428  0.63790  0.84636  1.0000
  H   H1474     1.0  0.76162  0.60446  0.71392  1.0000
  H   H1475     1.0  0.84263  0.95773  0.93251  1.0000
  H   H1476     1.0  0.54552  0.79065  0.78578  1.0000
  H   H1477     1.0  0.95385  0.63384  0.95560  1.0000
  H   H1478     1.0  0.90172  0.54035  0.94788  1.0000
  C   C1837     1.0  0.92203  0.66200  0.88205  1.0000
  H   H1479     1.0  0.76792  0.58415  0.89800  1.0000
  H   H1480     1.0  0.93940  0.90944  0.73833  1.0000
  H   H1481     1.0  0.65828  0.85184  0.67902  1.0000
  C   C1838     1.0  0.81123  0.57679  0.88044  1.0000
  H   H1482     1.0  0.96705  0.90474  0.95898  1.0000
  C   C1839     1.0  0.50509  0.94605  0.85553  1.0000
  C   C1840     1.0  0.51446  0.70281  0.94074  1.0000
  S   S243      1.0  0.55350  0.70173  0.84285  1.0000
  C   C1841     1.0  0.97200  0.55669  0.80833  1.0000
  C   C1842     1.0  0.63674  0.82426  0.70699  1.0000
  C   C1843     1.0  0.90414  0.98539  0.95312  1.0000
  C   C1844     1.0  0.59328  0.71400  0.91063  1.0000
  S   S244      1.0  0.48996  0.67092  0.84332  1.0000
  C   C1845     1.0  0.89448  0.65462  0.89178  1.0000
  H   H1483     1.0  0.61904  0.79923  0.73925  1.0000
  H   H1484     1.0  0.95035  0.55202  0.70437  1.0000
  H   H1485     1.0  0.91649  0.01898  0.73630  1.0000
  C   C1846     1.0  0.62557  0.72129  0.94838  1.0000
  C   C1847     1.0  0.92552  0.94859  0.76091  1.0000
  S   S245      1.0  0.54706  0.63721  0.81267  1.0000
  C   C1848     1.0  0.53130  0.67625  0.94576  1.0000
  C   C1849     1.0  0.53951  0.56881  0.91032  1.0000
  C   C1850     1.0  0.64735  0.00374  0.67899  1.0000
  C   C1851     1.0  0.51378  0.70248  0.74317  1.0000
  C   C1852     1.0  0.79158  0.57466  0.73614  1.0000
  S   S246      1.0  0.54339  0.01579  0.67740  1.0000
  S   S247      1.0  0.50551  0.71015  0.77698  1.0000
  H   H1486     1.0  0.91200  0.99119  0.77818  1.0000
  S   S248      1.0  0.54578  0.64017  0.87798  1.0000
  H   H1487     1.0  0.54983  0.67008  0.75072  1.0000
  S   S249      1.0  0.90587  0.01256  0.83470  1.0000
  H   H1488     1.0  0.57871  0.71425  0.95112  1.0000
  H   H1489     1.0  0.76017  0.90576  0.70421  1.0000
  H   H1490     1.0  0.68299  0.86177  0.76126  1.0000
  H   H1491     1.0  0.92389  0.95368  0.92521  1.0000
  S   S250      1.0  0.84407  0.67564  0.95707  1.0000
  S   S251      1.0  0.81938  0.00396  0.84145  1.0000
  S   S252      1.0  0.77496  0.70215  0.95329  1.0000
  S   S253      1.0  0.53931  0.69027  0.65527  1.0000
  C   C1853     1.0  0.54419  0.67836  0.70862  1.0000
  H   H1492     1.0  0.72002  0.99971  0.65933  1.0000
  C   C1854     1.0  0.64243  0.76184  0.64920  1.0000
  C   C1855     1.0  0.65603  0.84618  0.69979  1.0000
  H   H1493     1.0  0.64225  0.91227  0.69152  1.0000
  C   C1856     1.0  0.70755  0.76939  0.64127  1.0000
  C   C1857     1.0  0.84058  0.01121  0.71667  1.0000
  C   C1858     1.0  0.56924  0.56946  0.90282  1.0000
  C   C1859     1.0  0.53698  0.68222  0.73566  1.0000
  H   H1494     1.0  0.82194  0.55016  0.76179  1.0000
  C   C1860     1.0  0.92121  0.89907  0.96812  1.0000
  C   C1861     1.0  0.49604  0.83266  0.65096  1.0000
  H   H1495     1.0  0.92233  0.93626  0.77913  1.0000
  H   H1496     1.0  0.62393  0.81351  0.69193  1.0000
  C   C1862     1.0  0.88941  0.01347  0.95636  1.0000
  C   C1863     1.0  0.52784  0.69407  0.68880  1.0000
  H   H1497     1.0  0.64879  0.82314  0.77358  1.0000
  H   H1498     1.0  0.84644  0.99561  0.70081  1.0000
  C   C1864     1.0  0.78790  0.86611  0.69679  1.0000
  Fe  Fe127     1.0  0.51507  0.62648  0.84534  1.0000
  C   C1865     1.0  0.93218  0.98042  0.71343  1.0000
  H   H1499     1.0  0.49408  0.64677  0.76840  1.0000
  P   P61       1.0  0.93708  0.00082  0.68290  1.0000
  H   H1500     1.0  0.75581  0.99189  0.95579  1.0000
  C   C1866     1.0  0.92259  0.99534  0.73662  1.0000
  C   C1867     1.0  0.65830  0.91580  0.67617  1.0000
  C   C1868     1.0  0.63398  0.81617  0.73362  1.0000
  H   H1501     1.0  0.80299  0.58797  0.67759  1.0000
  H   H1502     1.0  0.94643  0.93737  0.69673  1.0000
  P   P62       1.0  0.49349  0.56090  0.94602  1.0000
  C   C1869     1.0  0.82458  0.62031  0.65404  1.0000
  C   C1870     1.0  0.92772  0.67998  0.64718  1.0000
  C   C1871     1.0  0.67841  0.99975  0.68052  1.0000
  C   C1872     1.0  0.58920  0.75620  0.65097  1.0000
  C   C1873     1.0  0.66990  0.85180  0.74596  1.0000
  C   C1874     1.0  0.61736  0.71535  0.89342  1.0000
  H   H1503     1.0  0.50762  0.78064  0.69951  1.0000
  H   H1504     1.0  0.89989  0.57971  0.88141  1.0000
  C   C1875     1.0  0.49425  0.56217  0.64641  1.0000
  C   C1876     1.0  0.94887  0.54482  0.86907  1.0000
  C   C1877     1.0  0.50766  0.61362  0.64765  1.0000
  C   C1878     1.0  0.67262  0.86026  0.71927  1.0000
  C   C1879     1.0  0.50466  0.85793  0.66457  1.0000
  C   C1880     1.0  0.97548  0.00901  0.67886  1.0000
  P   P63       1.0  0.69962  0.88644  0.70975  1.0000
  H   H1505     1.0  0.54296  0.85322  0.78776  1.0000
  C   C1881     1.0  0.84035  0.56782  0.65640  1.0000
  C   C1882     1.0  0.91288  0.56081  0.95008  1.0000
  H   H1506     1.0  0.52076  0.87540  0.70108  1.0000
  H   H1507     1.0  0.57484  0.57584  0.88275  1.0000
  C   C1883     1.0  0.91454  0.65337  0.64110  1.0000
  C   C1884     1.0  0.68811  0.90581  0.67952  1.0000
  C   C1885     1.0  0.64914  0.93169  0.65347  1.0000
  C   C1886     1.0  0.69619  0.00303  0.65784  1.0000
  C   C1887     1.0  0.94172  0.63971  0.87169  1.0000
  C   C1888     1.0  0.64991  0.72116  0.93104  1.0000
  H   H1508     1.0  0.67225  0.72191  0.93862  1.0000
  H   H1509     1.0  0.62640  0.94048  0.65169  1.0000
  C   C1889     1.0  0.88652  0.62500  0.89095  1.0000
  Fe  Fe128     1.0  0.57554  0.99751  0.70812  1.0000
  H   H1510     1.0  0.97681  0.54279  0.90411  1.0000
  S   S254      1.0  0.85715  0.58770  0.94839  1.0000
  C   C1890     1.0  0.59742  0.71651  0.93802  1.0000
  H   H1511     1.0  0.56125  0.78885  0.92153  1.0000
  C   C1891     1.0  0.95461  0.60900  0.78085  1.0000
  H   H1512     1.0  0.49118  0.72573  0.68118  1.0000
  H   H1513     1.0  0.80783  0.87814  0.69429  1.0000
  C   C1892     1.0  0.95120  0.60782  0.80844  1.0000
  C   C1893     1.0  0.55463  0.55245  0.95434  1.0000
  H   H1514     1.0  0.88880  0.96008  0.67732  1.0000
  C   C1894     1.0  0.65062  0.82983  0.75304  1.0000
  C   C1895     1.0  0.51270  0.58441  0.63833  1.0000
  C   C1896     1.0  0.91965  0.97955  0.76034  1.0000
  H   H1515     1.0  0.49475  0.91529  0.82423  1.0000
  C   C1897     1.0  0.53196  0.56107  0.93633  1.0000
  H   H1516     1.0  0.94162  0.62733  0.81856  1.0000
  C   C1898     1.0  0.70965  0.79945  0.64853  1.0000
  C   C1899     1.0  0.51751  0.82727  0.70324  1.0000
  P   P64       1.0  0.95999  0.58093  0.85838  1.0000
  C   C1900     1.0  0.90089  0.96035  0.65875  1.0000
  C   C1901     1.0  0.96035  0.58175  0.82248  1.0000
  C   C1902     1.0  0.89631  0.58817  0.94994  1.0000
  H   H1517     1.0  0.72332  0.69776  0.66948  1.0000
  H   H1518     1.0  0.78898  0.55574  0.72312  1.0000
  H   H1519     1.0  0.80931  0.63877  0.65965  1.0000
  H   H1520     1.0  0.54285  0.00854  0.84613  1.0000
  H   H1521     1.0  0.51222  0.77671  0.90487  1.0000
  C   C1903     1.0  0.58437  0.55341  0.94687  1.0000
  H   H1522     1.0  0.89882  0.63598  0.95123  1.0000
  H   H1523     1.0  0.50296  0.87964  0.65492  1.0000
  H   H1524     1.0  0.97096  0.58551  0.74605  1.0000
  C   C1904     1.0  0.50758  0.80222  0.68979  1.0000
  C   C1905     1.0  0.70860  0.91200  0.65956  1.0000
  H   H1525     1.0  0.91694  0.88734  0.94980  1.0000
  C   C1906     1.0  0.96080  0.53162  0.89226  1.0000
  C   C1907     1.0  0.50453  0.93605  0.82896  1.0000
  H   H1526     1.0  0.49572  0.87552  0.75798  1.0000
  H   H1527     1.0  0.87387  0.92786  0.64073  1.0000
  C   C1908     1.0  0.97925  0.98233  0.79941  1.0000
  C   C1909     1.0  0.98095  0.01325  0.79710  1.0000
  H   H1528     1.0  0.49808  0.53947  0.63924  1.0000
  C   C1910     1.0  0.85074  0.53144  0.81012  1.0000
  C   C1911     1.0  0.86365  0.57263  0.63899  1.0000
  C   C1912     1.0  0.84130  0.02425  0.76322  1.0000
  H   H1529     1.0  0.98513  0.53890  0.77011  1.0000
  C   C1913     1.0  0.84804  0.62528  0.63687  1.0000
  S   S255      1.0  0.51725  0.94112  0.96568  1.0000
  C   C1914     1.0  0.89225  0.94205  0.63801  1.0000
  H   H1530     1.0  0.73304  0.83967  0.64306  1.0000
  H   H1531     1.0  0.49132  0.74116  0.95859  1.0000
  C   C1915     1.0  0.49939  0.85185  0.91270  1.0000
  H   H1532     1.0  0.98305  0.61082  0.90557  1.0000
  S   S256      1.0  0.49132  0.98319  0.71138  1.0000
  H   H1533     1.0  0.82979  0.53087  0.82044  1.0000
  C   C1916     1.0  0.89250  0.02219  0.90906  1.0000
  H   H1534     1.0  0.77045  0.54553  0.96896  1.0000
  C   C1917     1.0  0.49392  0.82237  0.90564  1.0000
  H   H1535     1.0  0.65668  0.77682  0.96436  1.0000
  H   H1536     1.0  0.58233  0.76587  0.96619  1.0000
  C   C1918     1.0  0.73137  0.81651  0.63729  1.0000
  C   C1919     1.0  0.58404  0.78348  0.63790  1.0000
  C   C1920     1.0  0.69931  0.92786  0.63683  1.0000
