data_image0
_chemical_formula_structural       Fe2S2FeHFeCS2FeSFeSHFe2S2FeS2FeS2FeSHS3FeS2FeS2FeSFeS3HC3HC10H4C6H2C2HC12H4CH2C6H4C2H2C3HC3HC6PC8HPC4HC2HCH9CHC2H2PC2H5C6H2CHCH2CHCHC5PC4SC4HC8H4CH4SCH7C6PC18H20C4PC8H3C8HCH10CH6PCH2C5HC2H3C2SHC2HCH2C4HPC2HCH2C3H2CH2C3H3CH5CFeH3C7SH3CHC3H2CH2CHCSH2CHC4H2SH2C3HC7HCH5C3H2CH2C2H4CHC7FeS2FeCH2SCHC3SC3H2FeS2FeS2FeSFeS3C3HCH3CH3C3SCH2C6HSH2C6HCFeHCHC4H3C4HC4HCH2C2H3C2HC2HCHC3SHCH3C2HCH3CHCHC2SC4HCHC2H2C2HC2HC3H2C4HCH2C2HC8H2FeHCHC2HC3H2PHC2H3CH2CH2C3HPC4FeC3HCH2C8SH3C2H3CH6SHC6PC4HC13H5CH10C5HSHSPCH2C3SCH3CH3SC2SH2CHFeCFeH2S2CHCFeHSCHCSHCSFeC2HCHCHCH5C2H2C2H2CHCPHC3HPC13H2CHCHCH2FeH3CH7CSHCH2C3HCH2C2H2C4HC3HSC4PCH3C2HP2C4HC3HCH2CHCHC3H2C5HCHC2HC3H6CHCHCHCFeHC2H3CHCH2CH5C2HCHC2HC2H3C3HC5FeCS2H3CHC2Fe2S2FeHFeCS2FeSFeSHFe2S2FeS2FeS2FeSFeS3FeS2FeS2FeSFeS3HC2H3CH2C6H4C6H4C5H2C6H5CHC6H5C3HCHC4H5C2HCHCHC3HC6PC2H2C3H6CH2CHCHC2HC2H2C6PC18H21C5PC20H19PC4H2C2H2C2H2C2H2C11PC18H17SH3C5H5CH2CH2CH5CHCHC5HPSCH2CPCH3SCHC2HCHCHCH4C5HC4H2CHC5H2CHCS2C3HSHCSC2H4CH3CSHC2H2C2HC3H3CHC2HC2HFe2S2FeHFeHSCSCHCSH2SH2FeS2FeS2FeCFeS3H4SH3C9H2C2HC4H3C2HC4H3C5H4C3H2CHCSH2SC3HSCH2CH2C3HCHC6H3C2HC3SH3C2PH4C5HCH2C2PCHC2HC13H2SHCHCSH5C6PC14HC3H12CH7C8HCHC3H3C2H6CHC2HC3H4C3HCSH3C5HC2H4CSPHC3HCH2CH6CFe2HS2C3FeHSFeSCSC3H2C2HC4SH2CHSFeHCSC3FeHSH3CH2PC13SC7HCH7CHCH3CHC2HCHSHPC3HC4H6CHC4HCH3CHCHCH2C3HCH3C5PCH2CHCHC7H3C2H2C2HCHSH4CHC2H5C4HC3PH2C3HC3H2CHC2HC2PHCH3CH4CH2CHCH2CH4C4H2CHCFeH2C2HC2HC4HC2FeCH2C2SH3C2HC2HC5HCH3CH3C2PC2H4C2HCH3C3SH2C2H6CHC2H2C4HC2H2CSC8H3C3H2C2H3CH2C2HCHC4H2PC2H5C11HFeHC3HCH4CH8CHC2HFeCHCH2C5HC2HSCHCHCH2C2HCFeS2FeS2FeSFeS3C2FeS3FeHFeSPSFeSHFeSHFeSFeSFeS2Fe2HCSH2CHCHCH2C10H4C6H4C6H4C6H4C2HPC2HSH3CHCHCH3CHC3HC4HCH2C4HC2HC2HCH2CH2CH2SC3HCSH2C6HCH2CH2C2HCH7C6PC18H11CHCH6CHCHCHCH2CH2C4HC2HCH2C2HPHC3H2C2H2C2HC2H2C4H2C3SCHC2HC5H2SHC2H3C2H2C2HCHCHCHCH3CSPHCPC3HC10H2CHCH3C2HC2H9C2HC3HCH3C3H2SH3SCSCH2CHC2HC4H2CHCHC3H3C2FeSHFeS2FeHFeS3FeS2FeS2FeSFeS3CHFeS2Fe3HS2FeS2FeC2HS2C4H3SPCHCHC6H4C2H2SC3HC6H4C6HCH2C6H2C2HCHC2HCFeH4C4H2C2HC2SHC4H4C2H2CH4C2PH3CHC2H3C7H2CH4C3SC2HC3H2C6PC15H17CHC3H2CSCH2C5PC9H2C3SC2H2CHCH13C2HC2HC3HC3H2CH5SCSFeC2H3CPHCSCH2CH3C2HCH2CHCH2CHCH2CHC6H3CHCHC4H2SC3PC2H3C3HCHSCHCH3C4HCH4CHC3HC2HC5SCHC2PH2C5H2CPHC2H2C7H2C2HSC2H2CH3C4PHC3H8C3H2C5H2C4HFeH2C2HC2H5C3HCH3CHCH2CHCH2CH2CH2FeC3H2CH3CH2CHCHCHC2H2CHCFeS2FeS2FeSFeS3PSFeS3FeHFeSCSFeSCFeSHFeSFeSFeS2Fe2H2SH3C2HC2PCHCSC6H4C6H4C6H4C6H4C2HC3HC2H2PHC2HC2H2C6PC3HC6H5CH2CH5C4H3CH3C7PC2SHCH2PC7H5CH2C3H7C10HC6H5C2HC2H2C2HCHCHC2H6C2HC7HC2HC2HCH2CH2C2H4CH2C4H4C4H2C3HSC3HCH5CHC3HCH2C4HCH3C2HCSH2SCH2CH4CH3CHC4HC6HSCFeSHFeS2FeHFeS3FeS2FeS2FeSFeS3FeHFeS2Fe3HS2FeS2HFe2S3CH3CH3CHC2HC6H4C3HC2HCHC6H4C6H4C6H3C6PC9HC8H6CH4CHCH9C2HCHCHC2H4PH3CHC2SHCHCHPCHC7SC4PHCH2CHCH5CHC4PC6HC6HCHCHCH2CH3CH6CHCH2SHSCH2C3HC2PH2CH2C2H2SHCH2CHC4H2C4HC5H2C3HCHC2HC2H3C4H2C2H3C3HCH2C5H2C5H2C2H2C3HCHCH2CHCHCHC2HCHC4HCHC2H2CH2C2H4S2HC5H3CH2C3H3CH2C2HCHC3HCH2C3SCHC3SCHFeSCFeSCSFeSFeSCFe2S2FeS2FeS2FeSFeS3FeS2FeS2FeSFeCSH5CH2CFeHC7H4C6H4C4HC2HC6H5C6H5CHCH2C2H3CH2CH4C3HC2H6C6PC14HC3H9FeH8CHCSHCH2C2HCPH7C4HCH2CHCSCHCHCHCHC7PC18H21C6PC4PHC5HC6H3CH5C2HSPH5C6PC14H5CH10C2HC2HC2SHC2HCHC3SC3HCHC4HCHC3H6SC4H3C5HC6H2CPHC2SH3C5HC2SCHCFeS2Fe2HFeHS2C2HSH3FeS2FeS2FeSFeCS2C2HPC3H2C6HCH2CHC4H2C6H3C4HCH3C6H3SC6PHCHSCSH4C3H2CHCFeH4SH4C3H2CSHC8H2C3HC2HCHCHC3HC3HC2H3CHC5H2CHC2HC2H2PH7CSC4H3CHC7PC3H2C2FeSHC3HCH11C2H2CH2C2HCFeC3H3C3H3C2HC3HCHSC2HSC3H2C2Fe2CS2C3FeS2FeC2S2HCH2CHCSHC3HC10H7C3HCH3CPH2SH2SH5C6PC2H2CH4C3HCHCHCH5CH3C2HPH2C3HC3H3C3SCH2C2H2C3H2C7HC3H2CH3C4H4C6HC4HCPC6H5CH3CH3CH2FeCH3CHCSHC3H2C2H3C3H2SCHC4PC6HCH3CHC4H2CH2CH2C3HC2FeHCFeS2FeSFeSFeSFeSCFe2S2FeS2FeS2FeSFeS3FeS2FeS2FeSFeCSCH2CHC4H2C7H4C6H4C4H4C6H5C6H4PSH4C4HC3HC2HC3HCH2C3H3C3H2SHC3HCHC4HC2HC2HCH2C2SCHCHSH3CPC2H5C5H3CH6C2HCSC2PC8H2CHCH4C3H2C3PC16H14CHCH2C4HPHC3H2C2H2CHC3HC2SH3C11PC8HC10H9CHCH7C7PC18H21C2HCHC2H2CHCSHCHC3H3CHC4H4CHC2SC3H2CSHC2HCSCHC3H3CHSHC3HSCHSHFeS2Fe2CFeCS2H2CS2CHFeS2FeS2FeSFeS3HC3H4CHC4H5C6H2C7HPC6H4C5H3CH2C3HCHC4HPC17HC3FeHCH9CSCHSHSH2C3H2CPHCH2CH3CH2SCH2CH3C10HC2HCHC2HCH2CH3C2H2C3HCH3C6HSC3HCH4CH2CHC3H4CH2CHC2SH2CHCHC2H2C2PC2H2C10HCHC3H2CHCH2CH2CHC2HCHFe2HS2CHSFeCSFeSCS2H6C2SCHFeH2CH2CHC6HC2H2FeHCHC7PC8H2C8H6C2H3C2H10C2HCH2CHC3HCHCHC3HC3SHC4HSC3H2CH4CH2CH2CHC2HCHCH2C4HC6HPC8HSPH2CHC2HCH3FeH6C3H5CHC5HC4PCHCH3C2PHCHC7H2CHCSC3HCH2C4PCHSC2HCH3CHCHSC2H2C2HCHFeCH3CSHCHC5HCHCHC2H4C5H7C3PC4SC2HCHCHC7HC2H14C2H4CH4CHC5PHC2H3C2H2C8FeHCHCH2C2HC4HSPH2C4HC2PSC7H8C5HCH2CH3C3H4SH3CHC3HC2HC2FeS2FeS2FeHFeS4FeS2FeSFeS2HCFeS2Fe3HS2FeH2FeCFeS2CH2C5H3CHC6H4C6H4C6H4C6H5CSHC5H4CH2CH2CHCHC7SHCHC3SC7HCH2CHC2H4CHCHCHCH2C2H4CH2CSCH2C3H2CH2C3HCPH2C2HCHC3H3C3HCH3CHC2HCH2CH2CH3CHC2HCH4C3PC3HC16HSHPHCH12C8PC16PHCHCHC4H3C4HC2H3CSCH2CPH3CH3C2HCHC2H3CHC2HC2FeS2FeSCFeSFeS3FeS2FeSCFeSFeS3C2FeS2Fe3CS2FeS2Fe3CS2CH3C2H2C8H4CH2SHC3PC6H4C2HC4H3C6H3CHCHC2HC3PC20H17C6PC3H2C4H2C7H8CHCH2CH6CHPC11HC4H8CH3C2SC4SCH4CH3CHCHC2PHC6H2C4H4C5HCHC2HC2SHSH2CSC2HC2HC2HC2HCH4CH2SCH2CH3C2H3CHSH4CHCHC3H3C2H3SHC4HCHCHSH2CH4CH2C4H2CH2CHC2H2CH2CHSC2HC4HC2H4CH2C3HCHC2SHCHC3H2C3HCHPC2H2C5HFeCHCH2C3H2CHC2H5C3H2C3PC8SHC3H2C3H2CH5C4H3FeCHCH2C5H3CH2CH3C4HCSHCH2C6HCH2C2H4PH3CHC5HC3HCHC2HC2H2CHCHC2HC2HPC2SC3HC2FeS2FeS2FeSFeS3HCSCFeSFeSHCSFeS2Fe3CS2FeC2FeHFeHSC6H7C6H4C6H4C6HFeH2C6H4S2CSC3HC3HC3HC10PC4SHC10HCH6C2H10C3H4C2HC2H2CH2CH4CH2CHC4PCHC7HCH3CH4CH2SCH2C2PC10HC3HPHCSPH3C2H2CH3CH5C9HCHCHSC6HCHCHSC2H4C2HCH3CHC4H2CH2SC2H5SCH5CS2H2C2H2C3H2FeS2FeSCFeSFeS3FeS2FeSHFeSFeS3CHFeS2Fe3CS2FeS2Fe3HS2HC2HCH2CH2C6H4C2HCSCHCHC6H4C6H4C6H4C14H12C4PC17H18C5H3C8HCSCH5C3PHSCPH2C3SHPHCHCH5CH2C2HCHC3HPCHC3H3CHC3H2CHPC2HC4HC3H3CHC4HC4HCSHC2PHCH3C3H2C3HC2PHC5HCSHCH2C2HCH2CHC2HCHCHCHCHCH2C2H3C2H2CHCHCHC4SHC3HC4HCH3C4HSC4H2C3H6CHCH2CH5C4HC3H3CH4
_chemical_formula_sum              "Fe256 S512 H3072 C3840 P128"
_cell_length_a       72.1755
_cell_length_b       49.454
_cell_length_c       63.6382
_cell_angle_alpha    89.7009
_cell_angle_beta     88.6808
_cell_angle_gamma    88.4518

_space_group_name_H-M_alt    "P 1"
_space_group_IT_number       1

loop_
  _space_group_symop_operation_xyz
  'x, y, z'

loop_
  _atom_site_type_symbol
  _atom_site_label
  _atom_site_symmetry_multiplicity
  _atom_site_fract_x
  _atom_site_fract_y
  _atom_site_fract_z
  _atom_site_occupancy
  Fe  Fe1       1.0  0.02076  0.17846  0.08369  1.0000
  Fe  Fe2       1.0  0.05827  0.17867  0.10558  1.0000
  S   S1        1.0  0.04484  0.17420  0.13719  1.0000
  S   S2        1.0  0.08972  0.18100  0.10248  1.0000
  Fe  Fe3       1.0  0.02781  0.14199  0.12299  1.0000
  H   H1        1.0  0.09955  0.23311  0.07490  1.0000
  Fe  Fe4       1.0  0.02389  0.20496  0.12629  1.0000
  C   C1        1.0  0.02564  0.28138  0.12569  1.0000
  S   S3        1.0  0.04213  0.14532  0.09126  1.0000
  S   S4        1.0  0.03843  0.21195  0.09523  1.0000
  Fe  Fe5       1.0  0.02985  0.44947  0.17541  1.0000
  S   S5        1.0  0.04697  0.43677  0.20313  1.0000
  Fe  Fe6       1.0  0.03032  0.39096  0.15958  1.0000
  S   S6        1.0  0.04771  0.37507  0.18594  1.0000
  H   H2        1.0  0.16423  0.32501  0.05093  1.0000
  Fe  Fe7       1.0  0.02878  0.40059  0.20690  1.0000
  Fe  Fe8       1.0  0.06425  0.41229  0.18012  1.0000
  S   S7        1.0  0.09564  0.41347  0.18154  1.0000
  S   S8        1.0  0.04830  0.42671  0.15230  1.0000
  Fe  Fe9       1.0  0.17600  0.42374  0.09905  1.0000
  S   S9        1.0  0.19343  0.43356  0.12675  1.0000
  S   S10       1.0  0.14458  0.42235  0.09767  1.0000
  Fe  Fe10      1.0  0.20997  0.41437  0.06906  1.0000
  S   S11       1.0  0.22976  0.42395  0.09472  1.0000
  S   S12       1.0  0.21522  0.40387  0.03416  1.0000
  Fe  Fe11      1.0  0.21139  0.39801  0.11544  1.0000
  S   S13       1.0  0.22244  0.36613  0.13846  1.0000
  H   H3        1.0  0.07682  0.47017  0.18226  1.0000
  S   S14       1.0  0.20218  0.00278  0.11366  1.0000
  S   S15       1.0  0.19281  0.38679  0.08936  1.0000
  S   S16       1.0  0.19147  0.45072  0.07673  1.0000
  Fe  Fe12      1.0  0.17115  0.17653  0.18156  1.0000
  S   S17       1.0  0.18847  0.16999  0.15238  1.0000
  S   S18       1.0  0.14023  0.16852  0.18310  1.0000
  Fe  Fe13      1.0  0.20493  0.19331  0.20776  1.0000
  S   S19       1.0  0.22449  0.18735  0.17982  1.0000
  S   S20       1.0  0.20999  0.20588  0.24194  1.0000
  Fe  Fe14      1.0  0.20192  0.20893  0.16145  1.0000
  S   S21       1.0  0.20285  0.24112  0.13563  1.0000
  Fe  Fe15      1.0  0.20894  0.14885  0.17333  1.0000
  S   S22       1.0  0.22241  0.10639  0.16881  1.0000
  S   S23       1.0  0.18329  0.21647  0.18958  1.0000
  S   S24       1.0  0.19090  0.15381  0.20241  1.0000
  H   H4        1.0  0.22199  0.34278  0.04846  1.0000
  C   C2        1.0  0.22746  0.22473  0.25428  1.0000
  C   C3        1.0  0.24365  0.23255  0.24366  1.0000
  C   C4        1.0  0.02071  0.20207  0.25382  1.0000
  H   H5        1.0  0.06742  0.23287  0.06227  1.0000
  C   C5        1.0  0.01320  0.31922  0.15590  1.0000
  C   C6        1.0  0.22504  0.23169  0.27564  1.0000
  C   C7        1.0  0.20646  0.16377  0.29260  1.0000
  C   C8        1.0  0.07345  0.98640  0.16099  1.0000
  C   C9        1.0  0.20734  0.03089  0.13006  1.0000
  C   C10       1.0  0.21910  0.02860  0.14723  1.0000
  C   C11       1.0  0.22333  0.05176  0.15904  1.0000
  C   C12       1.0  0.21577  0.07754  0.15406  1.0000
  C   C13       1.0  0.20384  0.07974  0.13709  1.0000
  C   C14       1.0  0.19962  0.05664  0.12525  1.0000
  H   H6        1.0  0.22523  0.00908  0.15115  1.0000
  H   H7        1.0  0.23273  0.04971  0.17198  1.0000
  H   H8        1.0  0.19840  0.09943  0.13265  1.0000
  H   H9        1.0  0.19059  0.05885  0.11199  1.0000
  C   C15       1.0  0.20698  0.27620  0.13792  1.0000
  C   C16       1.0  0.20195  0.29348  0.12128  1.0000
  C   C17       1.0  0.20607  0.32114  0.12159  1.0000
  C   C18       1.0  0.21558  0.33184  0.13837  1.0000
  C   C19       1.0  0.22042  0.31465  0.15516  1.0000
  C   C20       1.0  0.21598  0.28701  0.15509  1.0000
  H   H10       1.0  0.19510  0.28528  0.10790  1.0000
  H   H11       1.0  0.20252  0.33397  0.10846  1.0000
  C   C21       1.0  0.24933  0.17339  0.30957  1.0000
  C   C22       1.0  0.23868  0.24583  0.28635  1.0000
  H   H12       1.0  0.16338  0.44699  0.17748  1.0000
  C   C23       1.0  0.23290  0.38382  0.02113  1.0000
  C   C24       1.0  0.17160  0.40392  0.21829  1.0000
  C   C25       1.0  0.24267  0.21875  0.10619  1.0000
  C   C26       1.0  0.08271  0.10192  0.09640  1.0000
  C   C27       1.0  0.15715  0.99466  0.13424  1.0000
  C   C28       1.0  0.02824  0.05442  0.16237  1.0000
  C   C29       1.0  0.13068  0.42160  0.12089  1.0000
  C   C30       1.0  0.13773  0.42875  0.14030  1.0000
  C   C31       1.0  0.12664  0.42675  0.15865  1.0000
  C   C32       1.0  0.10842  0.41783  0.15781  1.0000
  C   C33       1.0  0.10109  0.41171  0.13831  1.0000
  C   C34       1.0  0.11220  0.41357  0.11990  1.0000
  H   H13       1.0  0.15174  0.43575  0.14116  1.0000
  H   H14       1.0  0.13208  0.43238  0.17355  1.0000
  H   H15       1.0  0.08699  0.40503  0.13749  1.0000
  H   H16       1.0  0.10651  0.40842  0.10490  1.0000
  C   C35       1.0  0.02762  0.02593  0.16140  1.0000
  H   H17       1.0  0.09763  0.09770  0.06695  1.0000
  H   H18       1.0  0.21251  0.22611  0.28403  1.0000
  C   C36       1.0  0.10373  0.17605  0.12484  1.0000
  C   C37       1.0  0.09595  0.17303  0.14502  1.0000
  C   C38       1.0  0.10732  0.17016  0.16255  1.0000
  C   C39       1.0  0.12666  0.17035  0.16023  1.0000
  C   C40       1.0  0.13456  0.17258  0.14001  1.0000
  C   C41       1.0  0.12314  0.17559  0.12242  1.0000
  H   H19       1.0  0.08116  0.17318  0.14726  1.0000
  H   H20       1.0  0.10110  0.16758  0.17798  1.0000
  H   H21       1.0  0.14945  0.17247  0.13793  1.0000
  H   H22       1.0  0.12937  0.17767  0.10690  1.0000
  C   C42       1.0  0.02683  0.07054  0.14410  1.0000
  C   C43       1.0  0.21253  0.13860  0.30051  1.0000
  H   H23       1.0  0.01757  0.37112  0.28428  1.0000
  H   H24       1.0  0.03365  0.33401  0.22883  1.0000
  C   C44       1.0  0.02488  0.05770  0.12477  1.0000
  C   C45       1.0  0.02177  0.32829  0.13737  1.0000
  C   C46       1.0  0.01991  0.29120  0.29845  1.0000
  H   H25       1.0  0.04595  0.35223  0.04172  1.0000
  C   C47       1.0  0.07485  0.08846  0.11359  1.0000
  C   C48       1.0  0.25519  0.07836  0.30382  1.0000
  C   C49       1.0  0.08988  0.99693  0.12831  1.0000
  H   H26       1.0  0.24328  0.39539  0.17088  1.0000
  C   C50       1.0  0.15036  0.36311  0.14657  1.0000
  C   C51       1.0  0.16648  0.37795  0.14563  1.0000
  C   C52       1.0  0.17939  0.37548  0.16159  1.0000
  C   C53       1.0  0.17660  0.35717  0.17809  1.0000
  C   C54       1.0  0.16064  0.34168  0.17880  1.0000
  C   C55       1.0  0.14746  0.34491  0.16300  1.0000
  P   P1        1.0  0.15720  0.31637  0.19880  1.0000
  C   C56       1.0  0.13802  0.32641  0.21618  1.0000
  C   C57       1.0  0.15244  0.28572  0.18489  1.0000
  C   C58       1.0  0.14168  0.26554  0.19424  1.0000
  C   C59       1.0  0.13878  0.24154  0.18346  1.0000
  C   C60       1.0  0.14626  0.23779  0.16322  1.0000
  C   C61       1.0  0.15711  0.25757  0.15392  1.0000
  C   C62       1.0  0.16044  0.28130  0.16478  1.0000
  C   C63       1.0  0.13513  0.31252  0.23524  1.0000
  H   H27       1.0  0.19717  0.45048  0.17855  1.0000
  P   P2        1.0  0.23544  0.12584  0.29338  1.0000
  C   C64       1.0  0.12594  0.34815  0.21103  1.0000
  C   C65       1.0  0.17787  0.31006  0.21385  1.0000
  C   C66       1.0  0.18117  0.32557  0.23174  1.0000
  C   C67       1.0  0.19637  0.31931  0.24435  1.0000
  H   H28       1.0  0.06170  0.03007  0.07109  1.0000
  C   C68       1.0  0.20537  0.28236  0.22119  1.0000
  C   C69       1.0  0.19036  0.28880  0.20840  1.0000
  H   H29       1.0  0.14020  0.36569  0.13441  1.0000
  C   C70       1.0  0.05767  0.01008  0.07608  1.0000
  H   H30       1.0  0.19172  0.38746  0.16100  1.0000
  H   H31       1.0  0.18702  0.35487  0.18995  1.0000
  H   H32       1.0  0.13506  0.33305  0.16325  1.0000
  H   H33       1.0  0.13587  0.26786  0.20992  1.0000
  H   H34       1.0  0.13106  0.22552  0.19084  1.0000
  H   H35       1.0  0.14425  0.21916  0.15501  1.0000
  H   H36       1.0  0.16359  0.25392  0.13863  1.0000
  H   H37       1.0  0.16969  0.29578  0.15762  1.0000
  H   H38       1.0  0.14444  0.29605  0.23976  1.0000
  C   C71       1.0  0.14267  0.00079  0.08027  1.0000
  H   H39       1.0  0.17180  0.34210  0.23620  1.0000
  C   C72       1.0  0.01055  0.27395  0.26488  1.0000
  C   C73       1.0  0.19991  0.12249  0.31167  1.0000
  H   H40       1.0  0.21454  0.26526  0.21732  1.0000
  H   H41       1.0  0.18844  0.27670  0.19455  1.0000
  P   P3        1.0  0.22522  0.42547  0.20628  1.0000
  C   C74       1.0  0.22897  0.36918  0.20496  1.0000
  C   C75       1.0  0.02317  0.15475  0.24409  1.0000
  H   H42       1.0  0.16879  0.39140  0.13247  1.0000
  H   H43       1.0  0.12787  0.35991  0.19683  1.0000
  H   H44       1.0  0.19874  0.33101  0.25833  1.0000
  H   H45       1.0  0.16208  0.16520  0.31182  1.0000
  H   H46       1.0  0.18683  0.43455  0.00527  1.0000
  C   C76       1.0  0.23825  0.23647  0.07105  1.0000
  C   C77       1.0  0.20038  0.42256  0.20474  1.0000
  C   C78       1.0  0.19030  0.43738  0.18975  1.0000
  C   C79       1.0  0.17103  0.43539  0.18905  1.0000
  C   C80       1.0  0.16170  0.41861  0.20328  1.0000
  C   C81       1.0  0.03137  0.30009  0.20816  1.0000
  H   H47       1.0  0.00933  0.27035  0.32579  1.0000
  H   H48       1.0  0.23073  0.32557  0.20484  1.0000
  C   C82       1.0  0.17610  0.15773  0.30861  1.0000
  H   H49       1.0  0.03065  0.26698  0.11404  1.0000
  C   C83       1.0  0.23045  0.45064  0.22563  1.0000
  H   H50       1.0  0.23178  0.33522  0.09011  1.0000
  H   H51       1.0  0.02355  0.33617  0.01582  1.0000
  C   C84       1.0  0.23401  0.46321  0.17506  1.0000
  H   H52       1.0  0.03279  0.01177  0.05799  1.0000
  C   C85       1.0  0.23229  0.12200  0.22928  1.0000
  H   H53       1.0  0.24306  0.46174  0.00017  1.0000
  C   C86       1.0  0.13784  0.10048  0.09930  1.0000
  C   C87       1.0  0.11097  0.19671  0.22932  1.0000
  C   C88       1.0  0.07661  0.21751  0.24372  1.0000
  C   C89       1.0  0.08123  0.21874  0.22219  1.0000
  C   C90       1.0  0.09834  0.20768  0.21506  1.0000
  P   P4        1.0  0.06430  0.23132  0.20376  1.0000
  C   C91       1.0  0.04896  0.20349  0.19948  1.0000
  C   C92       1.0  0.05397  0.26322  0.21251  1.0000
  C   C93       1.0  0.03887  0.27491  0.20195  1.0000
  C   C94       1.0  0.24603  0.33657  0.08472  1.0000
  S   S25       1.0  0.02397  0.97727  0.13981  1.0000
  C   C95       1.0  0.05496  0.30359  0.23422  1.0000
  C   C96       1.0  0.06232  0.27824  0.22830  1.0000
  C   C97       1.0  0.02965  0.20720  0.19814  1.0000
  C   C98       1.0  0.10955  0.99727  0.08737  1.0000
  H   H54       1.0  0.25370  0.45848  0.12610  1.0000
  C   C99       1.0  0.04579  0.15607  0.19027  1.0000
  C   C100      1.0  0.05688  0.17761  0.19565  1.0000
  C   C101      1.0  0.07534  0.23934  0.17886  1.0000
  C   C102      1.0  0.06760  0.23115  0.15997  1.0000
  C   C103      1.0  0.07691  0.23557  0.14082  1.0000
  C   C104      1.0  0.09376  0.24876  0.14037  1.0000
  C   C105      1.0  0.10078  0.25893  0.15891  1.0000
  C   C106      1.0  0.09164  0.25420  0.17816  1.0000
  H   H55       1.0  0.12416  0.18818  0.22363  1.0000
  H   H56       1.0  0.06323  0.22506  0.24949  1.0000
  H   H57       1.0  0.10188  0.20701  0.19848  1.0000
  H   H58       1.0  0.03323  0.26503  0.18848  1.0000
  C   C107      1.0  0.12628  0.01060  0.09000  1.0000
  H   H59       1.0  0.22577  0.07303  0.27649  1.0000
  H   H60       1.0  0.06137  0.31512  0.24638  1.0000
  H   H61       1.0  0.07480  0.27093  0.23575  1.0000
  H   H62       1.0  0.25112  0.38061  0.04735  1.0000
  S   S26       1.0  0.02268  0.38692  0.24101  1.0000
  C   C108      1.0  0.01870  0.18573  0.19211  1.0000
  H   H63       1.0  0.05201  0.13639  0.18673  1.0000
  H   H64       1.0  0.07171  0.17416  0.19617  1.0000
  H   H65       1.0  0.05446  0.22119  0.15996  1.0000
  H   H66       1.0  0.07121  0.22832  0.12634  1.0000
  H   H67       1.0  0.10120  0.25133  0.12561  1.0000
  H   H68       1.0  0.11333  0.27039  0.15835  1.0000
  H   H69       1.0  0.09737  0.26185  0.19246  1.0000
  C   C109      1.0  0.07465  0.38473  0.06232  1.0000
  C   C110      1.0  0.06314  0.40127  0.07504  1.0000
  C   C111      1.0  0.06061  0.39503  0.09632  1.0000
  C   C112      1.0  0.06976  0.37250  0.10501  1.0000
  C   C113      1.0  0.08163  0.35603  0.09243  1.0000
  C   C114      1.0  0.08369  0.36201  0.07092  1.0000
  P   P5        1.0  0.09336  0.32650  0.10326  1.0000
  C   C115      1.0  0.08678  0.32354  0.13069  1.0000
  C   C116      1.0  0.08575  0.29721  0.08914  1.0000
  C   C117      1.0  0.06757  0.29687  0.08171  1.0000
  C   C118      1.0  0.06100  0.27385  0.07198  1.0000
  C   C119      1.0  0.07257  0.25093  0.06950  1.0000
  C   C120      1.0  0.09074  0.25114  0.07656  1.0000
  C   C121      1.0  0.09740  0.27426  0.08611  1.0000
  C   C122      1.0  0.07221  0.30699  0.13710  1.0000
  C   C123      1.0  0.06642  0.30616  0.15819  1.0000
  C   C124      1.0  0.07529  0.32157  0.17308  1.0000
  C   C125      1.0  0.08969  0.33835  0.16679  1.0000
  C   C126      1.0  0.09540  0.33941  0.14566  1.0000
  C   C127      1.0  0.11832  0.32921  0.10186  1.0000
  C   C128      1.0  0.12673  0.35027  0.09058  1.0000
  C   C129      1.0  0.14604  0.35163  0.08929  1.0000
  C   C130      1.0  0.15710  0.33227  0.09942  1.0000
  C   C131      1.0  0.14891  0.31168  0.11112  1.0000
  C   C132      1.0  0.12959  0.31035  0.11262  1.0000
  H   H70       1.0  0.07652  0.38949  0.04578  1.0000
  H   H71       1.0  0.05601  0.41878  0.06841  1.0000
  H   H72       1.0  0.05134  0.40743  0.10614  1.0000
  H   H73       1.0  0.06723  0.36802  0.12149  1.0000
  H   H74       1.0  0.09242  0.34917  0.06084  1.0000
  H   H75       1.0  0.05837  0.31428  0.08372  1.0000
  H   H76       1.0  0.04685  0.27360  0.06661  1.0000
  H   H77       1.0  0.11151  0.27374  0.09131  1.0000
  H   H78       1.0  0.06518  0.29477  0.12592  1.0000
  H   H79       1.0  0.05492  0.29370  0.16286  1.0000
  H   H80       1.0  0.07061  0.32113  0.18937  1.0000
  H   H81       1.0  0.09595  0.35134  0.17814  1.0000
  H   H82       1.0  0.10613  0.35322  0.14093  1.0000
  H   H83       1.0  0.11863  0.36602  0.08301  1.0000
  H   H84       1.0  0.15242  0.36802  0.08064  1.0000
  H   H85       1.0  0.17202  0.33346  0.09839  1.0000
  H   H86       1.0  0.15762  0.29693  0.11910  1.0000
  H   H87       1.0  0.12345  0.29451  0.12207  1.0000
  H   H88       1.0  0.12672  0.02816  0.09998  1.0000
  H   H89       1.0  0.25096  0.37068  0.10448  1.0000
  C   C133      1.0  0.16301  0.12070  0.11745  1.0000
  C   C134      1.0  0.15884  0.10536  0.13538  1.0000
  C   C135      1.0  0.14424  0.08717  0.13528  1.0000
  C   C136      1.0  0.13364  0.08505  0.11718  1.0000
  P   P6        1.0  0.13834  0.06747  0.15833  1.0000
  C   C137      1.0  0.14451  0.03206  0.15513  1.0000
  C   C138      1.0  0.15158  0.07855  0.18025  1.0000
  C   C139      1.0  0.14388  0.09644  0.19533  1.0000
  C   C140      1.0  0.15440  0.10439  0.21231  1.0000
  C   C141      1.0  0.17264  0.09460  0.21431  1.0000
  C   C142      1.0  0.18052  0.07732  0.19908  1.0000
  C   C143      1.0  0.17005  0.06930  0.18213  1.0000
  C   C144      1.0  0.14334  0.01466  0.17261  1.0000
  H   H90       1.0  0.16301  0.98691  0.11955  1.0000
  H   H91       1.0  0.02379  0.06971  0.11058  1.0000
  H   H92       1.0  0.03695  0.35409  0.07969  1.0000
  C   C145      1.0  0.15192  0.02202  0.13604  1.0000
  C   C146      1.0  0.11374  0.07297  0.16331  1.0000
  C   C147      1.0  0.10214  0.05166  0.16911  1.0000
  C   C148      1.0  0.08311  0.05658  0.17252  1.0000
  C   C149      1.0  0.07549  0.08260  0.16990  1.0000
  C   C150      1.0  0.08688  0.10379  0.16392  1.0000
  C   C151      1.0  0.10590  0.09900  0.16059  1.0000
  C   C152      1.0  0.25358  0.36564  0.23823  1.0000
  H   H93       1.0  0.08569  0.20585  0.27461  1.0000
  C   C153      1.0  0.23486  0.43579  0.18108  1.0000
  H   H94       1.0  0.16699  0.10802  0.14925  1.0000
  H   H95       1.0  0.12194  0.07181  0.11706  1.0000
  H   H96       1.0  0.12994  0.10471  0.19388  1.0000
  H   H97       1.0  0.14856  0.11873  0.22361  1.0000
  H   H98       1.0  0.18090  0.10119  0.22725  1.0000
  H   H99       1.0  0.19488  0.07059  0.20007  1.0000
  H   H100      1.0  0.17652  0.05618  0.17031  1.0000
  H   H101      1.0  0.13837  0.02226  0.18771  1.0000
  H   H102      1.0  0.15567  0.01070  0.08276  1.0000
  H   H103      1.0  0.24801  0.24817  0.12993  1.0000
  C   C154      1.0  0.12017  0.31979  0.24862  1.0000
  H   H104      1.0  0.15417  0.03526  0.12270  1.0000
  H   H105      1.0  0.10756  0.03122  0.17079  1.0000
  H   H106      1.0  0.07415  0.04016  0.17691  1.0000
  H   H107      1.0  0.06070  0.08629  0.17207  1.0000
  H   H108      1.0  0.08088  0.12382  0.16143  1.0000
  H   H109      1.0  0.11452  0.11557  0.15569  1.0000
  P   P7        1.0  0.23970  0.29118  0.06027  1.0000
  C   C155      1.0  0.21569  0.30219  0.05854  1.0000
  H   H110      1.0  0.21952  0.37017  0.19196  1.0000
  H   H111      1.0  0.23488  0.23295  0.05481  1.0000
  C   C156      1.0  0.20133  0.28421  0.06286  1.0000
  C   C157      1.0  0.18283  0.29250  0.06027  1.0000
  C   C158      1.0  0.17854  0.31868  0.05318  1.0000
  C   C159      1.0  0.19272  0.33676  0.04911  1.0000
  C   C160      1.0  0.21119  0.32859  0.05187  1.0000
  H   H112      1.0  0.10121  0.04804  0.06973  1.0000
  C   C161      1.0  0.23890  0.21456  0.08504  1.0000
  C   C162      1.0  0.02390  0.02923  0.12386  1.0000
  H   H113      1.0  0.20431  0.26378  0.06820  1.0000
  H   H114      1.0  0.23001  0.30845  0.01730  1.0000
  H   H115      1.0  0.09648  0.34680  0.25352  1.0000
  C   C163      1.0  0.02735  0.34689  0.06827  1.0000
  C   C164      1.0  0.09421  0.05910  0.08237  1.0000
  S   S27       1.0  0.01376  0.23754  0.14929  1.0000
  H   H116      1.0  0.24263  0.20193  0.11718  1.0000
  C   C165      1.0  0.02772  0.30928  0.12219  1.0000
  C   C166      1.0  0.02518  0.01313  0.14214  1.0000
  H   H117      1.0  0.07043  0.05056  0.12875  1.0000
  C   C167      1.0  0.24506  0.26681  0.09948  1.0000
  H   H118      1.0  0.21565  0.17579  0.28289  1.0000
  H   H119      1.0  0.22011  0.27389  0.16791  1.0000
  C   C168      1.0  0.00978  0.27125  0.30877  1.0000
  C   C169      1.0  0.24368  0.09981  0.31121  1.0000
  C   C170      1.0  0.02030  0.29253  0.27653  1.0000
  C   C171      1.0  0.24941  0.42483  0.14724  1.0000
  H   H120      1.0  0.12962  0.09892  0.08540  1.0000
  P   P8        1.0  0.08886  0.00889  0.10145  1.0000
  C   C172      1.0  0.25691  0.35676  0.09292  1.0000
  C   C173      1.0  0.23534  0.34388  0.21212  1.0000
  H   H121      1.0  0.02707  0.30605  0.30746  1.0000
  C   C174      1.0  0.24154  0.26275  0.07812  1.0000
  H   H122      1.0  0.14279  0.46260  0.23947  1.0000
  H   H123      1.0  0.02858  0.01392  0.17560  1.0000
  C   C175      1.0  0.11098  0.35530  0.22441  1.0000
  C   C176      1.0  0.08928  0.20656  0.25798  1.0000
  C   C177      1.0  0.24580  0.24484  0.11337  1.0000
  H   H124      1.0  0.23352  0.13572  0.21599  1.0000
  H   H125      1.0  0.23718  0.15267  0.25205  1.0000
  C   C178      1.0  0.10649  0.19627  0.25078  1.0000
  H   H126      1.0  0.08119  0.12374  0.09510  1.0000
  H   H127      1.0  0.22802  0.32263  0.16804  1.0000
  C   C179      1.0  0.14883  0.98745  0.17082  1.0000
  C   C180      1.0  0.24864  0.45212  0.14148  1.0000
  C   C181      1.0  0.18838  0.17337  0.29675  1.0000
  H   H128      1.0  0.11629  0.18762  0.26178  1.0000
  H   H129      1.0  0.03427  0.31616  0.10785  1.0000
  H   H130      1.0  0.15568  0.13041  0.08565  1.0000
  C   C182      1.0  0.22819  0.09495  0.22591  1.0000
  H   H131      1.0  0.21980  0.29208  0.24929  1.0000
  H   H132      1.0  0.02960  0.06406  0.17744  1.0000
  H   H133      1.0  0.17182  0.27853  0.06364  1.0000
  H   H134      1.0  0.25248  0.32244  0.23437  1.0000
  H   H135      1.0  0.16429  0.39111  0.22936  1.0000
  C   C183      1.0  0.23066  0.37659  0.99995  1.0000
  Fe  Fe16      1.0  0.21000  0.45868  0.10397  1.0000
  H   H136      1.0  0.04654  0.18012  0.24780  1.0000
  H   H137      1.0  0.24577  0.22740  0.22726  1.0000
  H   H138      1.0  0.18950  0.35715  0.04368  1.0000
  C   C184      1.0  0.23455  0.13142  0.24973  1.0000
  C   C185      1.0  0.10806  0.34109  0.24316  1.0000
  C   C186      1.0  0.09212  0.08722  0.08062  1.0000
  C   C187      1.0  0.15253  0.11828  0.09943  1.0000
  C   C188      1.0  0.08705  0.04545  0.10008  1.0000
  C   C189      1.0  0.19087  0.40582  0.21903  1.0000
  C   C190      1.0  0.24759  0.34209  0.22878  1.0000
  S   S28       1.0  0.02445  0.36318  0.13227  1.0000
  H   H139      1.0  0.18388  0.19282  0.29044  1.0000
  H   H140      1.0  0.06070  0.98697  0.17032  1.0000
  H   H141      1.0  0.19832  0.39438  0.23086  1.0000
  C   C191      1.0  0.24852  0.28147  0.03445  1.0000
  H   H142      1.0  0.11801  0.30897  0.26329  1.0000
  C   C192      1.0  0.23480  0.39299  0.21448  1.0000
  C   C193      1.0  0.07698  0.06036  0.11546  1.0000
  C   C194      1.0  0.06840  0.99495  0.09032  1.0000
  H   H143      1.0  0.23660  0.25086  0.30277  1.0000
  H   H144      1.0  0.06676  0.09980  0.12529  1.0000
  C   C195      1.0  0.22590  0.07739  0.24297  1.0000
  H   H145      1.0  0.02290  0.22652  0.20110  1.0000
  H   H146      1.0  0.25725  0.45989  0.21167  1.0000
  C   C196      1.0  0.23308  0.11359  0.26693  1.0000
  H   H147      1.0  0.10168  0.37202  0.22020  1.0000
  C   C197      1.0  0.25499  0.25332  0.27581  1.0000
  S   S29       1.0  0.01017  0.41477  0.18066  1.0000
  H   H148      1.0  0.17432  0.13466  0.11761  1.0000
  H   H149      1.0  0.25201  0.40888  0.23886  1.0000
  C   C198      1.0  0.04124  0.99976  0.06858  1.0000
  H   H150      1.0  0.24685  0.28690  0.10563  1.0000
  C   C199      1.0  0.24260  0.41667  0.16696  1.0000
  C   C200      1.0  0.03937  0.31436  0.22429  1.0000
  C   C201      1.0  0.20831  0.29746  0.23924  1.0000
  C   C202      1.0  0.24099  0.29318  0.01628  1.0000
  H   H151      1.0  0.14677  0.41703  0.20282  1.0000
  H   H152      1.0  0.22232  0.05657  0.24028  1.0000
  S   S30       1.0  0.02729  0.10647  0.14657  1.0000
  H   H153      1.0  0.23612  0.19438  0.07961  1.0000
  H   H154      1.0  0.14791  0.97411  0.18433  1.0000
  C   C203      1.0  0.22810  0.08673  0.26344  1.0000
  C   C204      1.0  0.03536  0.97436  0.07527  1.0000
  C   C205      1.0  0.03234  0.34597  0.04696  1.0000
  H   H155      1.0  0.22659  0.08767  0.21005  1.0000
  C   C206      1.0  0.18184  0.13224  0.31598  1.0000
  C   C207      1.0  0.24913  0.37529  0.03111  1.0000
  C   C208      1.0  0.03158  0.17909  0.24861  1.0000
  C   C209      1.0  0.15548  0.97737  0.15155  1.0000
  C   C210      1.0  0.10578  0.98354  0.13598  1.0000
  C   C211      1.0  0.01690  0.27233  0.14414  1.0000
  C   C212      1.0  0.07375  0.99808  0.14099  1.0000
  H   H156      1.0  0.06113  0.00703  0.13499  1.0000
  C   C213      1.0  0.25180  0.15273  0.29461  1.0000
  H   H157      1.0  0.20527  0.44557  0.24426  1.0000
  H   H158      1.0  0.02762  0.30861  0.26863  1.0000
  H   H159      1.0  0.17223  0.11988  0.32485  1.0000
  H   H160      1.0  0.25500  0.40982  0.13630  1.0000
  H   H161      1.0  0.20389  0.10234  0.31689  1.0000
  C   C214      1.0  0.00987  0.33853  0.07506  1.0000
  C   C215      1.0  0.01973  0.33698  0.03239  1.0000
  C   C216      1.0  0.02673  0.16021  0.18825  1.0000
  H   H162      1.0  0.11825  0.98105  0.12636  1.0000
  H   H163      1.0  0.03161  0.13707  0.23979  1.0000
  C   C217      1.0  0.24724  0.39101  0.23114  1.0000
  H   H164      1.0  0.23770  0.17339  0.32063  1.0000
  H   H165      1.0  0.02744  0.22088  0.25690  1.0000
  C   C218      1.0  0.24107  0.47130  0.15544  1.0000
  C   C219      1.0  0.21805  0.45631  0.24246  1.0000
  H   H166      1.0  0.01828  0.14381  0.18307  1.0000
  H   H167      1.0  0.01954  0.30896  0.20027  1.0000
  H   H168      1.0  0.01095  0.23801  0.04988  1.0000
  H   H169      1.0  0.01102  0.27546  0.24791  1.0000
  C   C220      1.0  0.24725  0.46433  0.22423  1.0000
  H   H170      1.0  0.02212  0.01958  0.10886  1.0000
  C   C221      1.0  0.14245  0.97758  0.06789  1.0000
  C   C222      1.0  0.08926  0.97306  0.16848  1.0000
  C   C223      1.0  0.25728  0.24677  0.25436  1.0000
  C   C224      1.0  0.25359  0.31812  0.06996  1.0000
  C   C225      1.0  0.10941  0.97413  0.07473  1.0000
  C   C226      1.0  0.01052  0.29139  0.15907  1.0000
  C   C227      1.0  0.02688  0.35400  0.45132  1.0000
  Fe  Fe17      1.0  0.06222  0.43546  0.60325  1.0000
  S   S31       1.0  0.05237  0.42961  0.63642  1.0000
  S   S32       1.0  0.09302  0.43804  0.59474  1.0000
  Fe  Fe18      1.0  0.03383  0.39768  0.62414  1.0000
  C   C228      1.0  0.24640  0.19837  0.47092  1.0000
  H   H171      1.0  0.04091  0.98644  0.53925  1.0000
  H   H172      1.0  0.13035  0.99719  0.65273  1.0000
  S   S33       1.0  0.04473  0.40231  0.59073  1.0000
  C   C229      1.0  0.02209  0.01378  0.64989  1.0000
  H   H173      1.0  0.03681  0.34135  0.59223  1.0000
  C   C230      1.0  0.03065  0.41502  0.48203  1.0000
  C   C231      1.0  0.09316  0.08926  0.57668  1.0000
  C   C232      1.0  0.25560  0.05861  0.33876  1.0000
  S   S34       1.0  0.19739  0.43040  0.63381  1.0000
  C   C233      1.0  0.25595  0.32600  0.41315  1.0000
  C   C234      1.0  0.09000  0.36519  0.65040  1.0000
  C   C235      1.0  0.08326  0.03631  0.52126  1.0000
  H   H174      1.0  0.11924  0.21502  0.53369  1.0000
  H   H175      1.0  0.22005  0.21535  0.42903  1.0000
  Fe  Fe19      1.0  0.16949  0.16066  0.59584  1.0000
  S   S35       1.0  0.18613  0.17036  0.62373  1.0000
  S   S36       1.0  0.13816  0.15765  0.59865  1.0000
  Fe  Fe20      1.0  0.20422  0.15782  0.56655  1.0000
  S   S37       1.0  0.22292  0.16825  0.59328  1.0000
  S   S38       1.0  0.21345  0.15424  0.53170  1.0000
  Fe  Fe21      1.0  0.20595  0.13796  0.61163  1.0000
  S   S39       1.0  0.21683  0.10742  0.63557  1.0000
  Fe  Fe22      1.0  0.20106  0.19997  0.60282  1.0000
  S   S40       1.0  0.20099  0.24323  0.61659  1.0000
  S   S41       1.0  0.18836  0.12632  0.58470  1.0000
  S   S42       1.0  0.18338  0.19137  0.57506  1.0000
  C   C236      1.0  0.10220  0.00984  0.48813  1.0000
  C   C237      1.0  0.10745  0.23473  0.64920  1.0000
  C   C238      1.0  0.01003  0.36637  0.44535  1.0000
  H   H176      1.0  0.18758  0.43904  0.58717  1.0000
  C   C239      1.0  0.01485  0.39630  0.51970  1.0000
  H   H177      1.0  0.22286  0.14780  0.48788  1.0000
  H   H178      1.0  0.23892  0.27581  0.53998  1.0000
  H   H179      1.0  0.01424  0.15484  0.61007  1.0000
  C   C240      1.0  0.08388  0.34462  0.66372  1.0000
  H   H180      1.0  0.02446  0.30268  0.57267  1.0000
  H   H181      1.0  0.23126  0.11837  0.33915  1.0000
  H   H182      1.0  0.08370  0.97985  0.59161  1.0000
  C   C241      1.0  0.22675  0.12861  0.51798  1.0000
  C   C242      1.0  0.22938  0.13098  0.49603  1.0000
  C   C243      1.0  0.06910  0.99762  0.66255  1.0000
  S   S43       1.0  0.23590  0.43513  0.65967  1.0000
  C   C244      1.0  0.23498  0.10643  0.52823  1.0000
  H   H183      1.0  0.09920  0.19555  0.59562  1.0000
  H   H184      1.0  0.23298  0.10412  0.54503  1.0000
  C   C245      1.0  0.21867  0.01475  0.63675  1.0000
  C   C246      1.0  0.25293  0.30230  0.44657  1.0000
  C   C247      1.0  0.01351  0.40222  0.48185  1.0000
  C   C248      1.0  0.21517  0.07184  0.63272  1.0000
  C   C249      1.0  0.22881  0.05731  0.62114  1.0000
  C   C250      1.0  0.23042  0.02894  0.62299  1.0000
  H   H185      1.0  0.07619  0.28833  0.62173  1.0000
  S   S44       1.0  0.04560  0.17277  0.65636  1.0000
  H   H186      1.0  0.19732  0.33406  0.64888  1.0000
  H   H187      1.0  0.24133  0.01806  0.61437  1.0000
  C   C251      1.0  0.22005  0.33135  0.62645  1.0000
  C   C252      1.0  0.20468  0.32131  0.63754  1.0000
  C   C253      1.0  0.19896  0.29452  0.63419  1.0000
  C   C254      1.0  0.20846  0.27727  0.61975  1.0000
  C   C255      1.0  0.22362  0.28749  0.60841  1.0000
  C   C256      1.0  0.22937  0.31423  0.61178  1.0000
  H   H188      1.0  0.08743  0.09825  0.56261  1.0000
  C   C257      1.0  0.09070  0.31811  0.66097  1.0000
  Fe  Fe23      1.0  0.03022  0.46053  0.62910  1.0000
  H   H189      1.0  0.24975  0.18115  0.48084  1.0000
  C   C258      1.0  0.23406  0.22580  0.56143  1.0000
  H   H190      1.0  0.13310  0.43391  0.59399  1.0000
  C   C259      1.0  0.13489  0.16877  0.64145  1.0000
  C   C260      1.0  0.12613  0.16078  0.62318  1.0000
  C   C261      1.0  0.10710  0.15566  0.62421  1.0000
  C   C262      1.0  0.09688  0.15850  0.64319  1.0000
  H   H191      1.0  0.14947  0.17296  0.64095  1.0000
  H   H192      1.0  0.10022  0.14957  0.61020  1.0000
  H   H193      1.0  0.08230  0.15426  0.64370  1.0000
  C   C263      1.0  0.10935  0.43590  0.61516  1.0000
  C   C264      1.0  0.12843  0.43407  0.61025  1.0000
  C   C265      1.0  0.14156  0.43225  0.62634  1.0000
  C   C266      1.0  0.06297  0.02625  0.57386  1.0000
  H   H194      1.0  0.00856  0.38957  0.53439  1.0000
  C   C267      1.0  0.10360  0.43622  0.63627  1.0000
  C   C268      1.0  0.09798  0.03752  0.48667  1.0000
  C   C269      1.0  0.01912  0.05493  0.62906  1.0000
  C   C270      1.0  0.01883  0.02651  0.63063  1.0000
  H   H195      1.0  0.03824  0.25674  0.57716  1.0000
  C   C271      1.0  0.02314  0.07086  0.64647  1.0000
  H   H196      1.0  0.12131  0.99530  0.53938  1.0000
  H   H197      1.0  0.22861  0.31394  0.46536  1.0000
  C   C272      1.0  0.23263  0.45720  0.55859  1.0000
  C   C273      1.0  0.24998  0.24576  0.46163  1.0000
  H   H198      1.0  0.10203  0.04873  0.47270  1.0000
  H   H199      1.0  0.23645  0.42993  0.60777  1.0000
  H   H200      1.0  0.22156  0.39183  0.59039  1.0000
  C   C274      1.0  0.17636  0.45089  0.58035  1.0000
  C   C275      1.0  0.22448  0.41006  0.58152  1.0000
  H   H201      1.0  0.12041  0.18619  0.56558  1.0000
  C   C276      1.0  0.11861  0.99127  0.55585  1.0000
  C   C277      1.0  0.16707  0.44113  0.56307  1.0000
  H   H202      1.0  0.02971  0.23734  0.61636  1.0000
  C   C278      1.0  0.01609  0.31415  0.63683  1.0000
  H   H203      1.0  0.17073  0.38392  0.64242  1.0000
  C   C279      1.0  0.09839  0.02843  0.64669  1.0000
  C   C280      1.0  0.23987  0.34130  0.41784  1.0000
  C   C281      1.0  0.02761  0.01518  0.55973  1.0000
  S   S45       1.0  0.03658  0.36010  0.64570  1.0000
  H   H204      1.0  0.21361  0.39524  0.55271  1.0000
  C   C282      1.0  0.08721  0.00841  0.52271  1.0000
  H   H205      1.0  0.06286  0.33397  0.61638  1.0000
  H   H206      1.0  0.09631  0.25325  0.53179  1.0000
  H   H207      1.0  0.12237  0.23364  0.65043  1.0000
  C   C283      1.0  0.09688  0.24071  0.54579  1.0000
  C   C284      1.0  0.09934  0.23519  0.62945  1.0000
  H   H208      1.0  0.07600  0.04695  0.53393  1.0000
  C   C285      1.0  0.03329  0.21705  0.61109  1.0000
  H   H209      1.0  0.14097  0.36134  0.64120  1.0000
  H   H210      1.0  0.04902  0.05505  0.59457  1.0000
  H   H211      1.0  0.24120  0.08160  0.36299  1.0000
  C   C286      1.0  0.24511  0.28773  0.52747  1.0000
  H   H212      1.0  0.15619  0.43082  0.62240  1.0000
  C   C287      1.0  0.04301  0.32129  0.59392  1.0000
  H   H213      1.0  0.02795  0.29983  0.41836  1.0000
  C   C288      1.0  0.20461  0.02908  0.64773  1.0000
  C   C289      1.0  0.11263  0.97984  0.59849  1.0000
  S   S46       1.0  0.02280  0.10653  0.64333  1.0000
  C   C290      1.0  0.08854  0.05075  0.50324  1.0000
  C   C291      1.0  0.08457  0.24587  0.56270  1.0000
  C   C292      1.0  0.08521  0.22971  0.58094  1.0000
  C   C293      1.0  0.25475  0.22317  0.47408  1.0000
  H   H214      1.0  0.22180  0.23738  0.56658  1.0000
  C   C294      1.0  0.06511  0.29109  0.61075  1.0000
  H   H215      1.0  0.08912  0.43815  0.64042  1.0000
  C   C295      1.0  0.13067  0.98175  0.59036  1.0000
  C   C296      1.0  0.09754  0.98294  0.58523  1.0000
  H   H216      1.0  0.05393  0.23512  0.64553  1.0000
  H   H217      1.0  0.10829  0.23560  0.61566  1.0000
  C   C297      1.0  0.02985  0.32565  0.64881  1.0000
  C   C298      1.0  0.25705  0.33024  0.51498  1.0000
  H   H218      1.0  0.22093  0.43647  0.53233  1.0000
  C   C299      1.0  0.16732  0.37267  0.62851  1.0000
  C   C300      1.0  0.09827  0.20820  0.58176  1.0000
  H   H219      1.0  0.17100  0.42155  0.55655  1.0000
  C   C301      1.0  0.24867  0.08965  0.49483  1.0000
  C   C302      1.0  0.15732  0.99085  0.63877  1.0000
  C   C303      1.0  0.12068  0.07501  0.65677  1.0000
  H   H220      1.0  0.11034  0.97503  0.61495  1.0000
  H   H221      1.0  0.06933  0.17733  0.59257  1.0000
  C   C304      1.0  0.04742  0.04011  0.58238  1.0000
  C   C305      1.0  0.05833  0.26908  0.59972  1.0000
  C   C306      1.0  0.05763  0.31710  0.60765  1.0000
  C   C307      1.0  0.04373  0.27346  0.58578  1.0000
  H   H222      1.0  0.08527  0.07222  0.50210  1.0000
  C   C308      1.0  0.02975  0.03464  0.57520  1.0000
  H   H223      1.0  0.07461  0.26242  0.56136  1.0000
  H   H224      1.0  0.19335  0.37977  0.61257  1.0000
  C   C309      1.0  0.22004  0.41201  0.56031  1.0000
  C   C310      1.0  0.11040  0.20290  0.56475  1.0000
  H   H225      1.0  0.18600  0.35304  0.58133  1.0000
  C   C311      1.0  0.24993  0.19688  0.53573  1.0000
  C   C312      1.0  0.05123  0.21041  0.60338  1.0000
  C   C313      1.0  0.03958  0.41898  0.50102  1.0000
  C   C314      1.0  0.23008  0.33687  0.43668  1.0000
  C   C315      1.0  0.02302  0.31838  0.42586  1.0000
  C   C316      1.0  0.23710  0.45497  0.57993  1.0000
  C   C317      1.0  0.06890  0.23508  0.64628  1.0000
  C   C318      1.0  0.10976  0.21918  0.54680  1.0000
  H   H226      1.0  0.04624  0.32053  0.44637  1.0000
  H   H227      1.0  0.24953  0.18599  0.52104  1.0000
  Fe  Fe24      1.0  0.21729  0.40140  0.64959  1.0000
  H   H228      1.0  0.23874  0.06806  0.61153  1.0000
  C   C319      1.0  0.20279  0.05745  0.64565  1.0000
  H   H229      1.0  0.25337  0.07258  0.66324  1.0000
  C   C320      1.0  0.04215  0.16359  0.59998  1.0000
  C   C321      1.0  0.01993  0.19719  0.61312  1.0000
  H   H230      1.0  0.14771  0.98929  0.56290  1.0000
  C   C322      1.0  0.24018  0.11164  0.48451  1.0000
  C   C323      1.0  0.03602  0.29947  0.58301  1.0000
  C   C324      1.0  0.13367  0.98782  0.56913  1.0000
  H   H231      1.0  0.15912  0.24649  0.63872  1.0000
  H   H232      1.0  0.01585  0.06481  0.61440  1.0000
  P   P9        1.0  0.06891  0.23575  0.60265  1.0000
  H   H233      1.0  0.23419  0.25925  0.43468  1.0000
  C   C325      1.0  0.23460  0.21319  0.54182  1.0000
  C   C326      1.0  0.10561  0.16659  0.66143  1.0000
  H   H234      1.0  0.01764  0.04531  0.58161  1.0000
  H   H235      1.0  0.23107  0.27472  0.59721  1.0000
  H   H236      1.0  0.22267  0.21473  0.53178  1.0000
  C   C327      1.0  0.23295  0.43154  0.59131  1.0000
  H   H237      1.0  0.01390  0.01073  0.55430  1.0000
  H   H238      1.0  0.07755  0.11572  0.59773  1.0000
  C   C328      1.0  0.05556  0.18342  0.59788  1.0000
  H   H239      1.0  0.17908  0.03390  0.60518  1.0000
  H   H240      1.0  0.04563  0.14266  0.59638  1.0000
  C   C329      1.0  0.13563  0.43204  0.64746  1.0000
  C   C330      1.0  0.22416  0.43542  0.54886  1.0000
  C   C331      1.0  0.03329  0.33005  0.44165  1.0000
  H   H241      1.0  0.24127  0.32163  0.60312  1.0000
  P   P10       1.0  0.11647  0.05005  0.63687  1.0000
  C   C332      1.0  0.17094  0.00077  0.62509  1.0000
  C   C333      1.0  0.10830  0.06642  0.61322  1.0000
  C   C334      1.0  0.09525  0.08795  0.61462  1.0000
  C   C335      1.0  0.08765  0.09917  0.59643  1.0000
  Fe  Fe25      1.0  0.02265  0.43549  0.58677  1.0000
  C   C336      1.0  0.10605  0.06773  0.57512  1.0000
  C   C337      1.0  0.11339  0.05610  0.59331  1.0000
  C   C338      1.0  0.08443  0.01999  0.63336  1.0000
  H   H242      1.0  0.05906  0.99825  0.63102  1.0000
  C   C339      1.0  0.24860  0.27627  0.50766  1.0000
  H   H243      1.0  0.03701  0.42223  0.46755  1.0000
  H   H244      1.0  0.07654  0.03109  0.57931  1.0000
  C   C340      1.0  0.13766  0.03048  0.63204  1.0000
  C   C341      1.0  0.14069  0.00551  0.64217  1.0000
  C   C342      1.0  0.04309  0.00127  0.55127  1.0000
  C   C343      1.0  0.11661  0.43414  0.65228  1.0000
  C   C344      1.0  0.16820  0.02581  0.61522  1.0000
  C   C345      1.0  0.15168  0.04071  0.61875  1.0000
  C   C346      1.0  0.23648  0.31731  0.45094  1.0000
  C   C347      1.0  0.10041  0.98859  0.56377  1.0000
  S   S47       1.0  0.22252  0.97940  0.64039  1.0000
  H   H245      1.0  0.08440  0.38561  0.65231  1.0000
  H   H246      1.0  0.18382  0.98930  0.62250  1.0000
  H   H247      1.0  0.09075  0.09598  0.62974  1.0000
  C   C348      1.0  0.24483  0.08047  0.34637  1.0000
  C   C349      1.0  0.09692  0.99533  0.50612  1.0000
  H   H248      1.0  0.11025  0.05986  0.55983  1.0000
  H   H249      1.0  0.12285  0.03890  0.59175  1.0000
  H   H250      1.0  0.08459  0.02543  0.61691  1.0000
  C   C350      1.0  0.01118  0.28693  0.64023  1.0000
  H   H251      1.0  0.03820  0.41341  0.53469  1.0000
  H   H252      1.0  0.24198  0.11377  0.46767  1.0000
  H   H253      1.0  0.10959  0.99960  0.47533  1.0000
  H   H254      1.0  0.05251  0.42956  0.50118  1.0000
  H   H255      1.0  0.19213  0.06827  0.65460  1.0000
  H   H256      1.0  0.01544  0.01451  0.61716  1.0000
  S   S48       1.0  0.22836  0.36483  0.63018  1.0000
  H   H257      1.0  0.14997  0.06038  0.61133  1.0000
  C   C351      1.0  0.15133  0.25420  0.62549  1.0000
  C   C352      1.0  0.14987  0.23828  0.60761  1.0000
  C   C353      1.0  0.14091  0.24872  0.59000  1.0000
  C   C354      1.0  0.13303  0.27490  0.59040  1.0000
  C   C355      1.0  0.13365  0.29060  0.60872  1.0000
  C   C356      1.0  0.14329  0.28024  0.62607  1.0000
  P   P11       1.0  0.12528  0.32541  0.60931  1.0000
  C   C357      1.0  0.11182  0.33590  0.58700  1.0000
  C   C358      1.0  0.10998  0.33280  0.63149  1.0000
  C   C359      1.0  0.10372  0.31219  0.64491  1.0000
  C   C360      1.0  0.23746  0.24269  0.44527  1.0000
  H   H258      1.0  0.03511  0.36270  0.46342  1.0000
  C   C361      1.0  0.06990  0.00457  0.64128  1.0000
  C   C362      1.0  0.10297  0.35935  0.63434  1.0000
  C   C363      1.0  0.09825  0.31905  0.57924  1.0000
  C   C364      1.0  0.08613  0.32853  0.56384  1.0000
  C   C365      1.0  0.08723  0.35510  0.55641  1.0000
  C   C366      1.0  0.10055  0.37213  0.56426  1.0000
  C   C367      1.0  0.11282  0.36260  0.57946  1.0000
  C   C368      1.0  0.14603  0.34468  0.60997  1.0000
  C   C369      1.0  0.15888  0.34255  0.59313  1.0000
  C   C370      1.0  0.17583  0.35543  0.59400  1.0000
  C   C371      1.0  0.18002  0.37049  0.61166  1.0000
  C   C372      1.0  0.15271  0.45663  0.55424  1.0000
  C   C373      1.0  0.15036  0.35981  0.62772  1.0000
  H   H259      1.0  0.15611  0.21808  0.60724  1.0000
  H   H260      1.0  0.14048  0.23658  0.57592  1.0000
  H   H261      1.0  0.12699  0.28289  0.57622  1.0000
  H   H262      1.0  0.14500  0.29256  0.63989  1.0000
  H   H263      1.0  0.10841  0.29147  0.64274  1.0000
  C   C374      1.0  0.03163  0.40973  0.51986  1.0000
  H   H264      1.0  0.10045  0.97393  0.50710  1.0000
  H   H265      1.0  0.22755  0.17623  0.45217  1.0000
  H   H266      1.0  0.10736  0.37558  0.62401  1.0000
  H   H267      1.0  0.09661  0.29890  0.58559  1.0000
  H   H268      1.0  0.07544  0.31561  0.55825  1.0000
  H   H269      1.0  0.07747  0.36274  0.54499  1.0000
  H   H270      1.0  0.10096  0.39308  0.55918  1.0000
  H   H271      1.0  0.12246  0.37654  0.58600  1.0000
  H   H272      1.0  0.15601  0.33025  0.57962  1.0000
  H   H273      1.0  0.14233  0.97811  0.60045  1.0000
  C   C375      1.0  0.07996  0.23483  0.62784  1.0000
  C   C376      1.0  0.06092  0.00655  0.55830  1.0000
  C   C377      1.0  0.01012  0.47065  0.41308  1.0000
  C   C378      1.0  0.22942  0.21770  0.44191  1.0000
  C   C379      1.0  0.23377  0.19561  0.45482  1.0000
  H   H274      1.0  0.21750  0.34860  0.44018  1.0000
  S   S49       1.0  0.02012  0.97830  0.65304  1.0000
  H   H275      1.0  0.23500  0.35648  0.40674  1.0000
  S   S50       1.0  0.01056  0.42850  0.61957  1.0000
  P   P12       1.0  0.08104  0.98985  0.54624  1.0000
  C   C380      1.0  0.24582  0.08713  0.51673  1.0000
  H   H276      1.0  0.19531  0.01821  0.65801  1.0000
  H   H277      1.0  0.18718  0.28703  0.64303  1.0000
  C   C381      1.0  0.02006  0.27066  0.65544  1.0000
  C   C382      1.0  0.02436  0.17045  0.60764  1.0000
  C   C383      1.0  0.23916  0.10125  0.33276  1.0000
  S   S51       1.0  0.04121  0.46896  0.59647  1.0000
  C   C384      1.0  0.24899  0.22247  0.57486  1.0000
  H   H278      1.0  0.14552  0.44907  0.54081  1.0000
  H   H279      1.0  0.24470  0.25563  0.50527  1.0000
  H   H280      1.0  0.00905  0.32631  0.62514  1.0000
  C   C385      1.0  0.12468  0.17161  0.66048  1.0000
  H   H281      1.0  0.24826  0.23153  0.59036  1.0000
  H   H282      1.0  0.25208  0.07009  0.52489  1.0000
  H   H283      1.0  0.15026  0.07756  0.65011  1.0000
  S   S52       1.0  0.01258  0.23684  0.65978  1.0000
  C   C386      1.0  0.25665  0.29164  0.49136  1.0000
  C   C387      1.0  0.13861  0.08452  0.65979  1.0000
  S   S53       1.0  0.25756  0.05517  0.41773  1.0000
  H   H284      1.0  0.25115  0.10736  0.59093  1.0000
  H   H285      1.0  0.24399  0.47090  0.58795  1.0000
  C   C388      1.0  0.24941  0.31462  0.53118  1.0000
  H   H286      1.0  0.24667  0.32340  0.54657  1.0000
  Fe  Fe26      1.0  0.21435  0.46381  0.64640  1.0000
  C   C389      1.0  0.00831  0.44484  0.40474  1.0000
  Fe  Fe27      1.0  0.06183  0.16742  0.68562  1.0000
  H   H287      1.0  0.18637  0.99146  0.87245  1.0000
  H   H288      1.0  0.24590  0.98506  0.80736  1.0000
  S   S54       1.0  0.04722  0.13004  0.69648  1.0000
  S   S55       1.0  0.04323  0.19598  0.70451  1.0000
  C   C390      1.0  0.19357  0.99611  0.92994  1.0000
  H   H289      1.0  0.13978  0.05932  0.74494  1.0000
  C   C391      1.0  0.01397  0.20856  0.79056  1.0000
  Fe  Fe28      1.0  0.21826  0.43780  0.68948  1.0000
  H   H290      1.0  0.09183  0.07909  0.66690  1.0000
  S   S56       1.0  0.22787  0.44168  0.72361  1.0000
  C   C392      1.0  0.20062  0.98932  0.86699  1.0000
  H   H291      1.0  0.03344  0.08678  0.77906  1.0000
  C   C393      1.0  0.16770  0.06590  0.73350  1.0000
  S   S57       1.0  0.20135  0.40173  0.68041  1.0000
  H   H292      1.0  0.24055  0.98769  0.72968  1.0000
  C   C394      1.0  0.23021  0.40254  0.91094  1.0000
  S   S58       1.0  0.09317  0.17051  0.68562  1.0000
  Fe  Fe29      1.0  0.02596  0.19921  0.67554  1.0000
  C   C395      1.0  0.07529  0.20967  0.87594  1.0000
  C   C396      1.0  0.14542  0.03879  0.71568  1.0000
  H   H293      1.0  0.24242  0.29538  0.98244  1.0000
  C   C397      1.0  0.04924  0.08585  0.74995  1.0000
  H   H294      1.0  0.18937  0.97832  0.77900  1.0000
  C   C398      1.0  0.25284  0.44758  0.99274  1.0000
  H   H295      1.0  0.21862  0.03059  0.78400  1.0000
  C   C399      1.0  0.18811  0.16459  0.69864  1.0000
  H   H296      1.0  0.04720  0.03701  0.71281  1.0000
  H   H297      1.0  0.23670  0.44609  0.76721  1.0000
  H   H298      1.0  0.01126  0.17335  0.90290  1.0000
  H   H299      1.0  0.22972  0.38065  0.91072  1.0000
  H   H300      1.0  0.13156  0.17786  0.67449  1.0000
  C   C400      1.0  0.19167  0.00309  0.80659  1.0000
  C   C401      1.0  0.23334  0.44443  0.93024  1.0000
  H   H301      1.0  0.24272  0.35654  0.97244  1.0000
  H   H302      1.0  0.08562  0.30206  0.67104  1.0000
  C   C402      1.0  0.23160  0.41620  0.93001  1.0000
  C   C403      1.0  0.22998  0.41703  0.89204  1.0000
  H   H303      1.0  0.21779  0.43062  0.98886  1.0000
  H   H304      1.0  0.08500  0.19371  0.88045  1.0000
  C   C404      1.0  0.20832  0.44623  0.98334  1.0000
  H   H305      1.0  0.18559  0.04146  0.68723  1.0000
  C   C405      1.0  0.19795  0.11133  0.71025  1.0000
  P   P13       1.0  0.01900  0.00724  0.73610  1.0000
  H   H306      1.0  0.19760  0.10318  0.67690  1.0000
  C   C406      1.0  0.16426  0.03626  0.78857  1.0000
  C   C407      1.0  0.17149  0.04305  0.80800  1.0000
  C   C408      1.0  0.18535  0.02663  0.81710  1.0000
  H   H307      1.0  0.23101  0.45642  0.87753  1.0000
  P   P14       1.0  0.19449  0.03569  0.84227  1.0000
  C   C409      1.0  0.20917  0.06480  0.84017  1.0000
  C   C410      1.0  0.17514  0.04267  0.86014  1.0000
  C   C411      1.0  0.17619  0.06247  0.87579  1.0000
  C   C412      1.0  0.16117  0.06743  0.88966  1.0000
  C   C413      1.0  0.14501  0.05271  0.88802  1.0000
  C   C414      1.0  0.14386  0.03295  0.87253  1.0000
  C   C415      1.0  0.15885  0.02790  0.85865  1.0000
  C   C416      1.0  0.22155  0.07017  0.85628  1.0000
  C   C417      1.0  0.23304  0.09249  0.85486  1.0000
  C   C418      1.0  0.23243  0.10946  0.83730  1.0000
  C   C419      1.0  0.22011  0.10439  0.82125  1.0000
  C   C420      1.0  0.20852  0.08217  0.82264  1.0000
  C   C421      1.0  0.20819  0.00764  0.85242  1.0000
  H   H308      1.0  0.09755  0.11247  0.69436  1.0000
  H   H309      1.0  0.16406  0.46924  0.99265  1.0000
  C   C422      1.0  0.12695  0.11330  0.68807  1.0000
  H   H310      1.0  0.01088  0.26957  0.81503  1.0000
  C   C423      1.0  0.25505  0.00244  0.75661  1.0000
  H   H311      1.0  0.23078  0.09646  0.68635  1.0000
  C   C424      1.0  0.12506  0.46307  0.71099  1.0000
  H   H312      1.0  0.15361  0.04903  0.78162  1.0000
  H   H313      1.0  0.16630  0.06115  0.81593  1.0000
  Fe  Fe30      1.0  0.02700  0.15873  0.71315  1.0000
  H   H314      1.0  0.18848  0.07425  0.87735  1.0000
  H   H315      1.0  0.16202  0.08286  0.90162  1.0000
  H   H316      1.0  0.13335  0.05670  0.89871  1.0000
  C   C425      1.0  0.03683  0.07545  0.76490  1.0000
  H   H317      1.0  0.02271  0.28346  0.89807  1.0000
  H   H318      1.0  0.22252  0.05698  0.86987  1.0000
  H   H319      1.0  0.21314  0.01975  0.71150  1.0000
  H   H320      1.0  0.24170  0.12637  0.83612  1.0000
  H   H321      1.0  0.21978  0.11751  0.80756  1.0000
  H   H322      1.0  0.19937  0.07854  0.80982  1.0000
  H   H323      1.0  0.23276  0.01759  0.83409  1.0000
  C   C426      1.0  0.21051  0.05196  0.75599  1.0000
  S   S59       1.0  0.19765  0.46800  0.67642  1.0000
  H   H324      1.0  0.11189  0.43412  0.66854  1.0000
  C   C427      1.0  0.25265  0.44317  0.97096  1.0000
  H   H325      1.0  0.24280  0.09639  0.86714  1.0000
  H   H326      1.0  0.08231  0.00024  0.69238  1.0000
  C   C428      1.0  0.21386  0.07415  0.74274  1.0000
  C   C429      1.0  0.05012  0.25065  0.86403  1.0000
  C   C430      1.0  0.23790  0.08839  0.76610  1.0000
  H   H327      1.0  0.04075  0.27004  0.67919  1.0000
  C   C431      1.0  0.10589  0.08536  0.66931  1.0000
  H   H328      1.0  0.06844  0.23456  0.68010  1.0000
  H   H329      1.0  0.04622  0.23890  0.91928  1.0000
  C   C432      1.0  0.01079  0.19474  0.85186  1.0000
  C   C433      1.0  0.18987  0.15778  0.71986  1.0000
  H   H330      1.0  0.07332  0.26801  0.84741  1.0000
  H   H331      1.0  0.21807  0.38258  0.99211  1.0000
  C   C434      1.0  0.18086  0.06069  0.71734  1.0000
  C   C435      1.0  0.24220  0.46371  0.75937  1.0000
  C   C436      1.0  0.04407  0.22939  0.87697  1.0000
  C   C437      1.0  0.05308  0.97962  0.73130  1.0000
  H   H332      1.0  0.20072  0.03682  0.75173  1.0000
  C   C438      1.0  0.21360  0.46421  0.96728  1.0000
  C   C439      1.0  0.14377  0.45997  0.71578  1.0000
  C   C440      1.0  0.23244  0.45893  0.91123  1.0000
  H   H333      1.0  0.23180  0.40463  0.94453  1.0000
  S   S60       1.0  0.01813  0.15394  0.74793  1.0000
  C   C441      1.0  0.05321  0.07161  0.73140  1.0000
  C   C442      1.0  0.02800  0.05118  0.76113  1.0000
  C   C443      1.0  0.03396  0.28204  0.66722  1.0000
  C   C444      1.0  0.17073  0.01294  0.77813  1.0000
  P   P15       1.0  0.02012  0.22732  0.88541  1.0000
  C   C445      1.0  0.04450  0.04727  0.72762  1.0000
  H   H334      1.0  0.00935  0.05783  0.71302  1.0000
  H   H335      1.0  0.23600  0.00908  0.90818  1.0000
  H   H336      1.0  0.06261  0.07988  0.71967  1.0000
  C   C446      1.0  0.08128  0.23108  0.86331  1.0000
  C   C447      1.0  0.21958  0.05983  0.70001  1.0000
  H   H337      1.0  0.04058  0.26650  0.85895  1.0000
  P   P16       1.0  0.20306  0.07665  0.71757  1.0000
  P   P17       1.0  0.23632  0.46159  0.95488  1.0000
  C   C448      1.0  0.02695  0.05812  0.66563  1.0000
  C   C449      1.0  0.24468  0.98596  0.79051  1.0000
  C   C450      1.0  0.15838  0.03378  0.69945  1.0000
  C   C451      1.0  0.24159  0.98708  0.74659  1.0000
  H   H338      1.0  0.05539  0.10529  0.75251  1.0000
  C   C452      1.0  0.09632  0.23476  0.66743  1.0000
  C   C453      1.0  0.23441  0.06635  0.77927  1.0000
  C   C454      1.0  0.23087  0.44522  0.89222  1.0000
  H   H339      1.0  0.01241  0.22748  0.97475  1.0000
  C   C455      1.0  0.22671  0.00398  0.84560  1.0000
  H   H340      1.0  0.15483  0.02127  0.68624  1.0000
  H   H341      1.0  0.13178  0.03022  0.71497  1.0000
  C   C456      1.0  0.01968  0.23204  0.80035  1.0000
  H   H342      1.0  0.03009  0.07016  0.67916  1.0000
  C   C457      1.0  0.03313  0.23311  0.92631  1.0000
  H   H343      1.0  0.23129  0.10856  0.73718  1.0000
  C   C458      1.0  0.23495  0.01814  0.68805  1.0000
  C   C459      1.0  0.20716  0.00934  0.91808  1.0000
  C   C460      1.0  0.10908  0.10417  0.68502  1.0000
  H   H344      1.0  0.18748  0.17313  0.73178  1.0000
  H   H345      1.0  0.00894  0.14316  0.79126  1.0000
  C   C461      1.0  0.06869  0.25151  0.85732  1.0000
  C   C462      1.0  0.22068  0.04825  0.77426  1.0000
  C   C463      1.0  0.23994  0.46686  0.73754  1.0000
  C   C464      1.0  0.01217  0.19651  0.87378  1.0000
  C   C465      1.0  0.24796  0.28576  0.99638  1.0000
  H   H346      1.0  0.15774  0.01240  0.84680  1.0000
  C   C466      1.0  0.25673  0.00198  0.77863  1.0000
  H   H347      1.0  0.05220  0.19193  0.89233  1.0000
  C   C467      1.0  0.23766  0.98284  0.85371  1.0000
  C   C468      1.0  0.02622  0.02970  0.66734  1.0000
  H   H348      1.0  0.17104  0.07872  0.74654  1.0000
  C   C469      1.0  0.23001  0.97556  0.92869  1.0000
  C   C470      1.0  0.19566  0.11823  0.68905  1.0000
  C   C471      1.0  0.05673  0.20875  0.88268  1.0000
  H   H349      1.0  0.14955  0.44008  0.71948  1.0000
  H   H350      1.0  0.04250  0.23894  0.95790  1.0000
  H   H351      1.0  0.18449  0.18517  0.69404  1.0000
  H   H352      1.0  0.12919  0.12870  0.69972  1.0000
  H   H353      1.0  0.24896  0.10190  0.76970  1.0000
  H   H354      1.0  0.03433  0.23562  0.80186  1.0000
  C   C472      1.0  0.22777  0.09218  0.74779  1.0000
  H   H355      1.0  0.01350  0.21213  0.84202  1.0000
  C   C473      1.0  0.24476  0.06114  0.67404  1.0000
  H   H356      1.0  0.22946  0.40636  0.87723  1.0000
  C   C474      1.0  0.19059  0.44826  0.99259  1.0000
  H   H357      1.0  0.20362  0.02758  0.90938  1.0000
  C   C475      1.0  0.22537  0.99902  0.91744  1.0000
  Fe  Fe31      1.0  0.18237  0.43214  0.66481  1.0000
  H   H358      1.0  0.09566  0.23176  0.85806  1.0000
  C   C476      1.0  0.15002  0.05500  0.73263  1.0000
  C   C477      1.0  0.17594  0.04496  0.70017  1.0000
  H   H359      1.0  0.25208  0.98054  0.84874  1.0000
  H   H360      1.0  0.15548  0.11116  0.67742  1.0000
  H   H361      1.0  0.02415  0.19403  0.78422  1.0000
  C   C478      1.0  0.22175  0.03153  0.70094  1.0000
  H   H362      1.0  0.01786  0.04420  0.77258  1.0000
  C   C479      1.0  0.19465  0.13119  0.72569  1.0000
  H   H363      1.0  0.10841  0.02682  0.67851  1.0000
  H   H364      1.0  0.11634  0.44556  0.71119  1.0000
  C   C480      1.0  0.19096  0.14477  0.68327  1.0000
  H   H365      1.0  0.23633  0.97761  0.98039  1.0000
  H   H366      1.0  0.20232  0.98997  0.81311  1.0000
  H   H367      1.0  0.07356  0.34925  0.67591  1.0000
  H   H368      1.0  0.19562  0.12619  0.74220  1.0000
  H   H369      1.0  0.04905  0.31793  0.67371  1.0000
  C   C481      1.0  0.09766  0.02089  0.66800  1.0000
  C   C482      1.0  0.17781  0.46778  0.98549  1.0000
  H   H370      1.0  0.24277  0.06282  0.79302  1.0000
  C   C483      1.0  0.01168  0.28243  0.88688  1.0000
  H   H371      1.0  0.13131  0.02158  0.87123  1.0000
  C   C484      1.0  0.01823  0.22608  0.91377  1.0000
  C   C485      1.0  0.23160  0.07461  0.68694  1.0000
  H   H372      1.0  0.02880  0.01996  0.68226  1.0000
  C   C486      1.0  0.03501  0.98300  0.72373  1.0000
  C   C487      1.0  0.03178  0.03689  0.74244  1.0000
  H   H373      1.0  0.18961  0.14988  0.66679  1.0000
  H   H374      1.0  0.16526  0.00767  0.76299  1.0000
  H   H375      1.0  0.05770  0.98588  0.66858  1.0000
  C   C488      1.0  0.00894  0.99263  0.75973  1.0000
  C   C489      1.0  0.07706  0.23509  0.66596  1.0000
  C   C490      1.0  0.08293  0.00582  0.67593  1.0000
  H   H376      1.0  0.10261  0.23350  0.68272  1.0000
  C   C491      1.0  0.03106  0.23335  0.94824  1.0000
  C   C492      1.0  0.24637  0.03292  0.67452  1.0000
  C   C493      1.0  0.14170  0.10355  0.67542  1.0000
  C   C494      1.0  0.18436  0.99635  0.78718  1.0000
  C   C495      1.0  0.01411  0.22689  0.95778  1.0000
  Fe  Fe32      1.0  0.02951  0.13730  0.66831  1.0000
  C   C496      1.0  0.00970  0.17309  0.88605  1.0000
  S   S61       1.0  0.15118  0.42920  0.66849  1.0000
  S   S62       1.0  0.19041  0.97444  0.69136  1.0000
  H   H377      1.0  0.23605  0.99624  0.68816  1.0000
  H   H378      1.0  0.05746  0.99135  0.74454  1.0000
  H   H379      1.0  0.17947  0.00423  0.93055  1.0000
  C   C497      1.0  0.24457  0.36160  0.98876  1.0000
  H   H380      1.0  0.25614  0.02243  0.66402  1.0000
  C   C498      1.0  0.03866  0.30934  0.66405  1.0000
  C   C499      1.0  0.19819  0.97265  0.94131  1.0000
  Fe  Fe33      1.0  0.03015  0.68448  0.07457  1.0000
  Fe  Fe34      1.0  0.06462  0.67264  0.10173  1.0000
  S   S63       1.0  0.04784  0.65818  0.12941  1.0000
  S   S64       1.0  0.09590  0.67361  0.10021  1.0000
  Fe  Fe35      1.0  0.03132  0.63576  0.10595  1.0000
  H   H381      1.0  0.12642  0.72236  0.25783  1.0000
  Fe  Fe36      1.0  0.02915  0.69399  0.12174  1.0000
  C   C500      1.0  0.04007  0.77912  0.03664  1.0000
  S   S65       1.0  0.04941  0.64824  0.07846  1.0000
  S   S66       1.0  0.04724  0.70986  0.09564  1.0000
  Fe  Fe37      1.0  0.03161  0.93990  0.15980  1.0000
  S   S67       1.0  0.04873  0.93480  0.18884  1.0000
  Fe  Fe38      1.0  0.03113  0.87819  0.15322  1.0000
  S   S68       1.0  0.04834  0.86879  0.18130  1.0000
  H   H382      1.0  0.07412  0.81871  0.21637  1.0000
  Fe  Fe39      1.0  0.03013  0.90014  0.19761  1.0000
  Fe  Fe40      1.0  0.06544  0.90371  0.17041  1.0000
  S   S69       1.0  0.09671  0.90008  0.17182  1.0000
  S   S70       1.0  0.04970  0.91060  0.14105  1.0000
  Fe  Fe41      1.0  0.17847  0.91432  0.09493  1.0000
  S   S71       1.0  0.18820  0.92685  0.12634  1.0000
  S   S72       1.0  0.14762  0.91173  0.08980  1.0000
  Fe  Fe42      1.0  0.21797  0.91275  0.07539  1.0000
  S   S73       1.0  0.23008  0.92575  0.10617  1.0000
  S   S74       1.0  0.23684  0.91059  0.04567  1.0000
  Fe  Fe43      1.0  0.21068  0.89500  0.12061  1.0000
  S   S75       1.0  0.21549  0.86536  0.14777  1.0000
  Fe  Fe44      1.0  0.20619  0.95648  0.10909  1.0000
  S   S76       1.0  0.21849  0.50296  0.10802  1.0000
  S   S77       1.0  0.19981  0.88081  0.08984  1.0000
  S   S78       1.0  0.19530  0.94496  0.07749  1.0000
  Fe  Fe45      1.0  0.17198  0.68941  0.18264  1.0000
  S   S79       1.0  0.18844  0.67521  0.15439  1.0000
  S   S80       1.0  0.14058  0.69525  0.18309  1.0000
  Fe  Fe46      1.0  0.20683  0.69215  0.21035  1.0000
  S   S81       1.0  0.22553  0.67767  0.18351  1.0000
  S   S82       1.0  0.21467  0.69766  0.24499  1.0000
  Fe  Fe47      1.0  0.20835  0.70722  0.16401  1.0000
  S   S83       1.0  0.21833  0.73656  0.13867  1.0000
  Fe  Fe48      1.0  0.20373  0.64689  0.17625  1.0000
  S   S84       1.0  0.20533  0.60001  0.17433  1.0000
  S   S85       1.0  0.19086  0.72293  0.19114  1.0000
  S   S86       1.0  0.18603  0.65993  0.20431  1.0000
  H   H383      1.0  0.02096  0.81760  0.16838  1.0000
  C   C501      1.0  0.22992  0.71969  0.25805  1.0000
  C   C502      1.0  0.24058  0.73868  0.24723  1.0000
  H   H384      1.0  0.15907  0.89301  0.19815  1.0000
  H   H385      1.0  0.17388  0.74959  0.23228  1.0000
  H   H386      1.0  0.03509  0.64008  0.22781  1.0000
  C   C503      1.0  0.23108  0.71832  0.28013  1.0000
  H   H387      1.0  0.02483  0.53263  0.10244  1.0000
  H   H388      1.0  0.22304  0.70360  0.28872  1.0000
  C   C504      1.0  0.21424  0.52968  0.12662  1.0000
  C   C505      1.0  0.20794  0.52495  0.14727  1.0000
  C   C506      1.0  0.20571  0.54663  0.16162  1.0000
  C   C507      1.0  0.20924  0.57350  0.15552  1.0000
  C   C508      1.0  0.21546  0.57824  0.13485  1.0000
  C   C509      1.0  0.21805  0.55649  0.12062  1.0000
  H   H389      1.0  0.20516  0.50453  0.15232  1.0000
  H   H390      1.0  0.20127  0.54263  0.17763  1.0000
  H   H391      1.0  0.21841  0.59865  0.12986  1.0000
  H   H392      1.0  0.12585  0.94590  0.05594  1.0000
  C   C510      1.0  0.21694  0.77233  0.14130  1.0000
  C   C511      1.0  0.21907  0.78884  0.12338  1.0000
  C   C512      1.0  0.21823  0.81732  0.12499  1.0000
  C   C513      1.0  0.21573  0.82960  0.14466  1.0000
  C   C514      1.0  0.21354  0.81304  0.16252  1.0000
  C   C515      1.0  0.21376  0.78463  0.16083  1.0000
  H   H393      1.0  0.22145  0.77955  0.10817  1.0000
  H   H394      1.0  0.22002  0.82972  0.11108  1.0000
  H   H395      1.0  0.21172  0.82219  0.17778  1.0000
  H   H396      1.0  0.21197  0.77221  0.17470  1.0000
  C   C516      1.0  0.19722  0.84911  0.22548  1.0000
  C   C517      1.0  0.24093  0.88403  0.02710  1.0000
  C   C518      1.0  0.23182  0.85944  0.02844  1.0000
  C   C519      1.0  0.23562  0.83903  0.01334  1.0000
  C   C520      1.0  0.05668  0.87591  0.07013  1.0000
  H   H397      1.0  0.22196  0.85605  0.04118  1.0000
  H   H398      1.0  0.01628  0.84388  0.07878  1.0000
  C   C521      1.0  0.13358  0.90947  0.11277  1.0000
  C   C522      1.0  0.14115  0.90145  0.13193  1.0000
  C   C523      1.0  0.12970  0.89906  0.14995  1.0000
  C   C524      1.0  0.11059  0.90453  0.14896  1.0000
  C   C525      1.0  0.10303  0.91301  0.12990  1.0000
  C   C526      1.0  0.11447  0.91517  0.11180  1.0000
  H   H399      1.0  0.15574  0.89630  0.13277  1.0000
  H   H400      1.0  0.13565  0.89247  0.16462  1.0000
  H   H401      1.0  0.08837  0.91768  0.12903  1.0000
  H   H402      1.0  0.10850  0.92129  0.09704  1.0000
  H   H403      1.0  0.05985  0.85979  0.23250  1.0000
  C   C527      1.0  0.18034  0.91215  0.00851  1.0000
  H   H404      1.0  0.02575  0.67899  0.25437  1.0000
  C   C528      1.0  0.10800  0.67989  0.12339  1.0000
  C   C529      1.0  0.09873  0.68391  0.14271  1.0000
  C   C530      1.0  0.10890  0.68861  0.16089  1.0000
  C   C531      1.0  0.12833  0.68892  0.15995  1.0000
  C   C532      1.0  0.13753  0.68520  0.14058  1.0000
  C   C533      1.0  0.12740  0.68081  0.12237  1.0000
  H   H405      1.0  0.08377  0.68350  0.14363  1.0000
  H   H406      1.0  0.10172  0.69208  0.17571  1.0000
  H   H407      1.0  0.15241  0.68632  0.13948  1.0000
  H   H408      1.0  0.13464  0.67832  0.10743  1.0000
  H   H409      1.0  0.01719  0.75321  0.06416  1.0000
  C   C534      1.0  0.04232  0.77981  0.25140  1.0000
  C   C535      1.0  0.05406  0.76234  0.23948  1.0000
  C   C536      1.0  0.07679  0.71544  0.29571  1.0000
  H   H410      1.0  0.04724  0.78899  0.19075  1.0000
  C   C537      1.0  0.02613  0.52106  0.15531  1.0000
  H   H411      1.0  0.22783  0.47840  0.18545  1.0000
  C   C538      1.0  0.23291  0.81819  0.21958  1.0000
  C   C539      1.0  0.08245  0.49003  0.18452  1.0000
  C   C540      1.0  0.06428  0.74748  0.04796  1.0000
  C   C541      1.0  0.02747  0.54817  0.16173  1.0000
  H   H412      1.0  0.01552  0.63284  0.05474  1.0000
  H   H413      1.0  0.17968  0.49541  0.12455  1.0000
  H   H414      1.0  0.15526  0.96935  0.06100  1.0000
  H   H415      1.0  0.07232  0.79322  0.30295  1.0000
  H   H416      1.0  0.08649  0.67157  0.20471  1.0000
  C   C542      1.0  0.01753  0.84127  0.00880  1.0000
  C   C543      1.0  0.15193  0.48863  0.11475  1.0000
  H   H417      1.0  0.02950  0.74130  0.31554  1.0000
  C   C544      1.0  0.19731  0.92285  0.01375  1.0000
  H   H418      1.0  0.10218  0.56129  0.19269  1.0000
  C   C545      1.0  0.06157  0.72965  0.28745  1.0000
  H   H419      1.0  0.05113  0.71866  0.27932  1.0000
  C   C546      1.0  0.25374  0.88793  0.01039  1.0000
  C   C547      1.0  0.16794  0.48266  0.23067  1.0000
  C   C548      1.0  0.01248  0.63986  0.02154  1.0000
  H   H420      1.0  0.10303  0.49119  0.05751  1.0000
  C   C549      1.0  0.13330  0.60409  0.16017  1.0000
  C   C550      1.0  0.14325  0.61664  0.17576  1.0000
  C   C551      1.0  0.14966  0.60161  0.19287  1.0000
  C   C552      1.0  0.14638  0.57390  0.19427  1.0000
  C   C553      1.0  0.13737  0.56077  0.17800  1.0000
  C   C554      1.0  0.13045  0.57623  0.16122  1.0000
  P   P18       1.0  0.13326  0.52483  0.17896  1.0000
  C   C555      1.0  0.14047  0.51096  0.15362  1.0000
  C   C556      1.0  0.12734  0.50301  0.13903  1.0000
  H   H421      1.0  0.11729  0.96006  0.16138  1.0000
  H   H422      1.0  0.02903  0.59021  0.15215  1.0000
  C   C557      1.0  0.22486  0.84547  0.25950  1.0000
  C   C558      1.0  0.15939  0.50849  0.14805  1.0000
  C   C559      1.0  0.16571  0.51382  0.20133  1.0000
  H   H423      1.0  0.12815  0.61597  0.14709  1.0000
  H   H424      1.0  0.14602  0.63802  0.17461  1.0000
  H   H425      1.0  0.15730  0.61149  0.20498  1.0000
  H   H426      1.0  0.15098  0.56305  0.20804  1.0000
  H   H427      1.0  0.11265  0.50530  0.14234  1.0000
  H   H428      1.0  0.22356  0.93670  0.00270  1.0000
  C   C560      1.0  0.09023  0.72921  0.30655  1.0000
  H   H429      1.0  0.02050  0.71978  0.99894  1.0000
  H   H430      1.0  0.17586  0.84108  0.24898  1.0000
  C   C561      1.0  0.02282  0.81278  0.13479  1.0000
  H   H431      1.0  0.07739  0.86526  0.04652  1.0000
  C   C562      1.0  0.07080  0.51155  0.19096  1.0000
  H   H432      1.0  0.17596  0.47308  0.24293  1.0000
  C   C563      1.0  0.05578  0.76568  0.21769  1.0000
  C   C564      1.0  0.09693  0.54129  0.19027  1.0000
  H   H433      1.0  0.18891  0.79084  0.21924  1.0000
  C   C565      1.0  0.11452  0.50348  0.06189  1.0000
  C   C566      1.0  0.03283  0.67829  0.21119  1.0000
  H   H434      1.0  0.02233  0.96675  0.07000  1.0000
  H   H435      1.0  0.05958  0.82795  0.03207  1.0000
  C   C567      1.0  0.16490  0.77021  0.13460  1.0000
  C   C568      1.0  0.15353  0.75719  0.14927  1.0000
  C   C569      1.0  0.13463  0.75521  0.14563  1.0000
  C   C570      1.0  0.12708  0.76589  0.12724  1.0000
  C   C571      1.0  0.13848  0.77861  0.11222  1.0000
  C   C572      1.0  0.15746  0.78101  0.11619  1.0000
  P   P19       1.0  0.12862  0.79068  0.08795  1.0000
  C   C573      1.0  0.14543  0.81010  0.07320  1.0000
  C   C574      1.0  0.12310  0.76284  0.07114  1.0000
  C   C575      1.0  0.12469  0.73587  0.07805  1.0000
  C   C576      1.0  0.12069  0.71474  0.06449  1.0000
  C   C577      1.0  0.11502  0.72031  0.04405  1.0000
  C   C578      1.0  0.11348  0.74708  0.03703  1.0000
  C   C579      1.0  0.11756  0.76827  0.05049  1.0000
  C   C580      1.0  0.14351  0.83830  0.07084  1.0000
  C   C581      1.0  0.15692  0.85257  0.05944  1.0000
  C   C582      1.0  0.17237  0.83898  0.05051  1.0000
  C   C583      1.0  0.17427  0.81094  0.05260  1.0000
  C   C584      1.0  0.16080  0.79653  0.06372  1.0000
  C   C585      1.0  0.10789  0.81015  0.09519  1.0000
  C   C586      1.0  0.09035  0.80270  0.08834  1.0000
  C   C587      1.0  0.07435  0.81686  0.09538  1.0000
  C   C588      1.0  0.07569  0.83830  0.10937  1.0000
  C   C589      1.0  0.09298  0.84534  0.11664  1.0000
  C   C590      1.0  0.10902  0.83150  0.10949  1.0000
  H   H436      1.0  0.17956  0.77168  0.13742  1.0000
  H   H437      1.0  0.15942  0.74835  0.16331  1.0000
  H   H438      1.0  0.12597  0.74471  0.15685  1.0000
  H   H439      1.0  0.11243  0.76365  0.12453  1.0000
  H   H440      1.0  0.16669  0.79104  0.10525  1.0000
  H   H441      1.0  0.12906  0.73090  0.09378  1.0000
  H   H442      1.0  0.12190  0.69397  0.06991  1.0000
  H   H443      1.0  0.11183  0.70384  0.03371  1.0000
  H   H444      1.0  0.10915  0.75143  0.02115  1.0000
  H   H445      1.0  0.11640  0.78894  0.04483  1.0000
  H   H446      1.0  0.13188  0.84949  0.07782  1.0000
  H   H447      1.0  0.15553  0.87432  0.05780  1.0000
  H   H448      1.0  0.18296  0.85023  0.04216  1.0000
  H   H449      1.0  0.18633  0.80042  0.04580  1.0000
  H   H450      1.0  0.16259  0.77479  0.06534  1.0000
  H   H451      1.0  0.08885  0.78573  0.07793  1.0000
  H   H452      1.0  0.06080  0.81114  0.09030  1.0000
  H   H453      1.0  0.06327  0.84912  0.11493  1.0000
  H   H454      1.0  0.09387  0.86124  0.12813  1.0000
  H   H455      1.0  0.12230  0.83733  0.11524  1.0000
  H   H456      1.0  0.03289  0.87945  0.31839  1.0000
  C   C591      1.0  0.03943  0.86977  0.07904  1.0000
  C   C592      1.0  0.14754  0.51010  0.06349  1.0000
  C   C593      1.0  0.14418  0.53532  0.07289  1.0000
  C   C594      1.0  0.12593  0.54438  0.07759  1.0000
  C   C595      1.0  0.11112  0.52882  0.07109  1.0000
  P   P20       1.0  0.12137  0.57691  0.08978  1.0000
  C   C596      1.0  0.10332  0.57643  0.10997  1.0000
  C   C597      1.0  0.14137  0.58854  0.10325  1.0000
  C   C598      1.0  0.15202  0.57037  0.11527  1.0000
  C   C599      1.0  0.16696  0.57947  0.12661  1.0000
  C   C600      1.0  0.17122  0.60686  0.12631  1.0000
  C   C601      1.0  0.16057  0.62516  0.11458  1.0000
  C   C602      1.0  0.14559  0.61612  0.10319  1.0000
  C   C603      1.0  0.09742  0.60088  0.11937  1.0000
  C   C604      1.0  0.08416  0.60113  0.13572  1.0000
  C   C605      1.0  0.07669  0.57692  0.14289  1.0000
  C   C606      1.0  0.08263  0.55241  0.13387  1.0000
  C   C607      1.0  0.09603  0.55209  0.11760  1.0000
  C   C608      1.0  0.11587  0.60015  0.06876  1.0000
  C   C609      1.0  0.12986  0.60733  0.05425  1.0000
  C   C610      1.0  0.12593  0.62534  0.03783  1.0000
  C   C611      1.0  0.10797  0.63607  0.03566  1.0000
  C   C612      1.0  0.09392  0.62873  0.04988  1.0000
  C   C613      1.0  0.09780  0.61076  0.06636  1.0000
  C   C614      1.0  0.07800  0.53717  0.19377  1.0000
  C   C615      1.0  0.04163  0.76836  0.01629  1.0000
  H   H457      1.0  0.07805  0.69367  0.29393  1.0000
  H   H458      1.0  0.15590  0.54756  0.07648  1.0000
  H   H459      1.0  0.09693  0.53616  0.07334  1.0000
  H   H460      1.0  0.14861  0.54925  0.11615  1.0000
  H   H461      1.0  0.17505  0.56537  0.13595  1.0000
  H   H462      1.0  0.18260  0.61398  0.13544  1.0000
  H   H463      1.0  0.16380  0.64643  0.11459  1.0000
  H   H464      1.0  0.13714  0.63076  0.09473  1.0000
  H   H465      1.0  0.10316  0.61980  0.11411  1.0000
  H   H466      1.0  0.07964  0.62017  0.14273  1.0000
  H   H467      1.0  0.06625  0.57713  0.15539  1.0000
  H   H468      1.0  0.07673  0.53368  0.13948  1.0000
  H   H469      1.0  0.10070  0.53282  0.11130  1.0000
  H   H470      1.0  0.14385  0.59914  0.05575  1.0000
  H   H471      1.0  0.24049  0.49244  0.15084  1.0000
  H   H472      1.0  0.01199  0.73324  0.23044  1.0000
  H   H473      1.0  0.08001  0.63709  0.04819  1.0000
  H   H474      1.0  0.08667  0.60537  0.07716  1.0000
  H   H475      1.0  0.06939  0.71002  0.18805  1.0000
  P   P21       1.0  0.02347  0.80602  0.04294  1.0000
  C   C616      1.0  0.16506  0.49733  0.12874  1.0000
  C   C617      1.0  0.07155  0.67353  0.20654  1.0000
  C   C618      1.0  0.05440  0.74725  0.01187  1.0000
  C   C619      1.0  0.01810  0.74207  0.30478  1.0000
  H   H476      1.0  0.02876  0.85308  0.01440  1.0000
  H   H477      1.0  0.09887  0.76788  0.31764  1.0000
  C   C620      1.0  0.20316  0.79816  0.24813  1.0000
  C   C621      1.0  0.19111  0.78424  0.23524  1.0000
  H   H478      1.0  0.06496  0.75239  0.20858  1.0000
  H   H479      1.0  0.05618  0.50832  0.19388  1.0000
  C   C622      1.0  0.06194  0.69533  0.19737  1.0000
  C   C623      1.0  0.13875  0.48937  0.21308  1.0000
  H   H480      1.0  0.01232  0.67163  0.16763  1.0000
  H   H481      1.0  0.12429  0.48453  0.21221  1.0000
  C   C624      1.0  0.19735  0.76548  0.27601  1.0000
  C   C625      1.0  0.08852  0.75724  0.30906  1.0000
  H   H482      1.0  0.22855  0.82006  0.01462  1.0000
  H   H483      1.0  0.08884  0.96294  0.18363  1.0000
  C   C626      1.0  0.03242  0.80062  0.24110  1.0000
  C   C627      1.0  0.04578  0.78632  0.20760  1.0000
  C   C628      1.0  0.03422  0.80391  0.21931  1.0000
  C   C629      1.0  0.14924  0.47681  0.22875  1.0000
  C   C630      1.0  0.10877  0.51972  0.18380  1.0000
  C   C631      1.0  0.14729  0.83425  0.15327  1.0000
  C   C632      1.0  0.16447  0.83051  0.16259  1.0000
  C   C633      1.0  0.16550  0.81927  0.18269  1.0000
  C   C634      1.0  0.14934  0.81193  0.19360  1.0000
  C   C635      1.0  0.13200  0.81496  0.18411  1.0000
  C   C636      1.0  0.13108  0.82668  0.16398  1.0000
  P   P22       1.0  0.11096  0.80626  0.19834  1.0000
  C   C637      1.0  0.09449  0.79437  0.17971  1.0000
  C   C638      1.0  0.11572  0.77963  0.21727  1.0000
  C   C639      1.0  0.10671  0.77960  0.23709  1.0000
  C   C640      1.0  0.11051  0.75898  0.25162  1.0000
  C   C641      1.0  0.12337  0.73829  0.24656  1.0000
  C   C642      1.0  0.13234  0.73808  0.22689  1.0000
  C   C643      1.0  0.12846  0.75850  0.21223  1.0000
  C   C644      1.0  0.08292  0.81304  0.16923  1.0000
  C   C645      1.0  0.07026  0.80414  0.15468  1.0000
  C   C646      1.0  0.06944  0.77668  0.14993  1.0000
  C   C647      1.0  0.08094  0.75796  0.16017  1.0000
  C   C648      1.0  0.09328  0.76668  0.17521  1.0000
  C   C649      1.0  0.10104  0.83593  0.21132  1.0000
  C   C650      1.0  0.11148  0.85919  0.21379  1.0000
  C   C651      1.0  0.10340  0.88234  0.22316  1.0000
  C   C652      1.0  0.08484  0.88249  0.22997  1.0000
  C   C653      1.0  0.07439  0.85938  0.22769  1.0000
  C   C654      1.0  0.08246  0.83623  0.21840  1.0000
  H   H484      1.0  0.14666  0.84334  0.13780  1.0000
  H   H485      1.0  0.17697  0.83661  0.15426  1.0000
  H   H486      1.0  0.17888  0.81670  0.18984  1.0000
  H   H487      1.0  0.15046  0.80404  0.20942  1.0000
  H   H488      1.0  0.11790  0.83034  0.15661  1.0000
  H   H489      1.0  0.09679  0.79542  0.24151  1.0000
  H   H490      1.0  0.10355  0.75912  0.26685  1.0000
  H   H491      1.0  0.14225  0.72192  0.22291  1.0000
  H   H492      1.0  0.13539  0.75765  0.19694  1.0000
  H   H493      1.0  0.08373  0.83456  0.17217  1.0000
  H   H494      1.0  0.06106  0.81859  0.14706  1.0000
  H   H495      1.0  0.05985  0.76990  0.13834  1.0000
  H   H496      1.0  0.08032  0.73669  0.15630  1.0000
  H   H497      1.0  0.10195  0.75174  0.18299  1.0000
  H   H498      1.0  0.12559  0.85993  0.20780  1.0000
  H   H499      1.0  0.11128  0.90058  0.22425  1.0000
  H   H500      1.0  0.07838  0.90072  0.23650  1.0000
  S   S87       1.0  0.02322  0.49530  0.17482  1.0000
  H   H501      1.0  0.24632  0.88042  0.30757  1.0000
  H   H502      1.0  0.22377  0.77726  0.21474  1.0000
  H   H503      1.0  0.19075  0.88908  0.18224  1.0000
  C   C655      1.0  0.02255  0.76633  0.12230  1.0000
  C   C656      1.0  0.02577  0.51562  0.13376  1.0000
  C   C657      1.0  0.24044  0.87092  0.29402  1.0000
  C   C658      1.0  0.02586  0.53708  0.11899  1.0000
  C   C659      1.0  0.05157  0.76864  0.05241  1.0000
  H   H504      1.0  0.06923  0.63657  0.22431  1.0000
  H   H505      1.0  0.10191  0.71814  0.31317  1.0000
  H   H506      1.0  0.11016  0.47697  0.17620  1.0000
  H   H507      1.0  0.24828  0.81730  0.26160  1.0000
  H   H508      1.0  0.07492  0.71962  0.02448  1.0000
  C   C660      1.0  0.14686  0.50807  0.19916  1.0000
  H   H509      1.0  0.12291  0.56671  0.14892  1.0000
  H   H510      1.0  0.21492  0.86187  0.19935  1.0000
  C   C661      1.0  0.06561  0.73670  0.02772  1.0000
  H   H511      1.0  0.17223  0.52881  0.19143  1.0000
  H   H512      1.0  0.06453  0.89222  0.07651  1.0000
  C   C662      1.0  0.04251  0.65598  0.21974  1.0000
  H   H513      1.0  0.06885  0.55379  0.19869  1.0000
  H   H514      1.0  0.24290  0.73482  0.30821  1.0000
  H   H515      1.0  0.06196  0.74619  0.24682  1.0000
  H   H516      1.0  0.16168  0.50291  0.06043  1.0000
  H   H517      1.0  0.16987  0.51541  0.15834  1.0000
  C   C663      1.0  0.04706  0.83087  0.28341  1.0000
  H   H518      1.0  0.22308  0.56051  0.10479  1.0000
  C   C664      1.0  0.05978  0.75784  0.28984  1.0000
  H   H519      1.0  0.05021  0.77617  0.06832  1.0000
  C   C665      1.0  0.06182  0.65382  0.21766  1.0000
  C   C666      1.0  0.02680  0.56422  0.12543  1.0000
  C   C667      1.0  0.20617  0.78861  0.26865  1.0000
  C   C668      1.0  0.13307  0.49169  0.11979  1.0000
  C   C669      1.0  0.23379  0.79231  0.21057  1.0000
  H   H520      1.0  0.09682  0.96313  0.07278  1.0000
  P   P23       1.0  0.03979  0.77592  0.27963  1.0000
  S   S88       1.0  0.01075  0.67054  0.10051  1.0000
  C   C670      1.0  0.01200  0.81775  0.01946  1.0000
  H   H521      1.0  0.17045  0.90691  0.02085  1.0000
  H   H522      1.0  0.05575  0.82857  0.26940  1.0000
  C   C671      1.0  0.02147  0.80335  0.15553  1.0000
  P   P24       1.0  0.21455  0.82786  0.23807  1.0000
  C   C672      1.0  0.01936  0.75683  0.28586  1.0000
  H   H523      1.0  0.05246  0.87335  0.28611  1.0000
  H   H524      1.0  0.02664  0.82016  0.21150  1.0000
  H   H525      1.0  0.02687  0.64497  0.01900  1.0000
  S   S89       1.0  0.02487  0.69970  0.04099  1.0000
  C   C673      1.0  0.04264  0.69779  0.19970  1.0000
  H   H526      1.0  0.21726  0.89911  0.29242  1.0000
  C   C674      1.0  0.06392  0.86066  0.05329  1.0000
  C   C675      1.0  0.02936  0.84843  0.07115  1.0000
  H   H527      1.0  0.20024  0.75769  0.29158  1.0000
  C   C676      1.0  0.10135  0.49401  0.18106  1.0000
  H   H528      1.0  0.03540  0.71443  0.19197  1.0000
  C   C677      1.0  0.07340  0.77155  0.30068  1.0000
  H   H529      1.0  0.03275  0.77568  0.00390  1.0000
  C   C678      1.0  0.18754  0.87885  0.19697  1.0000
  H   H530      1.0  0.21561  0.79841  0.27893  1.0000
  H   H531      1.0  0.17971  0.73273  0.26830  1.0000
  H   H532      1.0  0.01936  0.76807  0.17554  1.0000
  H   H533      1.0  0.19065  0.50597  0.21855  1.0000
  C   C679      1.0  0.05382  0.83944  0.04524  1.0000
  C   C680      1.0  0.24233  0.73608  0.29126  1.0000
  C   C681      1.0  0.25267  0.75549  0.28044  1.0000
  C   C682      1.0  0.03742  0.80882  0.29180  1.0000
  C   C683      1.0  0.21622  0.86868  0.26833  1.0000
  H   H534      1.0  0.10488  0.65000  0.02295  1.0000
  C   C684      1.0  0.03637  0.83324  0.05400  1.0000
  C   C685      1.0  0.25178  0.75650  0.25834  1.0000
  C   C686      1.0  0.16561  0.86748  0.22473  1.0000
  C   C687      1.0  0.16970  0.88099  0.20591  1.0000
  H   H535      1.0  0.02458  0.49499  0.12852  1.0000
  H   H536      1.0  0.15183  0.86928  0.23177  1.0000
  C   C688      1.0  0.01113  0.67545  0.25661  1.0000
  H   H537      1.0  0.07267  0.73883  0.06035  1.0000
  C   C689      1.0  0.02048  0.77539  0.15956  1.0000
  C   C690      1.0  0.04541  0.85624  0.29297  1.0000
  C   C691      1.0  0.17619  0.50112  0.21693  1.0000
  C   C692      1.0  0.18249  0.76093  0.24258  1.0000
  C   C693      1.0  0.18567  0.75149  0.26293  1.0000
  H   H538      1.0  0.15636  0.47933  0.10005  1.0000
  H   H539      1.0  0.24024  0.73951  0.23028  1.0000
  C   C694      1.0  0.02332  0.79419  0.11823  1.0000
  H   H540      1.0  0.04121  0.93976  0.09496  1.0000
  C   C695      1.0  0.02810  0.56955  0.14691  1.0000
  S   S90       1.0  0.02017  0.72186  0.14834  1.0000
  S   S91       1.0  0.02384  0.84751  0.12876  1.0000
  C   C696      1.0  0.22403  0.88135  0.28552  1.0000
  C   C697      1.0  0.13273  0.49395  0.05837  1.0000
  C   C698      1.0  0.20129  0.86316  0.20676  1.0000
  H   H541      1.0  0.15954  0.95621  0.15009  1.0000
  S   S92       1.0  0.02495  0.59052  0.10614  1.0000
  H   H542      1.0  0.02326  0.81431  0.24992  1.0000
  C   C699      1.0  0.02639  0.81248  0.31009  1.0000
  S   S93       1.0  0.02278  0.89464  0.23253  1.0000
  C   C700      1.0  0.03434  0.85972  0.31113  1.0000
  C   C701      1.0  0.17927  0.85152  0.23444  1.0000
  H   H543      1.0  0.02428  0.80135  0.10218  1.0000
  H   H544      1.0  0.20344  0.87695  0.26214  1.0000
  H   H545      1.0  0.24194  0.50491  0.26713  1.0000
  H   H546      1.0  0.24578  0.85721  0.22019  1.0000
  C   C702      1.0  0.21032  0.92930  0.99800  1.0000
  H   H547      1.0  0.01260  0.88436  0.27560  1.0000
  H   H548      1.0  0.13683  0.63097  0.02679  1.0000
  H   H549      1.0  0.12294  0.48467  0.10891  1.0000
  C   C703      1.0  0.02108  0.75681  0.14295  1.0000
  S   S94       1.0  0.01153  0.90757  0.16990  1.0000
  H   H550      1.0  0.02279  0.75226  0.10943  1.0000
  C   C704      1.0  0.24148  0.83538  0.26795  1.0000
  C   C705      1.0  0.24623  0.83708  0.21354  1.0000
  H   H551      1.0  0.20060  0.92571  0.03012  1.0000
  H   H552      1.0  0.02770  0.55270  0.17833  1.0000
  C   C706      1.0  0.23875  0.48975  0.25560  1.0000
  C   C707      1.0  0.06258  0.96919  0.09663  1.0000
  H   H553      1.0  0.03393  0.88127  0.09237  1.0000
  C   C708      1.0  0.04606  0.95906  0.08924  1.0000
  C   C709      1.0  0.24770  0.78551  0.19572  1.0000
  C   C710      1.0  0.02493  0.83780  0.31973  1.0000
  H   H554      1.0  0.07046  0.95722  0.10778  1.0000
  H   H555      1.0  0.24811  0.76561  0.18860  1.0000
  H   H556      1.0  0.01880  0.79595  0.31696  1.0000
  C   C711      1.0  0.24917  0.84798  0.28519  1.0000
  H   H557      1.0  0.01327  0.67228  0.29032  1.0000
  C   C712      1.0  0.12582  0.96438  0.06501  1.0000
  C   C713      1.0  0.25131  0.48392  0.23909  1.0000
  H   H558      1.0  0.21258  0.48020  0.27031  1.0000
  C   C714      1.0  0.22217  0.47587  0.25733  1.0000
  C   C715      1.0  0.10539  0.97164  0.15597  1.0000
  H   H559      1.0  0.13539  0.47412  0.05156  1.0000
  Fe  Fe49      1.0  0.02542  0.93165  0.58042  1.0000
  Fe  Fe50      1.0  0.05993  0.91980  0.60768  1.0000
  S   S95       1.0  0.04303  0.91110  0.63667  1.0000
  S   S96       1.0  0.09119  0.91421  0.60736  1.0000
  Fe  Fe51      1.0  0.02497  0.88730  0.61569  1.0000
  H   H560      1.0  0.06063  0.51340  0.56481  1.0000
  Fe  Fe52      1.0  0.02619  0.94800  0.62671  1.0000
  H   H561      1.0  0.09150  0.49246  0.63807  1.0000
  S   S97       1.0  0.04294  0.89408  0.58695  1.0000
  C   C716      1.0  0.15641  0.49134  0.58061  1.0000
  S   S98       1.0  0.04441  0.95801  0.59877  1.0000
  C   C717      1.0  0.06544  0.82277  0.60551  1.0000
  H   H562      1.0  0.08063  0.94039  0.64713  1.0000
  C   C718      1.0  0.01760  0.77028  0.65023  1.0000
  S   S99       1.0  0.18606  0.92465  0.65686  1.0000
  H   H563      1.0  0.05115  0.92164  0.50264  1.0000
  H   H564      1.0  0.23484  0.72406  0.42354  1.0000
  S   S100      1.0  0.21953  0.49816  0.62347  1.0000
  H   H565      1.0  0.09818  0.60348  0.65441  1.0000
  H   H566      1.0  0.08858  0.68908  0.65837  1.0000
  Fe  Fe53      1.0  0.17404  0.67975  0.61050  1.0000
  S   S101      1.0  0.19215  0.68895  0.63749  1.0000
  S   S102      1.0  0.14313  0.68652  0.61210  1.0000
  Fe  Fe54      1.0  0.20665  0.66547  0.58033  1.0000
  S   S103      1.0  0.22739  0.67434  0.60515  1.0000
  S   S104      1.0  0.21227  0.65585  0.54549  1.0000
  Fe  Fe55      1.0  0.20814  0.65148  0.62686  1.0000
  C   C719      1.0  0.09017  0.50996  0.64823  1.0000
  Fe  Fe56      1.0  0.20944  0.71123  0.61367  1.0000
  S   S105      1.0  0.22116  0.75350  0.61779  1.0000
  S   S106      1.0  0.18839  0.64055  0.60163  1.0000
  S   S107      1.0  0.19027  0.70411  0.58709  1.0000
  H   H567      1.0  0.01184  0.90453  0.35280  1.0000
  H   H568      1.0  0.22248  0.68295  0.40826  1.0000
  H   H569      1.0  0.04697  0.54808  0.50492  1.0000
  H   H570      1.0  0.05535  0.78367  0.61418  1.0000
  S   S108      1.0  0.02436  0.61911  0.64113  1.0000
  H   H571      1.0  0.03106  0.57484  0.61254  1.0000
  H   H572      1.0  0.12661  0.57204  0.60114  1.0000
  H   H573      1.0  0.01633  0.84042  0.33380  1.0000
  C   C720      1.0  0.01829  0.60504  0.57716  1.0000
  C   C721      1.0  0.23190  0.77378  0.46674  1.0000
  C   C722      1.0  0.18802  0.53628  0.52059  1.0000
  C   C723      1.0  0.02661  0.55442  0.52981  1.0000
  C   C724      1.0  0.22685  0.63068  0.53315  1.0000
  C   C725      1.0  0.22813  0.62995  0.51103  1.0000
  C   C726      1.0  0.24802  0.59151  0.53408  1.0000
  C   C727      1.0  0.24333  0.71094  0.51956  1.0000
  C   C728      1.0  0.23688  0.61128  0.54463  1.0000
  H   H574      1.0  0.14984  0.48561  0.66355  1.0000
  H   H575      1.0  0.23602  0.61146  0.56162  1.0000
  C   C729      1.0  0.21959  0.53209  0.63201  1.0000
  C   C730      1.0  0.10624  0.94443  0.66376  1.0000
  H   H576      1.0  0.12598  0.56560  0.65229  1.0000
  C   C731      1.0  0.21851  0.58699  0.64404  1.0000
  C   C732      1.0  0.21614  0.57997  0.62308  1.0000
  C   C733      1.0  0.21679  0.55271  0.61714  1.0000
  C   C734      1.0  0.13974  0.66404  0.65168  1.0000
  H   H577      1.0  0.03113  0.53121  0.58002  1.0000
  H   H578      1.0  0.21394  0.59553  0.61136  1.0000
  H   H579      1.0  0.21502  0.54762  0.60091  1.0000
  C   C735      1.0  0.25133  0.47345  0.51992  1.0000
  C   C736      1.0  0.22475  0.80942  0.44163  1.0000
  H   H580      1.0  0.01505  0.94467  0.50064  1.0000
  C   C737      1.0  0.21283  0.78110  0.63368  1.0000
  C   C738      1.0  0.22150  0.80619  0.63179  1.0000
  C   C739      1.0  0.21624  0.82817  0.64493  1.0000
  C   C740      1.0  0.04360  0.54478  0.52141  1.0000
  H   H581      1.0  0.00972  0.95086  0.33767  1.0000
  H   H582      1.0  0.23259  0.80856  0.62025  1.0000
  H   H583      1.0  0.22343  0.84704  0.64359  1.0000
  C   C741      1.0  0.14982  0.59031  0.65397  1.0000
  C   C742      1.0  0.08624  0.53884  0.59734  1.0000
  C   C743      1.0  0.14751  0.48178  0.56284  1.0000
  C   C744      1.0  0.13155  0.68006  0.63607  1.0000
  C   C745      1.0  0.11320  0.68948  0.63878  1.0000
  H   H584      1.0  0.19838  0.47620  0.54421  1.0000
  H   H585      1.0  0.01946  0.74231  0.61015  1.0000
  H   H586      1.0  0.10692  0.70215  0.62687  1.0000
  H   H587      1.0  0.11771  0.48757  0.58933  1.0000
  C   C746      1.0  0.10386  0.92311  0.62960  1.0000
  C   C747      1.0  0.12306  0.91795  0.62946  1.0000
  C   C748      1.0  0.13382  0.92608  0.64632  1.0000
  H   H588      1.0  0.05303  0.82872  0.59714  1.0000
  H   H589      1.0  0.22947  0.76483  0.48206  1.0000
  C   C749      1.0  0.09542  0.93622  0.64690  1.0000
  H   H590      1.0  0.14854  0.92189  0.64592  1.0000
  C   C750      1.0  0.08239  0.79017  0.62675  1.0000
  S   S109      1.0  0.25652  0.78691  0.35731  1.0000
  H   H591      1.0  0.21707  0.82774  0.43746  1.0000
  H   H592      1.0  0.08415  0.49597  0.59227  1.0000
  S   S110      1.0  0.02268  0.49166  0.65425  1.0000
  C   C751      1.0  0.25437  0.67712  0.45631  1.0000
  C   C752      1.0  0.02428  0.58371  0.64493  1.0000
  C   C753      1.0  0.06237  0.61758  0.52860  1.0000
  H   H593      1.0  0.25137  0.63404  0.45339  1.0000
  S   S111      1.0  0.21691  0.62117  0.65187  1.0000
  C   C754      1.0  0.09341  0.51280  0.59338  1.0000
  H   H594      1.0  0.05876  0.58564  0.55131  1.0000
  H   H595      1.0  0.20787  0.56656  0.51202  1.0000
  C   C755      1.0  0.07269  0.54950  0.66040  1.0000
  H   H596      1.0  0.23465  0.53991  0.52473  1.0000
  H   H597      1.0  0.13646  0.49364  0.55574  1.0000
  C   C756      1.0  0.22229  0.53903  0.65301  1.0000
  C   C757      1.0  0.07517  0.95578  0.53916  1.0000
  C   C758      1.0  0.24738  0.65384  0.44740  1.0000
  H   H598      1.0  0.25564  0.57659  0.54313  1.0000
  C   C759      1.0  0.22179  0.79722  0.46126  1.0000
  H   H599      1.0  0.24425  0.74988  0.66274  1.0000
  C   C760      1.0  0.22095  0.53174  0.52637  1.0000
  C   C761      1.0  0.05979  0.92492  0.51604  1.0000
  C   C762      1.0  0.06498  0.90314  0.52888  1.0000
  C   C763      1.0  0.07550  0.90751  0.54663  1.0000
  C   C764      1.0  0.08053  0.93369  0.55179  1.0000
  C   C765      1.0  0.24380  0.71454  0.49776  1.0000
  H   H600      1.0  0.02424  0.47957  0.53826  1.0000
  H   H601      1.0  0.12970  0.90784  0.61614  1.0000
  H   H602      1.0  0.22038  0.64477  0.50196  1.0000
  C   C766      1.0  0.20240  0.82520  0.66047  1.0000
  C   C767      1.0  0.02342  0.52700  0.65019  1.0000
  H   H603      1.0  0.08304  0.77040  0.63408  1.0000
  C   C768      1.0  0.24977  0.70283  0.44812  1.0000
  C   C769      1.0  0.05586  0.53000  0.53401  1.0000
  C   C770      1.0  0.24842  0.48457  0.49987  1.0000
  S   S112      1.0  0.01876  0.93862  0.54535  1.0000
  H   H604      1.0  0.23210  0.70004  0.52703  1.0000
  H   H605      1.0  0.17171  0.50286  0.53111  1.0000
  H   H606      1.0  0.03225  0.63794  0.59159  1.0000
  C   C771      1.0  0.25787  0.53992  0.58565  1.0000
  C   C772      1.0  0.24507  0.76234  0.45255  1.0000
  P   P25       1.0  0.11586  0.80095  0.64620  1.0000
  H   H607      1.0  0.05850  0.60535  0.51539  1.0000
  H   H608      1.0  0.06047  0.88298  0.52535  1.0000
  H   H609      1.0  0.07933  0.89074  0.55682  1.0000
  H   H610      1.0  0.08835  0.93649  0.56584  1.0000
  C   C773      1.0  0.06675  0.79739  0.61518  1.0000
  C   C774      1.0  0.09827  0.56012  0.59997  1.0000
  C   C775      1.0  0.24925  0.59071  0.51196  1.0000
  C   C776      1.0  0.02176  0.54940  0.55095  1.0000
  C   C777      1.0  0.10269  0.68175  0.65648  1.0000
  H   H611      1.0  0.01715  0.56510  0.51956  1.0000
  C   C778      1.0  0.22189  0.56650  0.65895  1.0000
  H   H612      1.0  0.23057  0.63786  0.42310  1.0000
  H   H613      1.0  0.06881  0.52194  0.52735  1.0000
  C   C779      1.0  0.12478  0.52967  0.59309  1.0000
  C   C780      1.0  0.11257  0.50814  0.59151  1.0000
  P   P26       1.0  0.14965  0.52368  0.59194  1.0000
  C   C781      1.0  0.15651  0.52291  0.61895  1.0000
  H   H614      1.0  0.14966  0.59591  0.63751  1.0000
  C   C782      1.0  0.19845  0.77846  0.64863  1.0000
  C   C783      1.0  0.18548  0.51085  0.52976  1.0000
  H   H615      1.0  0.23978  0.60952  0.48353  1.0000
  C   C784      1.0  0.16936  0.54102  0.62655  1.0000
  C   C785      1.0  0.02149  0.81724  0.63830  1.0000
  C   C786      1.0  0.05128  0.52526  0.55513  1.0000
  C   C787      1.0  0.03390  0.82086  0.65458  1.0000
  C   C788      1.0  0.14921  0.50323  0.63252  1.0000
  C   C789      1.0  0.16223  0.54873  0.57691  1.0000
  C   C790      1.0  0.15303  0.56966  0.56593  1.0000
  C   C791      1.0  0.16319  0.58991  0.55586  1.0000
  C   C792      1.0  0.18254  0.58915  0.55632  1.0000
  C   C793      1.0  0.19179  0.56775  0.56635  1.0000
  C   C794      1.0  0.18170  0.54737  0.57630  1.0000
  C   C795      1.0  0.11747  0.55550  0.59827  1.0000
  C   C796      1.0  0.15517  0.50116  0.65321  1.0000
  H   H616      1.0  0.23343  0.51679  0.58168  1.0000
  H   H617      1.0  0.09268  0.58010  0.60369  1.0000
  S   S113      1.0  0.25335  0.54297  0.43859  1.0000
  H   H618      1.0  0.17492  0.55695  0.61680  1.0000
  C   C797      1.0  0.24693  0.52160  0.57518  1.0000
  H   H619      1.0  0.01089  0.75113  0.64873  1.0000
  C   C798      1.0  0.06249  0.60648  0.54883  1.0000
  S   S114      1.0  0.05138  0.67749  0.66359  1.0000
  H   H620      1.0  0.13811  0.57056  0.56506  1.0000
  H   H621      1.0  0.15610  0.60640  0.54781  1.0000
  H   H622      1.0  0.19040  0.60503  0.54874  1.0000
  H   H623      1.0  0.20683  0.56696  0.56629  1.0000
  H   H624      1.0  0.18908  0.53084  0.58396  1.0000
  C   C799      1.0  0.10796  0.62337  0.62628  1.0000
  C   C800      1.0  0.09433  0.61499  0.64061  1.0000
  C   C801      1.0  0.07580  0.62242  0.63752  1.0000
  C   C802      1.0  0.07098  0.63899  0.62052  1.0000
  C   C803      1.0  0.08474  0.64836  0.60651  1.0000
  C   C804      1.0  0.10321  0.63974  0.60918  1.0000
  P   P27       1.0  0.07848  0.67005  0.58472  1.0000
  C   C805      1.0  0.05935  0.69220  0.59287  1.0000
  C   C806      1.0  0.09793  0.69049  0.57678  1.0000
  C   C807      1.0  0.09888  0.71767  0.58297  1.0000
  C   C808      1.0  0.11412  0.73304  0.57694  1.0000
  C   C809      1.0  0.12855  0.72143  0.56476  1.0000
  C   C810      1.0  0.12767  0.69452  0.55838  1.0000
  C   C811      1.0  0.11240  0.67913  0.56427  1.0000
  C   C812      1.0  0.04473  0.69828  0.57929  1.0000
  C   C813      1.0  0.03039  0.71628  0.58556  1.0000
  C   C814      1.0  0.03053  0.72825  0.60539  1.0000
  C   C815      1.0  0.04498  0.72220  0.61903  1.0000
  C   C816      1.0  0.05933  0.70425  0.61280  1.0000
  C   C817      1.0  0.07220  0.64936  0.56283  1.0000
  C   C818      1.0  0.06731  0.62230  0.56592  1.0000
  H   H625      1.0  0.03058  0.59209  0.57682  1.0000
  C   C819      1.0  0.07433  0.52671  0.64754  1.0000
  C   C820      1.0  0.06723  0.64448  0.52540  1.0000
  C   C821      1.0  0.07217  0.66032  0.54243  1.0000
  H   H626      1.0  0.12236  0.61836  0.62891  1.0000
  H   H627      1.0  0.17470  0.61206  0.65965  1.0000
  H   H628      1.0  0.06517  0.61606  0.64866  1.0000
  H   H629      1.0  0.05656  0.64494  0.61867  1.0000
  H   H630      1.0  0.11418  0.64663  0.59878  1.0000
  H   H631      1.0  0.08808  0.72719  0.59260  1.0000
  H   H632      1.0  0.11487  0.75387  0.58197  1.0000
  H   H633      1.0  0.14055  0.73317  0.56054  1.0000
  H   H634      1.0  0.13906  0.68545  0.54926  1.0000
  H   H635      1.0  0.11209  0.65820  0.55942  1.0000
  H   H636      1.0  0.04435  0.68942  0.56382  1.0000
  H   H637      1.0  0.17868  0.48305  0.60241  1.0000
  C   C822      1.0  0.06493  0.95112  0.52107  1.0000
  H   H638      1.0  0.04507  0.73145  0.63446  1.0000
  H   H639      1.0  0.07054  0.70002  0.62349  1.0000
  H   H640      1.0  0.06711  0.61332  0.58146  1.0000
  H   H641      1.0  0.13918  0.48915  0.62702  1.0000
  H   H642      1.0  0.24009  0.80757  0.41217  1.0000
  H   H643      1.0  0.07138  0.54234  0.59906  1.0000
  H   H644      1.0  0.07587  0.68118  0.53971  1.0000
  C   C823      1.0  0.16524  0.80388  0.61305  1.0000
  C   C824      1.0  0.16749  0.77761  0.60531  1.0000
  C   C825      1.0  0.15357  0.75893  0.60885  1.0000
  C   C826      1.0  0.13769  0.76614  0.62079  1.0000
  C   C827      1.0  0.13578  0.79210  0.62957  1.0000
  C   C828      1.0  0.14930  0.81130  0.62477  1.0000
  C   C829      1.0  0.17529  0.53874  0.64720  1.0000
  C   C830      1.0  0.09663  0.80869  0.62923  1.0000
  H   H645      1.0  0.18520  0.55270  0.65301  1.0000
  C   C831      1.0  0.17114  0.47592  0.58906  1.0000
  H   H646      1.0  0.01847  0.50736  0.50623  1.0000
  C   C832      1.0  0.20577  0.54676  0.51898  1.0000
  C   C833      1.0  0.01350  0.79174  0.63618  1.0000
  C   C834      1.0  0.21862  0.50600  0.53523  1.0000
  H   H647      1.0  0.15393  0.65677  0.64965  1.0000
  H   H648      1.0  0.17625  0.54801  0.51494  1.0000
  H   H649      1.0  0.06714  0.65311  0.50970  1.0000
  C   C835      1.0  0.08000  0.84068  0.60694  1.0000
  C   C836      1.0  0.09560  0.83366  0.61863  1.0000
  H   H650      1.0  0.06334  0.52190  0.63702  1.0000
  H   H651      1.0  0.14778  0.83193  0.63029  1.0000
  H   H652      1.0  0.17601  0.81842  0.61022  1.0000
  H   H653      1.0  0.18006  0.77172  0.59662  1.0000
  H   H654      1.0  0.15523  0.73872  0.60254  1.0000
  H   H655      1.0  0.12716  0.75122  0.62352  1.0000
  C   C837      1.0  0.23815  0.70474  0.43074  1.0000
  H   H656      1.0  0.23278  0.70640  0.48862  1.0000
  C   C838      1.0  0.02795  0.56639  0.62782  1.0000
  C   C839      1.0  0.00980  0.47424  0.43484  1.0000
  H   H657      1.0  0.19151  0.75943  0.65018  1.0000
  C   C840      1.0  0.03441  0.53515  0.56364  1.0000
  C   C841      1.0  0.23921  0.61008  0.50050  1.0000
  C   C842      1.0  0.20070  0.49573  0.53712  1.0000
  H   H658      1.0  0.01920  0.72116  0.57500  1.0000
  H   H659      1.0  0.07898  0.86033  0.59939  1.0000
  H   H660      1.0  0.10653  0.84815  0.61991  1.0000
  H   H661      1.0  0.21173  0.80606  0.47229  1.0000
  C   C843      1.0  0.23103  0.68141  0.42200  1.0000
  C   C844      1.0  0.23561  0.65599  0.43035  1.0000
  C   C845      1.0  0.02760  0.53812  0.63045  1.0000
  H   H662      1.0  0.03030  0.52487  0.61724  1.0000
  C   C846      1.0  0.12551  0.93966  0.66345  1.0000
  S   S115      1.0  0.01503  0.84376  0.62051  1.0000
  H   H663      1.0  0.25566  0.72179  0.63333  1.0000
  H   H664      1.0  0.04016  0.84031  0.65647  1.0000
  H   H665      1.0  0.25071  0.69326  0.36721  1.0000
  C   C847      1.0  0.13651  0.57299  0.66245  1.0000
  C   C848      1.0  0.23768  0.79804  0.42737  1.0000
  C   C849      1.0  0.16831  0.51879  0.66045  1.0000
  C   C850      1.0  0.19337  0.80033  0.66198  1.0000
  C   C851      1.0  0.24768  0.77451  0.43272  1.0000
  H   H666      1.0  0.25647  0.48359  0.46709  1.0000
  C   C852      1.0  0.25415  0.65161  0.37748  1.0000
  C   C853      1.0  0.01932  0.63106  0.58549  1.0000
  H   H667      1.0  0.25777  0.67178  0.63705  1.0000
  H   H668      1.0  0.25669  0.71874  0.54870  1.0000
  H   H669      1.0  0.23853  0.50100  0.49744  1.0000
  H   H670      1.0  0.25288  0.54895  0.60026  1.0000
  C   C854      1.0  0.25346  0.50927  0.55656  1.0000
  S   S116      1.0  0.25578  0.59981  0.39400  1.0000
  P   P28       1.0  0.23888  0.48637  0.54286  1.0000
  H   H671      1.0  0.09414  0.84975  0.65975  1.0000
  C   C855      1.0  0.25182  0.71226  0.64814  1.0000
  C   C856      1.0  0.12106  0.82948  0.66252  1.0000
  C   C857      1.0  0.01148  0.47761  0.52989  1.0000
  H   H672      1.0  0.24352  0.64425  0.36745  1.0000
  C   C858      1.0  0.25286  0.68412  0.65016  1.0000
  H   H673      1.0  0.06037  0.96780  0.51120  1.0000
  H   H674      1.0  0.15961  0.97169  0.64671  1.0000
  C   C859      1.0  0.10415  0.51549  0.66225  1.0000
  H   H675      1.0  0.13676  0.75295  0.66211  1.0000
  H   H676      1.0  0.06046  0.56264  0.65966  1.0000
  H   H677      1.0  0.11625  0.50210  0.66259  1.0000
  H   H678      1.0  0.01132  0.48793  0.40263  1.0000
  H   H679      1.0  0.01091  0.49433  0.44135  1.0000
  H   H680      1.0  0.25764  0.76602  0.42143  1.0000
  C   C860      1.0  0.25723  0.72146  0.53177  1.0000
  Fe  Fe57      1.0  0.06600  0.66002  0.69133  1.0000
  Fe  Fe58      1.0  0.02955  0.65234  0.71670  1.0000
  H   H681      1.0  0.18684  0.92614  0.80567  1.0000
  S   S117      1.0  0.04705  0.62513  0.69555  1.0000
  S   S118      1.0  0.05006  0.68584  0.71448  1.0000
  C   C861      1.0  0.23696  0.83894  0.76897  1.0000
  C   C862      1.0  0.21627  0.90792  0.84459  1.0000
  C   C863      1.0  0.04289  0.56813  0.73774  1.0000
  Fe  Fe59      1.0  0.20436  0.94383  0.71252  1.0000
  H   H682      1.0  0.22989  0.51349  0.97685  1.0000
  S   S119      1.0  0.21196  0.95156  0.74695  1.0000
  Fe  Fe60      1.0  0.16988  0.94240  0.68420  1.0000
  S   S120      1.0  0.13879  0.95141  0.68447  1.0000
  C   C864      1.0  0.05520  0.55803  0.72226  1.0000
  S   S121      1.0  0.18212  0.91345  0.70756  1.0000
  C   C865      1.0  0.12302  0.75343  0.66926  1.0000
  C   C866      1.0  0.23973  0.71603  0.68399  1.0000
  C   C867      1.0  0.24527  0.72820  0.66496  1.0000
  H   H683      1.0  0.18922  0.92747  0.84453  1.0000
  H   H684      1.0  0.01640  0.94281  0.79617  1.0000
  C   C868      1.0  0.21346  0.90620  0.80092  1.0000
  C   C869      1.0  0.17870  0.76896  0.71301  1.0000
  H   H685      1.0  0.24045  0.82984  0.68120  1.0000
  C   C870      1.0  0.11777  0.48846  0.70530  1.0000
  C   C871      1.0  0.11015  0.77431  0.66461  1.0000
  C   C872      1.0  0.05179  0.53350  0.71245  1.0000
  C   C873      1.0  0.03574  0.51950  0.71760  1.0000
  S   S122      1.0  0.02264  0.63725  0.74999  1.0000
  H   H686      1.0  0.22934  0.92529  0.91032  1.0000
  H   H687      1.0  0.24217  0.56031  0.71051  1.0000
  C   C874      1.0  0.17684  0.73135  0.68901  1.0000
  H   H688      1.0  0.25312  0.48022  0.78793  1.0000
  S   S123      1.0  0.22271  0.92519  0.68700  1.0000
  Fe  Fe61      1.0  0.19943  0.89669  0.68043  1.0000
  H   H689      1.0  0.02620  0.49693  0.77107  1.0000
  C   C875      1.0  0.01755  0.97049  0.76986  1.0000
  S   S124      1.0  0.25285  0.81627  0.97825  1.0000
  C   C876      1.0  0.20952  0.52143  0.75363  1.0000
  C   C877      1.0  0.22207  0.71441  0.74554  1.0000
  C   C878      1.0  0.10214  0.53743  0.67616  1.0000
  Fe  Fe62      1.0  0.03421  0.70202  0.68674  1.0000
  H   H690      1.0  0.20370  0.63923  0.76787  1.0000
  S   S125      1.0  0.09709  0.65319  0.69317  1.0000
  H   H691      1.0  0.04705  0.80282  0.68162  1.0000
  H   H692      1.0  0.25093  0.58359  0.76433  1.0000
  H   H693      1.0  0.06723  0.56944  0.71777  1.0000
  C   C879      1.0  0.21558  0.62921  0.77468  1.0000
  H   H694      1.0  0.24665  0.67671  0.78083  1.0000
  H   H695      1.0  0.16881  0.71908  0.67869  1.0000
  P   P29       1.0  0.22062  0.59978  0.73710  1.0000
  C   C880      1.0  0.21241  0.56558  0.73709  1.0000
  C   C881      1.0  0.20273  0.62139  0.72582  1.0000
  C   C882      1.0  0.20591  0.63515  0.70674  1.0000
  C   C883      1.0  0.19195  0.65154  0.69804  1.0000
  C   C884      1.0  0.17466  0.65433  0.70824  1.0000
  C   C885      1.0  0.17117  0.64012  0.72691  1.0000
  C   C886      1.0  0.18504  0.62335  0.73548  1.0000
  C   C887      1.0  0.21449  0.54851  0.75466  1.0000
  C   C888      1.0  0.24861  0.84281  0.99679  1.0000
  C   C889      1.0  0.22949  0.89551  0.81037  1.0000
  C   C890      1.0  0.08660  0.55497  0.67461  1.0000
  C   C891      1.0  0.20493  0.55523  0.71870  1.0000
  C   C892      1.0  0.09271  0.77479  0.67494  1.0000
  S   S126      1.0  0.01216  0.67026  0.69067  1.0000
  C   C893      1.0  0.11243  0.87295  0.67804  1.0000
  C   C894      1.0  0.20266  0.51109  0.73507  1.0000
  C   C895      1.0  0.20630  0.92540  0.97675  1.0000
  C   C896      1.0  0.12924  0.51101  0.70399  1.0000
  C   C897      1.0  0.01553  0.76359  0.84288  1.0000
  C   C898      1.0  0.13713  0.56515  0.68372  1.0000
  C   C899      1.0  0.01291  0.50219  0.77840  1.0000
  H   H696      1.0  0.25233  0.80426  0.84430  1.0000
  C   C900      1.0  0.22967  0.85691  0.91437  1.0000
  H   H697      1.0  0.21892  0.63273  0.69809  1.0000
  H   H698      1.0  0.19444  0.66143  0.68303  1.0000
  H   H699      1.0  0.16379  0.66683  0.70133  1.0000
  H   H700      1.0  0.15757  0.64169  0.73448  1.0000
  H   H701      1.0  0.18197  0.61186  0.74963  1.0000
  H   H702      1.0  0.22043  0.55555  0.76900  1.0000
  H   H703      1.0  0.17276  0.50005  0.96330  1.0000
  C   C901      1.0  0.02976  0.96750  0.70653  1.0000
  H   H704      1.0  0.20347  0.56788  0.70488  1.0000
  C   C902      1.0  0.22596  0.69968  0.76383  1.0000
  H   H705      1.0  0.10321  0.49030  0.70164  1.0000
  H   H706      1.0  0.03524  0.74987  0.81907  1.0000
  H   H707      1.0  0.12786  0.71613  0.68622  1.0000
  C   C903      1.0  0.24871  0.54135  0.96253  1.0000
  H   H708      1.0  0.09651  0.71614  0.70293  1.0000
  C   C904      1.0  0.18275  0.48518  0.96902  1.0000
  C   C905      1.0  0.25656  0.50911  0.73949  1.0000
  H   H709      1.0  0.21205  0.90624  0.78404  1.0000
  C   C906      1.0  0.21648  0.96217  0.94076  1.0000
  H   H710      1.0  0.13371  0.89236  0.69526  1.0000
  S   S127      1.0  0.19783  0.85016  0.68024  1.0000
  H   H711      1.0  0.03319  0.50096  0.70931  1.0000
  P   P30       1.0  0.22309  0.93265  0.95605  1.0000
  C   C907      1.0  0.20652  0.74254  0.70358  1.0000
  C   C908      1.0  0.22955  0.97106  0.75849  1.0000
  C   C909      1.0  0.13845  0.83069  0.67195  1.0000
  H   H712      1.0  0.20829  0.72312  0.74372  1.0000
  C   C910      1.0  0.02972  0.77404  0.66674  1.0000
  C   C911      1.0  0.24029  0.68766  0.68563  1.0000
  C   C912      1.0  0.10048  0.73269  0.69266  1.0000
  C   C913      1.0  0.02083  0.75041  0.82423  1.0000
  H   H713      1.0  0.23538  0.90567  0.75517  1.0000
  H   H714      1.0  0.01618  0.53600  0.68247  1.0000
  H   H715      1.0  0.21529  0.69731  0.77591  1.0000
  H   H716      1.0  0.04546  0.58726  0.74527  1.0000
  H   H717      1.0  0.07956  0.95859  0.72766  1.0000
  H   H718      1.0  0.01616  0.96992  0.69990  1.0000
  C   C914      1.0  0.08782  0.75385  0.68865  1.0000
  H   H719      1.0  0.06996  0.93151  0.69723  1.0000
  C   C915      1.0  0.24547  0.93957  0.96645  1.0000
  C   C916      1.0  0.25765  0.86742  0.99543  1.0000
  C   C917      1.0  0.16472  0.59162  0.68748  1.0000
  C   C918      1.0  0.24700  0.67183  0.66885  1.0000
  H   H720      1.0  0.01859  0.60977  0.78941  1.0000
  C   C919      1.0  0.23017  0.96502  0.86850  1.0000
  H   H721      1.0  0.10242  0.88946  0.68026  1.0000
  H   H722      1.0  0.08500  0.57267  0.68448  1.0000
  H   H723      1.0  0.20240  0.71007  0.68158  1.0000
  C   C920      1.0  0.24620  0.49455  0.95167  1.0000
  H   H724      1.0  0.24413  0.55805  0.97250  1.0000
  C   C921      1.0  0.23374  0.88401  0.75421  1.0000
  H   H725      1.0  0.24563  0.49258  0.71093  1.0000
  C   C922      1.0  0.23083  0.89666  0.83236  1.0000
  H   H726      1.0  0.18607  0.91048  0.95537  1.0000
  H   H727      1.0  0.03029  0.96141  0.76364  1.0000
  C   C923      1.0  0.20042  0.91856  0.83503  1.0000
  C   C924      1.0  0.16823  0.75263  0.70022  1.0000
  C   C925      1.0  0.19904  0.91775  0.81320  1.0000
  H   H728      1.0  0.14872  0.81451  0.66978  1.0000
  C   C926      1.0  0.01051  0.49884  0.80014  1.0000
  H   H729      1.0  0.16326  0.89915  0.98339  1.0000
  H   H730      1.0  0.24117  0.82522  0.78134  1.0000
  H   H731      1.0  0.21182  0.50808  0.76694  1.0000
  C   C927      1.0  0.03784  0.79948  0.66878  1.0000
  C   C928      1.0  0.24670  0.60516  0.79327  1.0000
  C   C929      1.0  0.02030  0.57257  0.66470  1.0000
  C   C930      1.0  0.20031  0.52801  0.71764  1.0000
  C   C931      1.0  0.24890  0.57959  0.71001  1.0000
  P   P31       1.0  0.11977  0.54342  0.69520  1.0000
  C   C932      1.0  0.10930  0.56057  0.71769  1.0000
  H   H732      1.0  0.18754  0.96308  0.95070  1.0000
  H   H733      1.0  0.22689  0.80679  0.74986  1.0000
  C   C933      1.0  0.13004  0.87455  0.68656  1.0000
  H   H734      1.0  0.17595  0.59819  0.69693  1.0000
  C   C934      1.0  0.25125  0.62626  0.72082  1.0000
  H   H735      1.0  0.24728  0.64994  0.67011  1.0000
  C   C935      1.0  0.10719  0.58888  0.71755  1.0000
  C   C936      1.0  0.09855  0.60232  0.73455  1.0000
  C   C937      1.0  0.09207  0.58766  0.75191  1.0000
  C   C938      1.0  0.09423  0.55949  0.75227  1.0000
  C   C939      1.0  0.10274  0.54594  0.73521  1.0000
  C   C940      1.0  0.23674  0.78898  0.69208  1.0000
  C   C941      1.0  0.11814  0.73268  0.68318  1.0000
  H   H736      1.0  0.23175  0.83911  0.90465  1.0000
  H   H737      1.0  0.01723  0.56251  0.75470  1.0000
  H   H738      1.0  0.03815  0.93738  0.68368  1.0000
  C   C942      1.0  0.15105  0.57531  0.69630  1.0000
  C   C943      1.0  0.14300  0.85333  0.68365  1.0000
  H   H739      1.0  0.23349  0.88438  0.88856  1.0000
  H   H740      1.0  0.23881  0.94894  0.87499  1.0000
  C   C944      1.0  0.12917  0.65631  0.66947  1.0000
  C   C945      1.0  0.25150  0.48308  0.77120  1.0000
  H   H741      1.0  0.23534  0.67769  0.69975  1.0000
  C   C946      1.0  0.22879  0.82835  0.75114  1.0000
  H   H742      1.0  0.17208  0.78585  0.72129  1.0000
  S   S128      1.0  0.03401  0.74853  0.68615  1.0000
  H   H743      1.0  0.15709  0.52460  0.70921  1.0000
  H   H744      1.0  0.11192  0.60063  0.70415  1.0000
  H   H745      1.0  0.09664  0.62416  0.73409  1.0000
  H   H746      1.0  0.08516  0.59814  0.76494  1.0000
  C   C947      1.0  0.16403  0.59939  0.66642  1.0000
  H   H747      1.0  0.22082  0.88678  0.72407  1.0000
  C   C948      1.0  0.22472  0.87726  0.94861  1.0000
  C   C949      1.0  0.22548  0.87338  0.73652  1.0000
  H   H748      1.0  0.22316  0.87475  0.96550  1.0000
  H   H749      1.0  0.22213  0.95835  0.78992  1.0000
  H   H750      1.0  0.15143  0.57050  0.71291  1.0000
  H   H751      1.0  0.15350  0.75681  0.69877  1.0000
  H   H752      1.0  0.06130  0.52552  0.70049  1.0000
  C   C950      1.0  0.22692  0.85424  0.93607  1.0000
  C   C951      1.0  0.22290  0.84560  0.73501  1.0000
  C   C952      1.0  0.24794  0.96371  0.97742  1.0000
  C   C953      1.0  0.19593  0.72630  0.69068  1.0000
  H   H753      1.0  0.10398  0.52412  0.73576  1.0000
  C   C954      1.0  0.22511  0.90318  0.93947  1.0000
  C   C955      1.0  0.24173  0.60189  0.72144  1.0000
  C   C956      1.0  0.18925  0.91436  0.97162  1.0000
  P   P32       1.0  0.24842  0.88123  0.79446  1.0000
  H   H754      1.0  0.01730  0.58569  0.67797  1.0000
  H   H755      1.0  0.22697  0.83431  0.94332  1.0000
  C   C957      1.0  0.06023  0.94570  0.70476  1.0000
  C   C958      1.0  0.22812  0.90568  0.91767  1.0000
  C   C959      1.0  0.23037  0.88257  0.90521  1.0000
  H   H756      1.0  0.21733  0.90853  0.86150  1.0000
  C   C960      1.0  0.23936  0.86695  0.77074  1.0000
  C   C961      1.0  0.19777  0.76398  0.71468  1.0000
  C   C962      1.0  0.11048  0.66467  0.67164  1.0000
  H   H757      1.0  0.19560  0.51973  0.70307  1.0000
  H   H758      1.0  0.02187  0.49119  0.80950  1.0000
  C   C963      1.0  0.24721  0.48977  0.72766  1.0000
  H   H759      1.0  0.21632  0.83755  0.72130  1.0000
  C   C964      1.0  0.22003  0.63578  0.79529  1.0000
  C   C965      1.0  0.10788  0.85045  0.66618  1.0000
  H   H760      1.0  0.21145  0.65017  0.80417  1.0000
  C   C966      1.0  0.02298  0.53001  0.73263  1.0000
  C   C967      1.0  0.24362  0.68806  0.76662  1.0000
  P   P33       1.0  0.23118  0.73623  0.70591  1.0000
  H   H761      1.0  0.20570  0.77706  0.72444  1.0000
  C   C968      1.0  0.24053  0.51611  0.96480  1.0000
  H   H762      1.0  0.19987  0.48969  0.73402  1.0000
  H   H763      1.0  0.22406  0.57187  0.67511  1.0000
  H   H764      1.0  0.15672  0.85468  0.69012  1.0000
  C   C969      1.0  0.24225  0.59841  0.77272  1.0000
  H   H765      1.0  0.07409  0.75387  0.69598  1.0000
  H   H766      1.0  0.13529  0.64319  0.68122  1.0000
  H   H767      1.0  0.20413  0.49667  0.94691  1.0000
  H   H768      1.0  0.01264  0.86807  0.98248  1.0000
  C   C970      1.0  0.14791  0.50781  0.70954  1.0000
  H   H769      1.0  0.20585  0.95433  0.88656  1.0000
  H   H770      1.0  0.01206  0.72703  0.79819  1.0000
  C   C971      1.0  0.02691  0.55407  0.74305  1.0000
  H   H771      1.0  0.08903  0.54812  0.76566  1.0000
  C   C972      1.0  0.15514  0.48234  0.71520  1.0000
  H   H772      1.0  0.02579  0.77329  0.85221  1.0000
  H   H773      1.0  0.24425  0.96801  0.92800  1.0000
  C   C973      1.0  0.24235  0.76858  0.70615  1.0000
  H   H774      1.0  0.23564  0.83810  0.82258  1.0000
  H   H775      1.0  0.23335  0.48073  0.91088  1.0000
  H   H776      1.0  0.09967  0.95454  0.67707  1.0000
  H   H777      1.0  0.24600  0.64351  0.72973  1.0000
  C   C974      1.0  0.22649  0.61009  0.76333  1.0000
  C   C975      1.0  0.23589  0.71765  0.72988  1.0000
  C   C976      1.0  0.04230  0.94888  0.69719  1.0000
  C   C977      1.0  0.23125  0.97064  0.78050  1.0000
  H   H778      1.0  0.24313  0.88899  0.84012  1.0000
  H   H779      1.0  0.17320  0.51696  0.67627  1.0000
  C   C978      1.0  0.25065  0.83719  0.82199  1.0000
  H   H780      1.0  0.23885  0.62859  0.82063  1.0000
  C   C979      1.0  0.06562  0.96104  0.72184  1.0000
  Fe  Fe63      1.0  0.03105  0.64447  0.66945  1.0000
  H   H781      1.0  0.18264  0.79778  0.67387  1.0000
  H   H782      1.0  0.08272  0.79108  0.67209  1.0000
  C   C980      1.0  0.17632  0.90784  0.98744  1.0000
  C   C981      1.0  0.23552  0.62368  0.80459  1.0000
  H   H783      1.0  0.16968  0.47967  0.71876  1.0000
  C   C982      1.0  0.20054  0.48329  0.95984  1.0000
  C   C983      1.0  0.24509  0.81414  0.69200  1.0000
  H   H784      1.0  0.22585  0.78545  0.68111  1.0000
  C   C984      1.0  0.21160  0.96809  0.87498  1.0000
  C   C985      1.0  0.01969  0.54435  0.66724  1.0000
  C   C986      1.0  0.25355  0.70570  0.73275  1.0000
  C   C987      1.0  0.00971  0.95981  0.78835  1.0000
  H   H785      1.0  0.05513  0.73845  0.99632  1.0000
  C   C988      1.0  0.25661  0.77380  0.72014  1.0000
  C   C989      1.0  0.00841  0.84990  0.99066  1.0000
  Fe  Fe64      1.0  0.20755  0.95471  0.66552  1.0000
  C   C990      1.0  0.25740  0.69107  0.75108  1.0000
  H   H786      1.0  0.22468  0.52330  0.66460  1.0000
  H   H787      1.0  0.43535  0.32297  0.24025  1.0000
  C   C991      1.0  0.44733  0.03181  0.14632  1.0000
  C   C992      1.0  0.40611  0.25317  0.31771  1.0000
  S   S129      1.0  0.48083  0.05426  0.29415  1.0000
  H   H788      1.0  0.49356  0.28536  0.20066  1.0000
  H   H789      1.0  0.44241  0.27685  0.25403  1.0000
  H   H790      1.0  0.47831  0.40940  0.04153  1.0000
  C   C993      1.0  0.27685  0.19511  0.29602  1.0000
  C   C994      1.0  0.46527  0.02828  0.17819  1.0000
  H   H791      1.0  0.47517  0.30836  0.22917  1.0000
  C   C995      1.0  0.48868  0.08247  0.27929  1.0000
  C   C996      1.0  0.26180  0.19453  0.31018  1.0000
  H   H792      1.0  0.43784  0.26681  0.29182  1.0000
  C   C997      1.0  0.43336  0.31858  0.25684  1.0000
  C   C998      1.0  0.49401  0.00048  0.21941  1.0000
  C   C999      1.0  0.48283  0.10901  0.28388  1.0000
  C   C1000     1.0  0.26335  0.26256  0.03235  1.0000
  C   C1001     1.0  0.42687  0.33894  0.27051  1.0000
  H   H793      1.0  0.47312  0.11270  0.29679  1.0000
  C   C1002     1.0  0.45935  0.98660  0.06808  1.0000
  H   H794      1.0  0.28729  0.40279  0.00579  1.0000
  H   H795      1.0  0.38732  0.31297  0.31357  1.0000
  H   H796      1.0  0.39531  0.45188  0.00131  1.0000
  C   C1003     1.0  0.47687  0.97909  0.07563  1.0000
  H   H797      1.0  0.42392  0.35914  0.26455  1.0000
  H   H798      1.0  0.32531  0.18838  0.26320  1.0000
  H   H799      1.0  0.27558  0.35408  0.02769  1.0000
  C   C1004     1.0  0.32833  0.19772  0.27805  1.0000
  C   C1005     1.0  0.47315  0.99976  0.14809  1.0000
  P   P34       1.0  0.42486  0.30017  0.32746  1.0000
  C   C1006     1.0  0.50102  0.44671  0.16587  1.0000
  C   C1007     1.0  0.45701  0.17564  0.31294  1.0000
  H   H800      1.0  0.42583  0.99057  0.09196  1.0000
  H   H801      1.0  0.45923  0.99943  0.02504  1.0000
  H   H802      1.0  0.48231  0.98725  0.21896  1.0000
  H   H803      1.0  0.43623  0.04135  0.13755  1.0000
  C   C1008     1.0  0.42782  0.30716  0.29976  1.0000
  C   C1009     1.0  0.27968  0.17423  0.28149  1.0000
  H   H804      1.0  0.44016  0.02036  0.06300  1.0000
  C   C1010     1.0  0.33606  0.22200  0.31632  1.0000
  H   H805      1.0  0.46513  0.40235  0.00673  1.0000
  H   H806      1.0  0.41937  0.34943  0.30233  1.0000
  H   H807      1.0  0.36967  0.16542  0.30343  1.0000
  C   C1011     1.0  0.50648  0.35025  0.19123  1.0000
  C   C1012     1.0  0.49476  0.33345  0.11473  1.0000
  C   C1013     1.0  0.50494  0.41911  0.16304  1.0000
  S   S130      1.0  0.27291  0.27084  0.28849  1.0000
  H   H808      1.0  0.30174  0.17265  0.32830  1.0000
  H   H809      1.0  0.49267  0.45775  0.15459  1.0000
  C   C1014     1.0  0.48488  0.21361  0.31531  1.0000
  C   C1015     1.0  0.43488  0.97651  0.03302  1.0000
  H   H810      1.0  0.26979  0.25251  0.24599  1.0000
  H   H811      1.0  0.48215  0.98451  0.14068  1.0000
  H   H812      1.0  0.50773  0.25572  0.15173  1.0000
  H   H813      1.0  0.39549  0.97780  0.00433  1.0000
  H   H814      1.0  0.49910  0.40898  0.14981  1.0000
  H   H815      1.0  0.46455  0.13325  0.23328  1.0000
  C   C1016     1.0  0.47652  0.00801  0.16862  1.0000
  H   H816      1.0  0.50642  0.06535  0.20899  1.0000
  C   C1017     1.0  0.48815  0.99839  0.08431  1.0000
  C   C1018     1.0  0.47465  0.16763  0.31968  1.0000
  H   H817      1.0  0.40065  0.97774  0.11641  1.0000
  H   H818      1.0  0.48564  0.34554  0.15104  1.0000
  C   C1019     1.0  0.50211  0.12623  0.25474  1.0000
  C   C1020     1.0  0.46482  0.03322  0.07779  1.0000
  C   C1021     1.0  0.39996  0.22697  0.32168  1.0000
  C   C1022     1.0  0.48954  0.13074  0.27170  1.0000
  H   H819      1.0  0.25956  0.21090  0.32129  1.0000
  C   C1023     1.0  0.49413  0.30710  0.20255  1.0000
  C   C1024     1.0  0.26295  0.36013  0.01996  1.0000
  H   H820      1.0  0.45627  0.00543  0.12093  1.0000
  H   H821      1.0  0.32993  0.25980  0.30073  1.0000
  C   C1025     1.0  0.32709  0.22586  0.27998  1.0000
  S   S131      1.0  0.29754  0.31725  0.32710  1.0000
  C   C1026     1.0  0.42420  0.33332  0.29192  1.0000
  C   C1027     1.0  0.33678  0.19365  0.31473  1.0000
  C   C1028     1.0  0.27542  0.35882  0.08638  1.0000
  C   C1029     1.0  0.48381  0.32005  0.21858  1.0000
  C   C1030     1.0  0.49890  0.02249  0.01670  1.0000
  C   C1031     1.0  0.45065  0.04013  0.16685  1.0000
  C   C1032     1.0  0.48216  0.02544  0.08543  1.0000
  C   C1033     1.0  0.50252  0.97440  0.02478  1.0000
  H   H822      1.0  0.43948  0.20893  0.30281  1.0000
  H   H823      1.0  0.50121  0.04330  0.02085  1.0000
  H   H824      1.0  0.33349  0.15980  0.29383  1.0000
  C   C1034     1.0  0.40941  0.98240  0.00889  1.0000
  C   C1035     1.0  0.50538  0.32214  0.18897  1.0000
  C   C1036     1.0  0.49715  0.34607  0.13991  1.0000
  H   H825      1.0  0.44773  0.02393  0.27690  1.0000
  H   H826      1.0  0.50173  0.99230  0.08972  1.0000
  C   C1037     1.0  0.48677  0.41230  0.02746  1.0000
  C   C1038     1.0  0.43775  0.00659  0.00284  1.0000
  H   H827      1.0  0.49641  0.38476  0.20955  1.0000
  H   H828      1.0  0.40192  0.26347  0.30347  1.0000
  H   H829      1.0  0.29125  0.17479  0.27042  1.0000
  C   C1039     1.0  0.33306  0.18162  0.29539  1.0000
  H   H830      1.0  0.48167  0.32559  0.11002  1.0000
  H   H831      1.0  0.26308  0.36418  0.25117  1.0000
  C   C1040     1.0  0.48472  0.34806  0.22096  1.0000
  C   C1041     1.0  0.28310  0.34051  0.07175  1.0000
  H   H832      1.0  0.32237  0.98031  0.02556  1.0000
  C   C1042     1.0  0.45345  0.01391  0.06914  1.0000
  H   H833      1.0  0.29744  0.34210  0.06662  1.0000
  C   C1043     1.0  0.43730  0.29261  0.26461  1.0000
  C   C1044     1.0  0.33105  0.23797  0.29908  1.0000
  C   C1045     1.0  0.43464  0.28694  0.28601  1.0000
  C   C1046     1.0  0.39249  0.14363  0.31711  1.0000
  H   H834      1.0  0.44624  0.16087  0.31209  1.0000
  H   H835      1.0  0.49601  0.29565  0.13754  1.0000
  P   P35       1.0  0.47005  0.04061  0.20420  1.0000
  C   C1047     1.0  0.45298  0.03030  0.22366  1.0000
  C   C1048     1.0  0.49216  0.02756  0.21287  1.0000
  H   H836      1.0  0.27894  0.13630  0.32818  1.0000
  H   H837      1.0  0.28380  0.37457  0.09270  1.0000
  H   H838      1.0  0.32288  0.23835  0.26677  1.0000
  H   H839      1.0  0.49107  0.04042  0.09196  1.0000
  H   H840      1.0  0.46035  0.05431  0.07830  1.0000
  C   C1049     1.0  0.45727  0.03091  0.24509  1.0000
  C   C1050     1.0  0.44426  0.02317  0.26040  1.0000
  C   C1051     1.0  0.42687  0.01457  0.25448  1.0000
  C   C1052     1.0  0.42251  0.01367  0.23320  1.0000
  C   C1053     1.0  0.43551  0.02148  0.21781  1.0000
  C   C1054     1.0  0.47089  0.07704  0.20285  1.0000
  C   C1055     1.0  0.47737  0.08962  0.18435  1.0000
  C   C1056     1.0  0.47875  0.11771  0.18339  1.0000
  C   C1057     1.0  0.47395  0.13344  0.20096  1.0000
  C   C1058     1.0  0.46770  0.12108  0.21948  1.0000
  C   C1059     1.0  0.46620  0.09298  0.22049  1.0000
  H   H841      1.0  0.40904  0.00690  0.22864  1.0000
  Fe  Fe65      1.0  0.27800  0.28290  0.32279  1.0000
  H   H842      1.0  0.27852  0.30625  0.05230  1.0000
  C   C1060     1.0  0.48871  0.18659  0.32094  1.0000
  C   C1061     1.0  0.44529  0.99449  0.02072  1.0000
  C   C1062     1.0  0.50541  0.00141  0.02994  1.0000
  H   H843      1.0  0.48487  0.15117  0.27536  1.0000
  C   C1063     1.0  0.45323  0.20268  0.30769  1.0000
  H   H844      1.0  0.28617  0.21197  0.29619  1.0000
  H   H845      1.0  0.47673  0.35814  0.23339  1.0000
  H   H846      1.0  0.47067  0.03757  0.25007  1.0000
  H   H847      1.0  0.39131  0.21719  0.31046  1.0000
  C   C1064     1.0  0.45860  0.01164  0.13694  1.0000
  H   H848      1.0  0.26961  0.04099  0.31174  1.0000
  H   H849      1.0  0.43186  0.02051  0.20147  1.0000
  H   H850      1.0  0.48176  0.07781  0.17073  1.0000
  H   H851      1.0  0.48395  0.12717  0.16908  1.0000
  H   H852      1.0  0.47545  0.15517  0.20041  1.0000
  H   H853      1.0  0.44207  0.05621  0.17376  1.0000
  H   H854      1.0  0.46182  0.08390  0.23521  1.0000
  H   H855      1.0  0.46439  0.24257  0.30475  1.0000
  C   C1065     1.0  0.46719  0.22163  0.30883  1.0000
  H   H856      1.0  0.48823  0.99894  0.17659  1.0000
  C   C1066     1.0  0.26731  0.15295  0.28091  1.0000
  C   C1067     1.0  0.50745  0.04436  0.21376  1.0000
  H   H857      1.0  0.41682  0.00860  0.26642  1.0000
  Fe  Fe66      1.0  0.46491  0.05327  0.32575  1.0000
  C   C1068     1.0  0.27227  0.32014  0.06364  1.0000
  H   H858      1.0  0.49559  0.22850  0.31609  1.0000
  C   C1069     1.0  0.37503  0.15669  0.31774  1.0000
  H   H859      1.0  0.40036  0.14218  0.30244  1.0000
  H   H860      1.0  0.26971  0.13694  0.26955  1.0000
  C   C1070     1.0  0.49600  0.36313  0.20737  1.0000
  C   C1071     1.0  0.47934  0.40841  0.00763  1.0000
  C   C1072     1.0  0.50823  0.46028  0.18293  1.0000
  C   C1073     1.0  0.50508  0.42031  0.02919  1.0000
  C   C1074     1.0  0.50787  0.09967  0.25007  1.0000
  H   H861      1.0  0.26970  0.25372  0.04611  1.0000
  C   C1075     1.0  0.50117  0.07795  0.26228  1.0000
  C   C1076     1.0  0.48957  0.01688  0.99808  1.0000
  H   H862      1.0  0.47715  0.14669  0.32399  1.0000
  S   S132      1.0  0.50730  0.37878  0.11332  1.0000
  C   C1077     1.0  0.26094  0.05769  0.31752  1.0000
  H   H863      1.0  0.25971  0.07750  0.28749  1.0000
  C   C1078     1.0  0.38935  0.32357  0.32814  1.0000
  H   H864      1.0  0.26502  0.43591  0.02212  1.0000
  C   C1079     1.0  0.26543  0.43325  0.00522  1.0000
  H   H865      1.0  0.36109  0.33890  0.32978  1.0000
  H   H866      1.0  0.50578  0.05749  0.25866  1.0000
  C   C1080     1.0  0.26088  0.35337  0.99869  1.0000
  C   C1081     1.0  0.27031  0.25527  0.01241  1.0000
  H   H867      1.0  0.28183  0.24088  0.01085  1.0000
  C   C1082     1.0  0.35987  0.01119  0.45848  1.0000
  Fe  Fe67      1.0  0.45752  0.28262  0.45271  1.0000
  S   S133      1.0  0.47613  0.28809  0.42407  1.0000
  S   S134      1.0  0.46549  0.27551  0.48706  1.0000
  Fe  Fe68      1.0  0.42244  0.29527  0.42735  1.0000
  S   S135      1.0  0.43858  0.30110  0.39732  1.0000
  S   S136      1.0  0.39126  0.30172  0.42969  1.0000
  Fe  Fe69      1.0  0.45473  0.26377  0.40760  1.0000
  S   S137      1.0  0.45909  0.23113  0.38270  1.0000
  Fe  Fe70      1.0  0.45807  0.32511  0.41635  1.0000
  S   S138      1.0  0.46997  0.36694  0.40832  1.0000
  S   S139      1.0  0.43713  0.25649  0.43648  1.0000
  S   S140      1.0  0.44100  0.32108  0.44615  1.0000
  C   C1083     1.0  0.39363  0.98743  0.35508  1.0000
  C   C1084     1.0  0.37196  0.14602  0.35486  1.0000
  Fe  Fe71      1.0  0.42725  0.05400  0.34981  1.0000
  S   S141      1.0  0.43997  0.04205  0.38041  1.0000
  S   S142      1.0  0.39630  0.06043  0.34578  1.0000
  S   S143      1.0  0.47994  0.04066  0.35504  1.0000
  Fe  Fe72      1.0  0.45695  0.01136  0.36158  1.0000
  H   H868      1.0  0.33127  0.39518  0.33890  1.0000
  Fe  Fe73      1.0  0.46147  0.07253  0.37097  1.0000
  S   S144      1.0  0.47107  0.10354  0.39462  1.0000
  P   P36       1.0  0.34142  0.17274  0.33751  1.0000
  S   S145      1.0  0.44764  0.08628  0.34140  1.0000
  Fe  Fe74      1.0  0.27969  0.02364  0.40824  1.0000
  S   S146      1.0  0.29471  0.02765  0.43871  1.0000
  H   H869      1.0  0.41670  0.00660  0.41322  1.0000
  Fe  Fe75      1.0  0.27652  0.08639  0.40382  1.0000
  S   S147      1.0  0.29186  0.09412  0.43337  1.0000
  H   H870      1.0  0.39487  0.35856  0.38184  1.0000
  Fe  Fe76      1.0  0.31100  0.06007  0.42252  1.0000
  S   S148      1.0  0.34223  0.06059  0.42587  1.0000
  Fe  Fe77      1.0  0.27400  0.06156  0.44717  1.0000
  S   S149      1.0  0.29712  0.05496  0.39191  1.0000
  Fe  Fe78      1.0  0.31269  0.29030  0.34973  1.0000
  S   S150      1.0  0.29626  0.30509  0.37783  1.0000
  S   S151      1.0  0.34398  0.28503  0.34799  1.0000
  Fe  Fe79      1.0  0.27968  0.33009  0.35501  1.0000
  Fe  Fe80      1.0  0.27701  0.27156  0.37010  1.0000
  H   H871      1.0  0.44417  0.23005  0.51494  1.0000
  C   C1085     1.0  0.48042  0.31767  0.35866  1.0000
  S   S152      1.0  0.29476  0.25492  0.34350  1.0000
  H   H872      1.0  0.27084  0.46948  0.38299  1.0000
  H   H873      1.0  0.32762  0.45256  0.40485  1.0000
  C   C1086     1.0  0.44689  0.30682  0.33919  1.0000
  H   H874      1.0  0.27534  0.13053  0.47199  1.0000
  C   C1087     1.0  0.28686  0.11314  0.54467  1.0000
  H   H875      1.0  0.50285  0.19958  0.43855  1.0000
  C   C1088     1.0  0.29256  0.16540  0.47034  1.0000
  H   H876      1.0  0.32739  0.23908  0.56457  1.0000
  H   H877      1.0  0.38593  0.10016  0.50544  1.0000
  C   C1089     1.0  0.33634  0.46215  0.41609  1.0000
  C   C1090     1.0  0.48682  0.14393  0.52104  1.0000
  C   C1091     1.0  0.37646  0.35105  0.35655  1.0000
  C   C1092     1.0  0.37756  0.98154  0.38856  1.0000
  C   C1093     1.0  0.35669  0.05750  0.40319  1.0000
  C   C1094     1.0  0.34985  0.06188  0.38303  1.0000
  C   C1095     1.0  0.36208  0.06253  0.36551  1.0000
  C   C1096     1.0  0.38120  0.05820  0.36794  1.0000
  C   C1097     1.0  0.38786  0.05225  0.38793  1.0000
  C   C1098     1.0  0.37571  0.05219  0.40551  1.0000
  H   H878      1.0  0.33520  0.06542  0.38103  1.0000
  H   H879      1.0  0.35676  0.06645  0.35001  1.0000
  H   H880      1.0  0.40238  0.04777  0.38985  1.0000
  H   H881      1.0  0.38108  0.04820  0.42097  1.0000
  C   C1099     1.0  0.37845  0.29791  0.40664  1.0000
  C   C1100     1.0  0.38651  0.28627  0.38854  1.0000
  C   C1101     1.0  0.37582  0.28269  0.37062  1.0000
  C   C1102     1.0  0.35699  0.29054  0.37068  1.0000
  C   C1103     1.0  0.34893  0.30216  0.38881  1.0000
  C   C1104     1.0  0.35961  0.30572  0.40675  1.0000
  H   H882      1.0  0.40094  0.27989  0.38838  1.0000
  H   H883      1.0  0.38207  0.27357  0.35669  1.0000
  H   H884      1.0  0.33452  0.30851  0.38901  1.0000
  H   H885      1.0  0.35327  0.31467  0.42072  1.0000
  C   C1105     1.0  0.46113  0.19571  0.38716  1.0000
  C   C1106     1.0  0.45808  0.17825  0.37036  1.0000
  C   C1107     1.0  0.46080  0.15006  0.37249  1.0000
  C   C1108     1.0  0.46680  0.13895  0.39149  1.0000
  C   C1109     1.0  0.46953  0.15639  0.40847  1.0000
  C   C1110     1.0  0.46659  0.18464  0.40639  1.0000
  H   H886      1.0  0.45365  0.18671  0.35557  1.0000
  H   H887      1.0  0.45861  0.13703  0.35928  1.0000
  H   H888      1.0  0.47407  0.14797  0.42322  1.0000
  H   H889      1.0  0.46898  0.19788  0.41945  1.0000
  C   C1111     1.0  0.46202  0.39682  0.39471  1.0000
  C   C1112     1.0  0.44784  0.39662  0.38002  1.0000
  C   C1113     1.0  0.44291  0.42049  0.36882  1.0000
  C   C1114     1.0  0.45166  0.44519  0.37244  1.0000
  C   C1115     1.0  0.46553  0.44550  0.38746  1.0000
  C   C1116     1.0  0.47080  0.42148  0.39826  1.0000
  H   H890      1.0  0.44084  0.37801  0.37708  1.0000
  H   H891      1.0  0.43219  0.41984  0.35725  1.0000
  H   H892      1.0  0.39465  0.12284  0.36804  1.0000
  H   H893      1.0  0.48183  0.42201  0.40946  1.0000
  C   C1117     1.0  0.48159  0.25255  0.49908  1.0000
  C   C1118     1.0  0.47251  0.13047  0.51120  1.0000
  H   H894      1.0  0.39397  0.99567  0.33926  1.0000
  P   P37       1.0  0.28375  0.16976  0.54248  1.0000
  C   C1119     1.0  0.49466  0.23358  0.53147  1.0000
  C   C1120     1.0  0.48241  0.25173  0.52117  1.0000
  H   H895      1.0  0.36088  0.03030  0.46657  1.0000
  S   S153      1.0  0.27541  0.46624  0.42889  1.0000
  H   H896      1.0  0.29469  0.30509  0.47983  1.0000
  H   H897      1.0  0.47339  0.26509  0.53043  1.0000
  H   H898      1.0  0.49502  0.28385  0.65118  1.0000
  C   C1121     1.0  0.38550  0.39340  0.41396  1.0000
  H   H899      1.0  0.34135  0.39995  0.41563  1.0000
  C   C1122     1.0  0.48564  0.15028  0.47050  1.0000
  H   H900      1.0  0.49550  0.25408  0.58983  1.0000
  C   C1123     1.0  0.40361  0.43338  0.40806  1.0000
  H   H901      1.0  0.26862  0.14966  0.41959  1.0000
  H   H902      1.0  0.26012  0.04271  0.34947  1.0000
  H   H903      1.0  0.32791  0.29793  0.47165  1.0000
  C   C1124     1.0  0.41770  0.39353  0.42398  1.0000
  H   H904      1.0  0.42531  0.05949  0.44493  1.0000
  C   C1125     1.0  0.39340  0.34935  0.36665  1.0000
  C   C1126     1.0  0.29898  0.28858  0.46966  1.0000
  C   C1127     1.0  0.42106  0.25295  0.35135  1.0000
  H   H905      1.0  0.31306  0.36688  0.36350  1.0000
  C   C1128     1.0  0.26671  0.20013  0.37259  1.0000
  C   C1129     1.0  0.42916  0.22021  0.48730  1.0000
  C   C1130     1.0  0.31107  0.24668  0.44295  1.0000
  C   C1131     1.0  0.28231  0.08769  0.55268  1.0000
  H   H906      1.0  0.26623  0.33145  0.48271  1.0000
  C   C1132     1.0  0.48758  0.44452  0.60483  1.0000
  H   H907      1.0  0.33857  0.26098  0.44785  1.0000
  H   H908      1.0  0.43199  0.43046  0.41778  1.0000
  C   C1133     1.0  0.32395  0.26367  0.45169  1.0000
  C   C1134     1.0  0.45939  0.28560  0.34426  1.0000
  C   C1135     1.0  0.43723  0.17702  0.47134  1.0000
  C   C1136     1.0  0.50467  0.20981  0.36458  1.0000
  H   H909      1.0  0.42849  0.11944  0.49311  1.0000
  C   C1137     1.0  0.27853  0.14829  0.50250  1.0000
  C   C1138     1.0  0.32451  0.14637  0.33816  1.0000
  H   H910      1.0  0.47478  0.18878  0.45885  1.0000
  C   C1139     1.0  0.41722  0.26607  0.33226  1.0000
  C   C1140     1.0  0.37566  0.99886  0.44919  1.0000
  H   H911      1.0  0.29881  0.22358  0.54843  1.0000
  C   C1141     1.0  0.50657  0.42794  0.52767  1.0000
  H   H912      1.0  0.46135  0.99966  0.45642  1.0000
  H   H913      1.0  0.40877  0.46591  0.33691  1.0000
  C   C1142     1.0  0.49723  0.32260  0.58595  1.0000
  H   H914      1.0  0.49933  0.23490  0.39173  1.0000
  H   H915      1.0  0.47223  0.35965  0.35584  1.0000
  C   C1143     1.0  0.46484  0.10781  0.52122  1.0000
  H   H916      1.0  0.36593  0.00226  0.36189  1.0000
  H   H917      1.0  0.40504  0.45397  0.40245  1.0000
  S   S154      1.0  0.26785  0.24521  0.39757  1.0000
  C   C1144     1.0  0.40474  0.21356  0.34026  1.0000
  C   C1145     1.0  0.50446  0.40176  0.60694  1.0000
  C   C1146     1.0  0.26808  0.16366  0.40648  1.0000
  H   H918      1.0  0.29461  0.16409  0.45345  1.0000
  C   C1147     1.0  0.26476  0.45263  0.52230  1.0000
  S   S155      1.0  0.44301  0.02225  0.33121  1.0000
  H   H919      1.0  0.26324  0.32923  0.39832  1.0000
  H   H920      1.0  0.48862  0.41405  0.50356  1.0000
  C   C1148     1.0  0.33880  0.19405  0.36043  1.0000
  C   C1149     1.0  0.32109  0.20161  0.36832  1.0000
  C   C1150     1.0  0.31907  0.22149  0.38382  1.0000
  C   C1151     1.0  0.33464  0.23379  0.39165  1.0000
  C   C1152     1.0  0.35229  0.22592  0.38426  1.0000
  C   C1153     1.0  0.35439  0.20641  0.36857  1.0000
  H   H921      1.0  0.27493  0.29483  0.42334  1.0000
  C   C1154     1.0  0.31791  0.28456  0.46508  1.0000
  H   H922      1.0  0.35553  0.07826  0.50986  1.0000
  H   H923      1.0  0.27996  0.44672  0.47143  1.0000
  C   C1155     1.0  0.47128  0.09906  0.54079  1.0000
  H   H924      1.0  0.36402  0.14628  0.36951  1.0000
  H   H925      1.0  0.38883  0.00856  0.45048  1.0000
  C   C1156     1.0  0.29216  0.25080  0.44734  1.0000
  C   C1157     1.0  0.50244  0.18084  0.44740  1.0000
  H   H926      1.0  0.28546  0.42705  0.50677  1.0000
  C   C1158     1.0  0.27194  0.45400  0.48497  1.0000
  H   H927      1.0  0.48499  0.27443  0.35916  1.0000
  H   H928      1.0  0.36523  0.98558  0.39809  1.0000
  H   H929      1.0  0.30875  0.19305  0.36207  1.0000
  H   H930      1.0  0.30536  0.22799  0.38927  1.0000
  H   H931      1.0  0.33302  0.25013  0.40285  1.0000
  H   H932      1.0  0.36432  0.23593  0.38998  1.0000
  H   H933      1.0  0.36813  0.20209  0.36215  1.0000
  C   C1159     1.0  0.40795  0.10365  0.41511  1.0000
  C   C1160     1.0  0.42015  0.12194  0.40603  1.0000
  C   C1161     1.0  0.41681  0.14968  0.40838  1.0000
  C   C1162     1.0  0.40111  0.15916  0.41963  1.0000
  C   C1163     1.0  0.38862  0.14084  0.42873  1.0000
  C   C1164     1.0  0.39223  0.11296  0.42639  1.0000
  P   P38       1.0  0.36768  0.15250  0.44244  1.0000
  C   C1165     1.0  0.36352  0.12969  0.46423  1.0000
  C   C1166     1.0  0.37063  0.18684  0.45117  1.0000
  C   C1167     1.0  0.37428  0.19287  0.47220  1.0000
  C   C1168     1.0  0.37770  0.21951  0.47808  1.0000
  C   C1169     1.0  0.37748  0.24022  0.46303  1.0000
  C   C1170     1.0  0.37352  0.23439  0.44221  1.0000
  C   C1171     1.0  0.36996  0.20792  0.43634  1.0000
  C   C1172     1.0  0.37784  0.12322  0.47812  1.0000
  C   C1173     1.0  0.37490  0.10496  0.49466  1.0000
  C   C1174     1.0  0.35777  0.09265  0.49720  1.0000
  C   C1175     1.0  0.34355  0.09868  0.48327  1.0000
  C   C1176     1.0  0.34636  0.11714  0.46687  1.0000
  C   C1177     1.0  0.34831  0.15157  0.42500  1.0000
  C   C1178     1.0  0.34729  0.13086  0.41011  1.0000
  C   C1179     1.0  0.33161  0.12887  0.39782  1.0000
  C   C1180     1.0  0.31692  0.14756  0.40009  1.0000
  C   C1181     1.0  0.31774  0.16814  0.41495  1.0000
  C   C1182     1.0  0.33331  0.17006  0.42749  1.0000
  H   H934      1.0  0.41072  0.08220  0.41330  1.0000
  H   H935      1.0  0.43216  0.11451  0.39711  1.0000
  H   H936      1.0  0.42643  0.16384  0.40143  1.0000
  H   H937      1.0  0.39897  0.18074  0.42108  1.0000
  H   H938      1.0  0.38275  0.09839  0.43303  1.0000
  H   H939      1.0  0.37468  0.17723  0.48410  1.0000
  H   H940      1.0  0.38080  0.22408  0.49424  1.0000
  H   H941      1.0  0.38051  0.26082  0.46739  1.0000
  H   H942      1.0  0.37343  0.25039  0.43053  1.0000
  H   H943      1.0  0.36725  0.20364  0.42007  1.0000
  H   H944      1.0  0.39128  0.13227  0.47608  1.0000
  C   C1183     1.0  0.48642  0.17455  0.45898  1.0000
  H   H945      1.0  0.35493  0.42537  0.35218  1.0000
  C   C1184     1.0  0.39012  0.45308  0.36175  1.0000
  H   H946      1.0  0.33517  0.12096  0.45610  1.0000
  H   H947      1.0  0.35824  0.11566  0.40834  1.0000
  H   H948      1.0  0.33059  0.11240  0.38689  1.0000
  H   H949      1.0  0.30484  0.14578  0.39045  1.0000
  H   H950      1.0  0.30621  0.18245  0.41676  1.0000
  H   H951      1.0  0.33344  0.18564  0.43935  1.0000
  C   C1185     1.0  0.50143  0.41035  0.51181  1.0000
  H   H952      1.0  0.42857  0.26301  0.36342  1.0000
  C   C1186     1.0  0.43290  0.07511  0.45256  1.0000
  H   H953      1.0  0.28240  0.23802  0.43979  1.0000
  C   C1187     1.0  0.49928  0.45260  0.58829  1.0000
  H   H954      1.0  0.44309  0.35046  0.33798  1.0000
  C   C1188     1.0  0.49017  0.41914  0.61416  1.0000
  H   H955      1.0  0.45640  0.07207  0.43104  1.0000
  H   H956      1.0  0.31820  0.36919  0.40177  1.0000
  C   C1189     1.0  0.33966  0.39861  0.39880  1.0000
  H   H957      1.0  0.38144  0.47093  0.42877  1.0000
  H   H958      1.0  0.49297  0.23560  0.47042  1.0000
  C   C1190     1.0  0.34256  0.99961  0.45652  1.0000
  C   C1191     1.0  0.35025  0.41456  0.38497  1.0000
  C   C1192     1.0  0.39957  0.13160  0.33527  1.0000
  C   C1193     1.0  0.27302  0.44849  0.38735  1.0000
  H   H959      1.0  0.28022  0.37272  0.40266  1.0000
  C   C1194     1.0  0.50424  0.14100  0.65683  1.0000
  C   C1195     1.0  0.50006  0.27379  0.58464  1.0000
  H   H960      1.0  0.50631  0.33098  0.64912  1.0000
  C   C1196     1.0  0.42674  0.20121  0.47149  1.0000
  H   H961      1.0  0.42165  0.23949  0.48696  1.0000
  H   H962      1.0  0.41723  0.20570  0.45894  1.0000
  C   C1197     1.0  0.27823  0.39369  0.39825  1.0000
  C   C1198     1.0  0.41895  0.42018  0.41688  1.0000
  H   H963      1.0  0.28843  0.06953  0.54566  1.0000
  P   P39       1.0  0.26129  0.27757  0.46541  1.0000
  H   H964      1.0  0.47980  0.29562  0.60372  1.0000
  C   C1199     1.0  0.40827  0.33457  0.35767  1.0000
  C   C1200     1.0  0.37779  0.99102  0.36782  1.0000
  C   C1201     1.0  0.32704  0.97812  0.37413  1.0000
  H   H965      1.0  0.49272  0.21804  0.35659  1.0000
  H   H966      1.0  0.49488  0.23291  0.54845  1.0000
  C   C1202     1.0  0.26432  0.20618  0.56884  1.0000
  C   C1203     1.0  0.37450  0.46002  0.37438  1.0000
  H   H967      1.0  0.28089  0.40853  0.42989  1.0000
  H   H968      1.0  0.49749  0.44501  0.53177  1.0000
  C   C1204     1.0  0.26791  0.19177  0.41001  1.0000
  C   C1205     1.0  0.30488  0.18101  0.55399  1.0000
  H   H969      1.0  0.26018  0.35121  0.51778  1.0000
  C   C1206     1.0  0.28161  0.14652  0.48077  1.0000
  C   C1207     1.0  0.26571  0.13435  0.57007  1.0000
  H   H970      1.0  0.27531  0.20279  0.57993  1.0000
  H   H971      1.0  0.47670  0.45819  0.61072  1.0000
  C   C1208     1.0  0.34720  0.41312  0.36326  1.0000
  C   C1209     1.0  0.32475  0.21763  0.56383  1.0000
  C   C1210     1.0  0.27593  0.44164  0.40840  1.0000
  C   C1211     1.0  0.27500  0.44292  0.50487  1.0000
  H   H972      1.0  0.42094  0.33281  0.36627  1.0000
  H   H973      1.0  0.30897  0.20079  0.47359  1.0000
  C   C1212     1.0  0.47591  0.29101  0.35430  1.0000
  C   C1213     1.0  0.29791  0.18741  0.50353  1.0000
  C   C1214     1.0  0.27864  0.41411  0.41368  1.0000
  S   S156      1.0  0.27264  0.37557  0.35729  1.0000
  C   C1215     1.0  0.26125  0.10893  0.57811  1.0000
  H   H974      1.0  0.50154  0.13763  0.36207  1.0000
  C   C1216     1.0  0.44833  0.99250  0.45073  1.0000
  C   C1217     1.0  0.26744  0.21006  0.39303  1.0000
  H   H975      1.0  0.46267  0.18760  0.51501  1.0000
  C   C1218     1.0  0.38673  0.42007  0.40638  1.0000
  C   C1219     1.0  0.37446  0.33838  0.33721  1.0000
  C   C1220     1.0  0.46029  0.10216  0.45472  1.0000
  C   C1221     1.0  0.27232  0.42803  0.37197  1.0000
  C   C1222     1.0  0.30855  0.20876  0.55473  1.0000
  H   H976      1.0  0.45628  0.26477  0.34110  1.0000
  H   H977      1.0  0.50101  0.11402  0.47953  1.0000
  S   S157      1.0  0.27877  0.98624  0.38652  1.0000
  H   H978      1.0  0.49039  0.34075  0.59208  1.0000
  C   C1223     1.0  0.40639  0.32154  0.33833  1.0000
  C   C1224     1.0  0.26726  0.15378  0.38596  1.0000
  H   H979      1.0  0.26749  0.44416  0.53770  1.0000
  H   H980      1.0  0.40015  0.19323  0.34331  1.0000
  H   H981      1.0  0.26516  0.16478  0.35331  1.0000
  C   C1225     1.0  0.50776  0.28801  0.64264  1.0000
  C   C1226     1.0  0.39626  0.47078  0.34602  1.0000
  H   H982      1.0  0.33036  0.08876  0.48492  1.0000
  H   H983      1.0  0.33784  0.98071  0.34243  1.0000
  C   C1227     1.0  0.28591  0.27174  0.46078  1.0000
  C   C1228     1.0  0.33744  0.19890  0.57221  1.0000
  H   H984      1.0  0.50297  0.12207  0.64848  1.0000
  C   C1229     1.0  0.48548  0.11268  0.55044  1.0000
  H   H985      1.0  0.32125  0.99859  0.37426  1.0000
  C   C1230     1.0  0.33382  0.39597  0.35560  1.0000
  H   H986      1.0  0.31561  0.23063  0.43241  1.0000
  C   C1231     1.0  0.38935  0.13289  0.35415  1.0000
  H   H987      1.0  0.44622  0.02284  0.42647  1.0000
  C   C1232     1.0  0.44187  0.21488  0.50311  1.0000
  H   H988      1.0  0.39780  0.43428  0.36424  1.0000
  H   H989      1.0  0.34991  0.20581  0.57943  1.0000
  H   H990      1.0  0.50396  0.31721  0.52973  1.0000
  C   C1233     1.0  0.45043  0.08205  0.44485  1.0000
  S   S158      1.0  0.26769  0.11881  0.38046  1.0000
  P   P40       1.0  0.46504  0.14169  0.48550  1.0000
  H   H991      1.0  0.41871  0.21655  0.36974  1.0000
  C   C1234     1.0  0.32353  0.37997  0.36947  1.0000
  P   P41       1.0  0.36686  0.43764  0.39519  1.0000
  C   C1235     1.0  0.45260  0.11561  0.47239  1.0000
  C   C1236     1.0  0.43476  0.10897  0.47971  1.0000
  C   C1237     1.0  0.42503  0.08865  0.46991  1.0000
  H   H992      1.0  0.30431  0.20344  0.51198  1.0000
  C   C1238     1.0  0.42314  0.99613  0.42626  1.0000
  C   C1239     1.0  0.31776  0.16232  0.56235  1.0000
  C   C1240     1.0  0.28711  0.16823  0.51419  1.0000
  C   C1241     1.0  0.50650  0.21625  0.51979  1.0000
  C   C1242     1.0  0.35573  0.45849  0.41526  1.0000
  C   C1243     1.0  0.40095  0.38021  0.42265  1.0000
  C   C1244     1.0  0.41517  0.22665  0.35514  1.0000
  C   C1245     1.0  0.45011  0.17154  0.48719  1.0000
  C   C1246     1.0  0.26628  0.17216  0.36913  1.0000
  C   C1247     1.0  0.32647  0.38126  0.39104  1.0000
  H   H993      1.0  0.43578  0.16312  0.45841  1.0000
  H   H994      1.0  0.48123  0.41306  0.62716  1.0000
  C   C1248     1.0  0.45238  0.19070  0.50306  1.0000
  H   H995      1.0  0.40001  0.35950  0.42819  1.0000
  C   C1249     1.0  0.27480  0.40049  0.37728  1.0000
  H   H996      1.0  0.41138  0.08334  0.47571  1.0000
  H   H997      1.0  0.42978  0.38314  0.43034  1.0000
  H   H998      1.0  0.37283  0.38243  0.41300  1.0000
  C   C1250     1.0  0.49089  0.16168  0.65450  1.0000
  C   C1251     1.0  0.49119  0.29722  0.59244  1.0000
  H   H999      1.0  0.49294  0.32190  0.36699  1.0000
  C   C1252     1.0  0.33396  0.17127  0.57144  1.0000
  C   C1253     1.0  0.26490  0.19322  0.54921  1.0000
  H   H1000     1.0  0.26492  0.22470  0.48623  1.0000
  H   H1001     1.0  0.47376  0.10721  0.44826  1.0000
  H   H1002     1.0  0.33028  0.00961  0.46328  1.0000
  H   H1003     1.0  0.46542  0.08153  0.54845  1.0000
  H   H1004     1.0  0.45411  0.09655  0.51401  1.0000
  H   H1005     1.0  0.26964  0.43359  0.35584  1.0000
  H   H1006     1.0  0.31534  0.14084  0.56210  1.0000
  H   H1007     1.0  0.49182  0.31864  0.49409  1.0000
  H   H1008     1.0  0.26606  0.21406  0.35948  1.0000
  C   C1254     1.0  0.43975  0.00565  0.43392  1.0000
  C   C1255     1.0  0.30061  0.18598  0.48169  1.0000
  H   H1009     1.0  0.34374  0.15676  0.57807  1.0000
  C   C1256     1.0  0.50639  0.31385  0.49637  1.0000
  C   C1257     1.0  0.49338  0.23515  0.48738  1.0000
  C   C1258     1.0  0.26945  0.08558  0.56934  1.0000
  H   H1010     1.0  0.29677  0.11431  0.53169  1.0000
  C   C1259     1.0  0.27836  0.13672  0.55311  1.0000
  H   H1011     1.0  0.47252  0.46412  0.39041  1.0000
  H   H1012     1.0  0.36469  0.36125  0.36413  1.0000
  H   H1013     1.0  0.47932  0.15888  0.64427  1.0000
  C   C1260     1.0  0.50123  0.13268  0.47053  1.0000
  C   C1261     1.0  0.46866  0.33897  0.35245  1.0000
  C   C1262     1.0  0.50577  0.21719  0.49769  1.0000
  H   H1014     1.0  0.26950  0.13395  0.51014  1.0000
  H   H1015     1.0  0.26566  0.06586  0.57530  1.0000
  S   S159      1.0  0.50788  0.17373  0.59230  1.0000
  H   H1016     1.0  0.50638  0.38208  0.61422  1.0000
  H   H1017     1.0  0.49319  0.16119  0.51357  1.0000
  H   H1018     1.0  0.50338  0.08806  0.36368  1.0000
  S   S160      1.0  0.26341  0.06532  0.48146  1.0000
  C   C1263     1.0  0.36457  0.15778  0.33660  1.0000
  S   S161      1.0  0.25883  0.29758  0.34922  1.0000
  C   C1264     1.0  0.45209  0.33363  0.34249  1.0000
  H   H1019     1.0  0.28800  0.08991  0.33889  1.0000
  H   H1020     1.0  0.32046  0.07876  0.34787  1.0000
  C   C1265     1.0  0.32967  0.11957  0.34331  1.0000
  H   H1021     1.0  0.34372  0.11408  0.34737  1.0000
  C   C1266     1.0  0.31654  0.09929  0.34347  1.0000
  C   C1267     1.0  0.29828  0.10544  0.33815  1.0000
  H   H1022     1.0  0.33886  0.23200  0.33094  1.0000
  C   C1268     1.0  0.50739  0.12659  0.34871  1.0000
  C   C1269     1.0  0.26055  0.31888  0.49515  1.0000
  C   C1270     1.0  0.49324  0.13507  0.54054  1.0000
  C   C1271     1.0  0.29314  0.13177  0.33234  1.0000
  H   H1023     1.0  0.26824  0.19926  0.42590  1.0000
  H   H1024     1.0  0.48260  0.20247  0.66275  1.0000
  C   C1272     1.0  0.40931  0.97431  0.36306  1.0000
  H   H1025     1.0  0.49064  0.10584  0.56554  1.0000
  C   C1273     1.0  0.26252  0.30659  0.42744  1.0000
  H   H1026     1.0  0.41277  0.12061  0.33463  1.0000
  C   C1274     1.0  0.34099  0.97562  0.44529  1.0000
  C   C1275     1.0  0.37422  0.97475  0.43786  1.0000
  C   C1276     1.0  0.30611  0.15225  0.33252  1.0000
  H   H1027     1.0  0.50439  0.14545  0.54793  1.0000
  H   H1028     1.0  0.25907  0.15202  0.57707  1.0000
  H   H1029     1.0  0.49676  0.47220  0.58119  1.0000
  C   C1277     1.0  0.36649  0.47253  0.42950  1.0000
  C   C1278     1.0  0.41523  0.97290  0.43507  1.0000
  Fe  Fe81      1.0  0.46848  0.04114  0.94948  1.0000
  S   S162      1.0  0.48558  0.04615  0.91956  1.0000
  H   H1030     1.0  0.36079  0.37285  0.82005  1.0000
  Fe  Fe82      1.0  0.43264  0.03567  0.92513  1.0000
  S   S163      1.0  0.44747  0.03921  0.89415  1.0000
  S   S164      1.0  0.40146  0.03050  0.92795  1.0000
  Fe  Fe83      1.0  0.46898  0.01147  0.90804  1.0000
  H   H1031     1.0  0.37906  0.34861  0.75660  1.0000
  Fe  Fe84      1.0  0.46245  0.07392  0.90826  1.0000
  S   S165      1.0  0.46339  0.10910  0.88441  1.0000
  S   S166      1.0  0.45310  0.00511  0.93836  1.0000
  S   S167      1.0  0.44642  0.07151  0.93903  1.0000
  Fe  Fe85      1.0  0.46738  0.27162  0.86106  1.0000
  S   S168      1.0  0.45254  0.26993  0.83047  1.0000
  S   S169      1.0  0.47652  0.23703  0.88313  1.0000
  Fe  Fe86      1.0  0.46219  0.33450  0.86272  1.0000
  S   S170      1.0  0.44653  0.33641  0.83256  1.0000
  S   S171      1.0  0.46562  0.36879  0.88612  1.0000
  Fe  Fe87      1.0  0.43198  0.29964  0.84514  1.0000
  S   S172      1.0  0.40099  0.29251  0.84368  1.0000
  Fe  Fe88      1.0  0.46868  0.30686  0.82052  1.0000
  S   S173      1.0  0.48214  0.30697  0.78732  1.0000
  S   S174      1.0  0.44611  0.29969  0.87591  1.0000
  S   S175      1.0  0.48510  0.30652  0.85041  1.0000
  C   C1279     1.0  0.34526  0.10421  0.83822  1.0000
  H   H1032     1.0  0.36273  0.44419  0.89528  1.0000
  Fe  Fe89      1.0  0.32022  0.03361  0.84909  1.0000
  S   S176      1.0  0.30515  0.04763  0.87842  1.0000
  S   S177      1.0  0.35162  0.02885  0.84653  1.0000
  Fe  Fe90      1.0  0.28399  0.02899  0.82394  1.0000
  Fe  Fe91      1.0  0.28825  0.07496  0.85727  1.0000
  Fe  Fe92      1.0  0.28527  0.01485  0.87028  1.0000
  H   H1033     1.0  0.35371  0.36173  0.78132  1.0000
  S   S178      1.0  0.30437  0.06215  0.82805  1.0000
  S   S179      1.0  0.30154  0.99927  0.84227  1.0000
  Fe  Fe93      1.0  0.31886  0.30918  0.92359  1.0000
  S   S180      1.0  0.30279  0.29501  0.89626  1.0000
  S   S181      1.0  0.35015  0.30918  0.92574  1.0000
  Fe  Fe94      1.0  0.28383  0.32067  0.95138  1.0000
  C   C1280     1.0  0.50392  0.46803  0.91551  1.0000
  C   C1281     1.0  0.34620  0.37930  0.94930  1.0000
  H   H1034     1.0  0.32179  0.22809  0.89646  1.0000
  S   S182      1.0  0.30320  0.28463  0.94715  1.0000
  S   S183      1.0  0.30102  0.34639  0.92967  1.0000
  C   C1282     1.0  0.32573  0.38200  0.88020  1.0000
  C   C1283     1.0  0.34899  0.43972  0.81545  1.0000
  C   C1284     1.0  0.39026  0.23109  0.89579  1.0000
  C   C1285     1.0  0.33645  0.45523  0.82790  1.0000
  H   H1035     1.0  0.40940  0.97423  0.89128  1.0000
  H   H1036     1.0  0.39779  0.38369  0.73883  1.0000
  H   H1037     1.0  0.41393  0.01070  0.98333  1.0000
  S   S184      1.0  0.27384  0.35870  0.87780  1.0000
  P   P42       1.0  0.35834  0.20183  0.90368  1.0000
  C   C1286     1.0  0.38426  0.97758  0.95544  1.0000
  H   H1038     1.0  0.35157  0.11226  0.93739  1.0000
  C   C1287     1.0  0.35681  0.36998  0.89087  1.0000
  H   H1039     1.0  0.47531  0.14702  0.91684  1.0000
  C   C1288     1.0  0.38695  0.29644  0.86667  1.0000
  C   C1289     1.0  0.36780  0.29247  0.86575  1.0000
  C   C1290     1.0  0.35632  0.29576  0.88381  1.0000
  C   C1291     1.0  0.36400  0.30262  0.90300  1.0000
  C   C1292     1.0  0.38315  0.30609  0.90395  1.0000
  C   C1293     1.0  0.39450  0.30350  0.88583  1.0000
  H   H1040     1.0  0.36182  0.28696  0.85101  1.0000
  H   H1041     1.0  0.34159  0.29299  0.88282  1.0000
  H   H1042     1.0  0.38920  0.31139  0.91870  1.0000
  H   H1043     1.0  0.40910  0.30687  0.88678  1.0000
  C   C1294     1.0  0.49040  0.33411  0.77125  1.0000
  C   C1295     1.0  0.49689  0.32851  0.75063  1.0000
  H   H1044     1.0  0.41090  0.42974  0.84824  1.0000
  H   H1045     1.0  0.35706  0.26507  0.96379  1.0000
  S   S185      1.0  0.26668  0.04327  0.85180  1.0000
  C   C1296     1.0  0.49103  0.36074  0.77848  1.0000
  C   C1297     1.0  0.39922  0.98573  0.81645  1.0000
  C   C1298     1.0  0.48115  0.33372  0.93322  1.0000
  H   H1046     1.0  0.48610  0.36549  0.79425  1.0000
  C   C1299     1.0  0.38782  0.02963  0.90512  1.0000
  C   C1300     1.0  0.39569  0.03210  0.88493  1.0000
  C   C1301     1.0  0.38445  0.03186  0.86718  1.0000
  C   C1302     1.0  0.36518  0.02928  0.86937  1.0000
  C   C1303     1.0  0.35725  0.02682  0.88954  1.0000
  C   C1304     1.0  0.36853  0.02696  0.90732  1.0000
  H   H1047     1.0  0.41041  0.03452  0.88292  1.0000
  H   H1048     1.0  0.39071  0.03415  0.85169  1.0000
  H   H1049     1.0  0.34245  0.02463  0.89145  1.0000
  H   H1050     1.0  0.36228  0.02515  0.92285  1.0000
  C   C1305     1.0  0.46294  0.40432  0.88277  1.0000
  C   C1306     1.0  0.45835  0.42017  0.90049  1.0000
  C   C1307     1.0  0.45848  0.44860  0.89944  1.0000
  C   C1308     1.0  0.46307  0.46162  0.88057  1.0000
  C   C1309     1.0  0.46699  0.44582  0.86260  1.0000
  C   C1310     1.0  0.46686  0.41728  0.86365  1.0000
  H   H1051     1.0  0.45513  0.41043  0.91529  1.0000
  C   C1311     1.0  0.34058  0.34817  0.83550  1.0000
  H   H1052     1.0  0.47052  0.45569  0.84788  1.0000
  H   H1053     1.0  0.47051  0.40536  0.84988  1.0000
  C   C1312     1.0  0.46617  0.14491  0.88498  1.0000
  C   C1313     1.0  0.46241  0.16019  0.86673  1.0000
  C   C1314     1.0  0.46500  0.18841  0.86605  1.0000
  C   C1315     1.0  0.47169  0.20176  0.88353  1.0000
  C   C1316     1.0  0.47519  0.18655  0.90189  1.0000
  C   C1317     1.0  0.47230  0.15839  0.90270  1.0000
  H   H1054     1.0  0.45764  0.15006  0.85292  1.0000
  H   H1055     1.0  0.46236  0.19971  0.85180  1.0000
  C   C1318     1.0  0.27916  0.43625  0.89821  1.0000
  C   C1319     1.0  0.41420  0.40354  0.82188  1.0000
  H   H1056     1.0  0.28066  0.21926  0.87441  1.0000
  C   C1320     1.0  0.41733  0.41589  0.96356  1.0000
  H   H1057     1.0  0.33391  0.34530  0.96503  1.0000
  C   C1321     1.0  0.27894  0.40780  0.89764  1.0000
  C   C1322     1.0  0.40933  0.23531  0.89523  1.0000
  H   H1058     1.0  0.29785  0.46977  0.95970  1.0000
  C   C1323     1.0  0.26580  0.42515  0.96176  1.0000
  Fe  Fe95      1.0  0.28343  0.33049  0.90418  1.0000
  H   H1059     1.0  0.26421  0.01482  0.74720  1.0000
  H   H1060     1.0  0.28056  0.17889  0.85127  1.0000
  H   H1061     1.0  0.31302  0.38984  0.77154  1.0000
  H   H1062     1.0  0.45234  0.98197  0.79870  1.0000
  C   C1324     1.0  0.33000  0.22887  0.88203  1.0000
  C   C1325     1.0  0.38282  0.41696  0.75375  1.0000
  C   C1326     1.0  0.32175  0.34425  0.83968  1.0000
  C   C1327     1.0  0.35154  0.40863  0.86829  1.0000
  H   H1063     1.0  0.50680  0.43440  0.89421  1.0000
  H   H1064     1.0  0.47342  0.32472  0.92074  1.0000
  C   C1328     1.0  0.29328  0.44988  0.75674  1.0000
  C   C1329     1.0  0.40768  0.41018  0.84212  1.0000
  H   H1065     1.0  0.31576  0.37361  0.99049  1.0000
  C   C1330     1.0  0.37458  0.46200  0.83183  1.0000
  C   C1331     1.0  0.42161  0.21504  0.90203  1.0000
  S   S186      1.0  0.27524  0.98484  0.89492  1.0000
  H   H1066     1.0  0.41467  0.25430  0.88944  1.0000
  C   C1332     1.0  0.48652  0.98993  0.99305  1.0000
  C   C1333     1.0  0.33362  0.23900  0.96483  1.0000
  C   C1334     1.0  0.27307  0.43856  0.86107  1.0000
  C   C1335     1.0  0.35019  0.24861  0.95628  1.0000
  H   H1067     1.0  0.31742  0.32778  0.84982  1.0000
  H   H1068     1.0  0.32613  0.12187  0.87743  1.0000
  H   H1069     1.0  0.34176  0.17189  0.82916  1.0000
  H   H1070     1.0  0.36565  0.44588  0.77078  1.0000
  C   C1336     1.0  0.32705  0.45580  0.91839  1.0000
  C   C1337     1.0  0.38940  0.99722  0.79986  1.0000
  H   H1071     1.0  0.49877  0.40173  0.77123  1.0000
  H   H1072     1.0  0.45551  0.46047  0.91335  1.0000
  C   C1338     1.0  0.38838  0.46237  0.98860  1.0000
  H   H1073     1.0  0.35392  0.36661  0.93816  1.0000
  H   H1074     1.0  0.40237  0.41762  0.96280  1.0000
  H   H1075     1.0  0.28850  0.16728  0.92779  1.0000
  H   H1076     1.0  0.35829  0.23224  0.82951  1.0000
  C   C1339     1.0  0.34615  0.36980  0.82284  1.0000
  C   C1340     1.0  0.41480  0.19052  0.90940  1.0000
  P   P43       1.0  0.33793  0.46024  0.96048  1.0000
  H   H1077     1.0  0.29392  0.35969  0.83533  1.0000
  H   H1078     1.0  0.35678  0.42524  0.85918  1.0000
  H   H1079     1.0  0.30352  0.39793  0.81297  1.0000
  C   C1341     1.0  0.32421  0.21889  0.95443  1.0000
  H   H1080     1.0  0.30795  0.24859  0.86510  1.0000
  C   C1342     1.0  0.27591  0.45187  0.88004  1.0000
  C   C1343     1.0  0.28254  0.17621  0.86796  1.0000
  H   H1081     1.0  0.45146  0.37186  0.97877  1.0000
  H   H1082     1.0  0.26823  0.26164  0.97897  1.0000
  H   H1083     1.0  0.36279  0.15892  0.93510  1.0000
  C   C1344     1.0  0.50487  0.37565  0.74478  1.0000
  C   C1345     1.0  0.27819  0.41060  0.97431  1.0000
  C   C1346     1.0  0.28708  0.14689  0.89789  1.0000
  C   C1347     1.0  0.33221  0.24176  0.84528  1.0000
  C   C1348     1.0  0.35537  0.15075  0.92207  1.0000
  C   C1349     1.0  0.33490  0.36717  0.96453  1.0000
  C   C1350     1.0  0.50411  0.34904  0.73748  1.0000
  H   H1084     1.0  0.35593  0.41678  0.93639  1.0000
  H   H1085     1.0  0.39086  0.16672  0.91524  1.0000
  C   C1351     1.0  0.49022  0.41249  0.98935  1.0000
  H   H1086     1.0  0.41739  0.37685  0.97877  1.0000
  H   H1087     1.0  0.32769  0.43408  0.92011  1.0000
  H   H1088     1.0  0.28112  0.39616  0.91183  1.0000
  H   H1089     1.0  0.37027  0.24593  0.93112  1.0000
  C   C1352     1.0  0.37060  0.45502  0.98285  1.0000
  C   C1353     1.0  0.30437  0.46745  0.76771  1.0000
  C   C1354     1.0  0.31402  0.38390  0.81873  1.0000
  S   S187      1.0  0.26511  0.30582  0.92609  1.0000
  C   C1355     1.0  0.34824  0.21823  0.88103  1.0000
  C   C1356     1.0  0.49271  0.18617  0.66501  1.0000
  H   H1090     1.0  0.28230  0.45792  0.74698  1.0000
  C   C1357     1.0  0.35179  0.16673  0.90423  1.0000
  C   C1358     1.0  0.35825  0.21913  0.86184  1.0000
  C   C1359     1.0  0.39396  0.98977  0.77917  1.0000
  H   H1091     1.0  0.32252  0.13097  0.82990  1.0000
  H   H1092     1.0  0.32732  0.47122  0.78806  1.0000
  C   C1360     1.0  0.41918  0.11998  0.90953  1.0000
  C   C1361     1.0  0.40583  0.10577  0.92092  1.0000
  C   C1362     1.0  0.38992  0.09746  0.91104  1.0000
  C   C1363     1.0  0.38733  0.10327  0.88978  1.0000
  C   C1364     1.0  0.40061  0.11779  0.87823  1.0000
  C   C1365     1.0  0.41653  0.12611  0.88833  1.0000
  P   P44       1.0  0.39903  0.12154  0.85007  1.0000
  C   C1366     1.0  0.40946  0.09154  0.83813  1.0000
  C   C1367     1.0  0.37493  0.12496  0.84310  1.0000
  C   C1368     1.0  0.36399  0.10198  0.84299  1.0000
  C   C1369     1.0  0.36683  0.15023  0.83787  1.0000
  C   C1370     1.0  0.40314  0.08213  0.81885  1.0000
  C   C1371     1.0  0.41128  0.05898  0.80960  1.0000
  C   C1372     1.0  0.42587  0.04518  0.81943  1.0000
  C   C1373     1.0  0.43245  0.05467  0.83842  1.0000
  C   C1374     1.0  0.42434  0.07779  0.84773  1.0000
  C   C1375     1.0  0.41129  0.15107  0.84124  1.0000
  C   C1376     1.0  0.40906  0.17556  0.85219  1.0000
  C   C1377     1.0  0.41789  0.19876  0.84491  1.0000
  C   C1378     1.0  0.42918  0.19757  0.82681  1.0000
  C   C1379     1.0  0.43170  0.17320  0.81599  1.0000
  C   C1380     1.0  0.42275  0.15002  0.82311  1.0000
  H   H1093     1.0  0.43194  0.12551  0.91688  1.0000
  H   H1094     1.0  0.40808  0.10038  0.93720  1.0000
  H   H1095     1.0  0.37524  0.09555  0.88243  1.0000
  H   H1096     1.0  0.42732  0.13640  0.87963  1.0000
  H   H1097     1.0  0.36989  0.08223  0.84676  1.0000
  H   H1098     1.0  0.37486  0.16832  0.83753  1.0000
  H   H1099     1.0  0.39195  0.09268  0.81092  1.0000
  H   H1100     1.0  0.40630  0.05179  0.79477  1.0000
  H   H1101     1.0  0.43218  0.02726  0.81227  1.0000
  H   H1102     1.0  0.44396  0.04428  0.84595  1.0000
  H   H1103     1.0  0.42985  0.08490  0.86233  1.0000
  H   H1104     1.0  0.40034  0.17674  0.86621  1.0000
  H   H1105     1.0  0.41610  0.21771  0.85329  1.0000
  H   H1106     1.0  0.43613  0.21552  0.82130  1.0000
  H   H1107     1.0  0.44066  0.17228  0.80210  1.0000
  H   H1108     1.0  0.42488  0.13139  0.81444  1.0000
  H   H1109     1.0  0.39566  0.99146  0.83250  1.0000
  C   C1381     1.0  0.34722  0.40750  0.94830  1.0000
  H   H1110     1.0  0.27045  0.45025  0.84698  1.0000
  C   C1382     1.0  0.45615  0.41093  0.96440  1.0000
  C   C1383     1.0  0.33159  0.20796  0.93574  1.0000
  C   C1384     1.0  0.44510  0.39018  0.97248  1.0000
  H   H1111     1.0  0.38563  0.35180  0.85408  1.0000
  H   H1112     1.0  0.42173  0.45443  0.94854  1.0000
  C   C1385     1.0  0.50321  0.44073  0.91010  1.0000
  S   S188      1.0  0.28336  0.22461  0.92059  1.0000
  C   C1386     1.0  0.33254  0.40375  0.86864  1.0000
  H   H1113     1.0  0.49582  0.40096  0.91992  1.0000
  H   H1114     1.0  0.37824  0.01189  0.80312  1.0000
  C   C1387     1.0  0.28268  0.19928  0.88107  1.0000
  C   C1388     1.0  0.35031  0.23106  0.84411  1.0000
  C   C1389     1.0  0.41268  0.47068  0.89319  1.0000
  C   C1390     1.0  0.36373  0.39237  0.88001  1.0000
  C   C1391     1.0  0.27527  0.39452  0.87890  1.0000
  P   P45       1.0  0.38815  0.39962  0.87999  1.0000
  C   C1392     1.0  0.39163  0.43419  0.88754  1.0000
  C   C1393     1.0  0.39995  0.37978  0.89974  1.0000
  C   C1394     1.0  0.39268  0.37946  0.92035  1.0000
  C   C1395     1.0  0.40104  0.36353  0.93583  1.0000
  C   C1396     1.0  0.41747  0.34907  0.93116  1.0000
  C   C1397     1.0  0.42532  0.35032  0.91095  1.0000
  C   C1398     1.0  0.41657  0.36544  0.89516  1.0000
  C   C1399     1.0  0.40970  0.44390  0.88777  1.0000
  C   C1400     1.0  0.29642  0.42196  0.75823  1.0000
  H   H1115     1.0  0.43783  0.98651  0.87180  1.0000
  H   H1116     1.0  0.44585  0.02073  0.99359  1.0000
  C   C1401     1.0  0.32125  0.46655  0.89919  1.0000
  C   C1402     1.0  0.28699  0.16996  0.91104  1.0000
  C   C1403     1.0  0.31063  0.41154  0.77076  1.0000
  S   S189      1.0  0.27398  0.02186  0.79040  1.0000
  C   C1404     1.0  0.34849  0.21705  0.92730  1.0000
  C   C1405     1.0  0.33788  0.36490  0.89100  1.0000
  H   H1117     1.0  0.48773  0.46436  0.96596  1.0000
  H   H1118     1.0  0.32768  0.24789  0.97906  1.0000
  C   C1406     1.0  0.33657  0.42381  0.96220  1.0000
  H   H1119     1.0  0.42449  0.17505  0.91477  1.0000
  C   C1407     1.0  0.39345  0.36653  0.84518  1.0000
  H   H1120     1.0  0.36594  0.35628  0.89912  1.0000
  H   H1121     1.0  0.38030  0.39112  0.92423  1.0000
  H   H1122     1.0  0.39474  0.36235  0.95139  1.0000
  H   H1123     1.0  0.42416  0.33685  0.94311  1.0000
  H   H1124     1.0  0.43818  0.33939  0.90751  1.0000
  H   H1125     1.0  0.42290  0.36593  0.87956  1.0000
  H   H1126     1.0  0.42150  0.43089  0.88347  1.0000
  H   H1127     1.0  0.28750  0.39551  0.96722  1.0000
  H   H1128     1.0  0.35090  0.33475  0.84239  1.0000
  H   H1129     1.0  0.33704  0.08629  0.83862  1.0000
  H   H1130     1.0  0.38640  0.99885  0.76629  1.0000
  H   H1131     1.0  0.37224  0.21079  0.86056  1.0000
  H   H1132     1.0  0.28779  0.40845  0.74962  1.0000
  C   C1408     1.0  0.47644  0.35986  0.94011  1.0000
  C   C1409     1.0  0.50186  0.35781  0.96432  1.0000
  H   H1133     1.0  0.31090  0.21230  0.96044  1.0000
  C   C1410     1.0  0.34121  0.15605  0.88812  1.0000
  C   C1411     1.0  0.36814  0.44279  0.81788  1.0000
  H   H1134     1.0  0.41408  0.97481  0.95688  1.0000
  C   C1412     1.0  0.39726  0.39166  0.85398  1.0000
  C   C1413     1.0  0.35836  0.40482  0.77868  1.0000
  C   C1414     1.0  0.36859  0.42457  0.76798  1.0000
  H   H1135     1.0  0.49613  0.30815  0.74474  1.0000
  C   C1415     1.0  0.38672  0.38959  0.74983  1.0000
  C   C1416     1.0  0.37620  0.36983  0.75989  1.0000
  C   C1417     1.0  0.36193  0.37738  0.77410  1.0000
  H   H1136     1.0  0.37817  0.43037  0.80917  1.0000
  H   H1137     1.0  0.47929  0.98536  0.97889  1.0000
  C   C1418     1.0  0.34883  0.12441  0.92355  1.0000
  H   H1138     1.0  0.49979  0.29932  0.93642  1.0000
  H   H1139     1.0  0.46499  0.37065  0.93287  1.0000
  H   H1140     1.0  0.26639  0.42190  0.94496  1.0000
  H   H1141     1.0  0.48040  0.19659  0.91552  1.0000
  H   H1142     1.0  0.39703  0.34047  0.81827  1.0000
  S   S190      1.0  0.28304  0.12140  0.85880  1.0000
  C   C1419     1.0  0.28457  0.14978  0.87621  1.0000
  S   S191      1.0  0.27934  0.33530  0.98540  1.0000
  Fe  Fe96      1.0  0.28616  0.27128  0.92001  1.0000
  C   C1420     1.0  0.34802  0.15236  0.83296  1.0000
  C   C1421     1.0  0.35761  0.23774  0.93757  1.0000
  H   H1143     1.0  0.32308  0.41639  0.85967  1.0000
  H   H1144     1.0  0.32164  0.45278  0.82665  1.0000
  H   H1145     1.0  0.41550  0.37321  0.79764  1.0000
  C   C1422     1.0  0.37673  0.45123  0.89425  1.0000
  P   P46       1.0  0.34043  0.41512  0.79747  1.0000
  H   H1146     1.0  0.28867  0.12687  0.90462  1.0000
  C   C1423     1.0  0.33861  0.11383  0.90727  1.0000
  S   S192      1.0  0.48146  0.04404  0.98194  1.0000
  C   C1424     1.0  0.38322  0.20636  0.90288  1.0000
  H   H1147     1.0  0.31773  0.45327  0.88651  1.0000
  H   H1148     1.0  0.36385  0.43891  0.99141  1.0000
  C   C1425     1.0  0.42578  0.39288  0.97238  1.0000
  H   H1149     1.0  0.26982  0.40000  0.84595  1.0000
  H   H1150     1.0  0.45555  0.45098  0.95024  1.0000
  H   H1151     1.0  0.42257  0.41766  0.81300  1.0000
  C   C1426     1.0  0.44752  0.43443  0.95631  1.0000
  C   C1427     1.0  0.28467  0.19638  0.90282  1.0000
  H   H1152     1.0  0.39082  0.43229  0.74572  1.0000
  C   C1428     1.0  0.33719  0.12935  0.83328  1.0000
  H   H1153     1.0  0.28174  0.44613  0.91288  1.0000
  H   H1154     1.0  0.38095  0.24724  0.89077  1.0000
  C   C1429     1.0  0.39569  0.18603  0.90975  1.0000
  H   H1155     1.0  0.31115  0.37767  0.88015  1.0000
  C   C1430     1.0  0.36146  0.46881  0.96653  1.0000
  H   H1156     1.0  0.33263  0.34740  0.89918  1.0000
  H   H1157     1.0  0.32386  0.19278  0.92772  1.0000
  C   C1431     1.0  0.31866  0.45712  0.78017  1.0000
  H   H1158     1.0  0.43642  0.21838  0.90158  1.0000
  C   C1432     1.0  0.33291  0.38739  0.81388  1.0000
  H   H1159     1.0  0.33740  0.16816  0.87463  1.0000
  H   H1160     1.0  0.37998  0.08542  0.91965  1.0000
  C   C1433     1.0  0.39981  0.36009  0.82484  1.0000
  H   H1161     1.0  0.32604  0.25106  0.83157  1.0000
  C   C1434     1.0  0.32162  0.42901  0.78217  1.0000
  C   C1435     1.0  0.41020  0.37855  0.81320  1.0000
  C   C1436     1.0  0.42821  0.43663  0.95552  1.0000
  C   C1437     1.0  0.30850  0.36227  0.83148  1.0000
  C   C1438     1.0  0.33469  0.12972  0.88966  1.0000
  C   C1439     1.0  0.32205  0.24052  0.86419  1.0000
  H   H1162     1.0  0.33347  0.09346  0.90840  1.0000
  H   H1163     1.0  0.49669  0.19207  0.75446  1.0000
  H   H1164     1.0  0.38931  0.46486  0.83334  1.0000
  C   C1440     1.0  0.49829  0.38127  0.76537  1.0000
  H   H1165     1.0  0.35503  0.97750  0.94937  1.0000
  C   C1441     1.0  0.32554  0.41145  0.97778  1.0000
  H   H1166     1.0  0.50732  0.25511  0.72286  1.0000
  C   C1442     1.0  0.48672  0.37212  0.95575  1.0000
  C   C1443     1.0  0.26261  0.26686  0.99443  1.0000
  C   C1444     1.0  0.50644  0.33154  0.95752  1.0000
  C   C1445     1.0  0.27261  0.41005  0.86056  1.0000
  H   H1167     1.0  0.48107  0.99154  0.81730  1.0000
  H   H1168     1.0  0.38272  0.99165  0.96837  1.0000
  S   S193      1.0  0.48221  0.97827  0.88779  1.0000
  C   C1446     1.0  0.32466  0.38321  0.97884  1.0000
  C   C1447     1.0  0.49611  0.31952  0.94194  1.0000
  C   C1448     1.0  0.49113  0.43010  0.94505  1.0000
  P   P47       1.0  0.48112  0.40653  0.96359  1.0000
  C   C1449     1.0  0.49689  0.42178  0.92481  1.0000
  C   C1450     1.0  0.49232  0.45747  0.95052  1.0000
  H   H1169     1.0  0.50686  0.17236  0.72046  1.0000
  H   H1170     1.0  0.26727  0.98877  0.99301  1.0000
  H   H1171     1.0  0.31751  0.42345  0.98904  1.0000
  C   C1451     1.0  0.27804  0.41467  0.99602  1.0000
  C   C1452     1.0  0.50808  0.19025  0.67750  1.0000
  C   C1453     1.0  0.41977  0.00077  0.99702  1.0000
  H   H1172     1.0  0.49126  0.54949  0.08975  1.0000
  C   C1454     1.0  0.45742  0.54733  0.05333  1.0000
  H   H1173     1.0  0.45156  0.55855  0.04030  1.0000
  S   S194      1.0  0.45735  0.58241  0.28912  1.0000
  C   C1455     1.0  0.32755  0.94376  0.00772  1.0000
  H   H1174     1.0  0.31959  0.50716  0.02677  1.0000
  C   C1456     1.0  0.42613  0.95292  0.07461  1.0000
  H   H1175     1.0  0.35612  0.89941  0.02314  1.0000
  H   H1176     1.0  0.30229  0.88788  0.31461  1.0000
  H   H1177     1.0  0.40362  0.70496  0.28709  1.0000
  C   C1457     1.0  0.47443  0.60237  0.27598  1.0000
  C   C1458     1.0  0.47255  0.60802  0.25439  1.0000
  C   C1459     1.0  0.48586  0.62313  0.24309  1.0000
  C   C1460     1.0  0.46105  0.67637  0.28908  1.0000
  H   H1178     1.0  0.42252  0.91333  0.06106  1.0000
  C   C1461     1.0  0.48992  0.61207  0.28612  1.0000
  H   H1179     1.0  0.46067  0.60070  0.24633  1.0000
  H   H1180     1.0  0.48396  0.62767  0.22665  1.0000
  H   H1181     1.0  0.43745  0.51594  0.05147  1.0000
  H   H1182     1.0  0.50530  0.50934  0.31347  1.0000
  C   C1462     1.0  0.47281  0.61345  0.07232  1.0000
  H   H1183     1.0  0.46082  0.91888  0.08259  1.0000
  C   C1463     1.0  0.39736  0.93853  0.10263  1.0000
  C   C1464     1.0  0.48903  0.48440  0.03268  1.0000
  C   C1465     1.0  0.48058  0.62008  0.09159  1.0000
  H   H1184     1.0  0.41146  0.91172  0.99938  1.0000
  C   C1466     1.0  0.30203  0.95041  0.03276  1.0000
  C   C1467     1.0  0.47366  0.49042  0.01993  1.0000
  H   H1185     1.0  0.39055  0.60881  0.31748  1.0000
  C   C1468     1.0  0.28578  0.66638  0.28845  1.0000
  C   C1469     1.0  0.45544  0.65239  0.09862  1.0000
  C   C1470     1.0  0.41693  0.97028  0.02684  1.0000
  C   C1471     1.0  0.41977  0.97098  0.09032  1.0000
  C   C1472     1.0  0.38441  0.90593  0.01351  1.0000
  S   S195      1.0  0.26678  0.77900  0.29362  1.0000
  C   C1473     1.0  0.39278  0.71761  0.31769  1.0000
  H   H1186     1.0  0.38934  0.90613  0.02946  1.0000
  C   C1474     1.0  0.45779  0.93123  0.05009  1.0000
  C   C1475     1.0  0.35907  0.72562  0.29706  1.0000
  P   P48       1.0  0.48363  0.58781  0.05567  1.0000
  H   H1187     1.0  0.45801  0.93766  0.01635  1.0000
  H   H1188     1.0  0.47700  0.52685  0.20106  1.0000
  C   C1476     1.0  0.45644  0.50843  0.07662  1.0000
  C   C1477     1.0  0.34997  0.64547  0.31359  1.0000
  C   C1478     1.0  0.48048  0.59540  0.02816  1.0000
  C   C1479     1.0  0.47590  0.50300  0.00017  1.0000
  C   C1480     1.0  0.47934  0.88454  0.04072  1.0000
  H   H1189     1.0  0.48006  0.63893  0.03205  1.0000
  H   H1190     1.0  0.47180  0.66732  0.27899  1.0000
  C   C1481     1.0  0.48025  0.57442  0.01343  1.0000
  P   P49       1.0  0.32886  0.65310  0.32857  1.0000
  H   H1191     1.0  0.43427  0.65490  0.07532  1.0000
  C   C1482     1.0  0.49735  0.58793  0.19773  1.0000
  C   C1483     1.0  0.26068  0.80458  0.18953  1.0000
  H   H1192     1.0  0.29438  0.96302  0.04404  1.0000
  H   H1193     1.0  0.28392  0.91680  0.03694  1.0000
  C   C1484     1.0  0.36919  0.64995  0.28195  1.0000
  C   C1485     1.0  0.45307  0.70152  0.28392  1.0000
  C   C1486     1.0  0.45585  0.62576  0.06673  1.0000
  C   C1487     1.0  0.29619  0.50116  0.00709  1.0000
  C   C1488     1.0  0.47160  0.51799  0.08735  1.0000
  C   C1489     1.0  0.48463  0.56777  0.19420  1.0000
  C   C1490     1.0  0.47479  0.89087  0.06160  1.0000
  H   H1194     1.0  0.37415  0.71290  0.26909  1.0000
  H   H1195     1.0  0.32099  0.70992  0.31736  1.0000
  C   C1491     1.0  0.36560  0.90220  0.00988  1.0000
  C   C1492     1.0  0.47913  0.62234  0.02112  1.0000
  H   H1196     1.0  0.29899  0.63198  0.30289  1.0000
  S   S196      1.0  0.42944  0.53739  0.32819  1.0000
  C   C1493     1.0  0.39166  0.71230  0.29610  1.0000
  C   C1494     1.0  0.47204  0.63968  0.10455  1.0000
  H   H1197     1.0  0.48810  0.86694  0.03714  1.0000
  H   H1198     1.0  0.45026  0.48959  0.08141  1.0000
  C   C1495     1.0  0.46394  0.91400  0.06629  1.0000
  H   H1199     1.0  0.45779  0.71201  0.26987  1.0000
  H   H1200     1.0  0.37129  0.65810  0.26627  1.0000
  H   H1201     1.0  0.34248  0.66942  0.28630  1.0000
  C   C1496     1.0  0.37489  0.71659  0.28581  1.0000
  C   C1497     1.0  0.29810  0.71003  0.29647  1.0000
  C   C1498     1.0  0.31492  0.49893  0.01211  1.0000
  C   C1499     1.0  0.31778  0.96010  0.02231  1.0000
  P   P50       1.0  0.44467  0.96185  0.05650  1.0000
  H   H1202     1.0  0.34609  0.72905  0.28908  1.0000
  C   C1500     1.0  0.47294  0.90126  0.02452  1.0000
  C   C1501     1.0  0.44728  0.64531  0.07978  1.0000
  C   C1502     1.0  0.38285  0.63308  0.29071  1.0000
  H   H1203     1.0  0.34779  0.73751  0.32739  1.0000
  H   H1204     1.0  0.25987  0.77110  0.24968  1.0000
  H   H1205     1.0  0.31722  0.84816  0.29677  1.0000
  H   H1206     1.0  0.34213  0.48529  0.00226  1.0000
  H   H1207     1.0  0.50182  0.56385  0.26106  1.0000
  H   H1208     1.0  0.44922  0.62018  0.05234  1.0000
  H   H1209     1.0  0.45991  0.48541  0.02550  1.0000
  H   H1210     1.0  0.27574  0.65443  0.28048  1.0000
  C   C1503     1.0  0.29898  0.65377  0.30126  1.0000
  C   C1504     1.0  0.31181  0.66927  0.31191  1.0000
  C   C1505     1.0  0.32163  0.91755  0.00338  1.0000
  H   H1211     1.0  0.33226  0.59718  0.31292  1.0000
  H   H1212     1.0  0.49320  0.61020  0.09676  1.0000
  C   C1506     1.0  0.38006  0.62221  0.31079  1.0000
  C   C1507     1.0  0.28533  0.69448  0.28607  1.0000
  C   C1508     1.0  0.41786  0.92762  0.07304  1.0000
  C   C1509     1.0  0.44924  0.52325  0.05977  1.0000
  C   C1510     1.0  0.47662  0.62807  0.99979  1.0000
  H   H1213     1.0  0.27499  0.70424  0.27628  1.0000
  H   H1214     1.0  0.39737  0.90082  0.08588  1.0000
  C   C1511     1.0  0.40357  0.92047  0.08702  1.0000
  C   C1512     1.0  0.43910  0.71310  0.29687  1.0000
  C   C1513     1.0  0.47973  0.54215  0.08103  1.0000
  C   C1514     1.0  0.47311  0.55650  0.06350  1.0000
  H   H1215     1.0  0.34457  0.82507  0.31249  1.0000
  Fe  Fe97      1.0  0.45048  0.57001  0.32339  1.0000
  H   H1216     1.0  0.43313  0.73269  0.29271  1.0000
  H   H1217     1.0  0.48007  0.87816  0.07419  1.0000
  C   C1515     1.0  0.29613  0.92434  0.02873  1.0000
  C   C1516     1.0  0.30588  0.90791  0.01420  1.0000
  H   H1218     1.0  0.49540  0.60779  0.19068  1.0000
  C   C1517     1.0  0.31463  0.87836  0.32103  1.0000
  C   C1518     1.0  0.33850  0.84312  0.31974  1.0000
  H   H1219     1.0  0.27114  0.79944  0.17762  1.0000
  H   H1220     1.0  0.44885  0.66757  0.10873  1.0000
  H   H1221     1.0  0.28635  0.51105  0.01785  1.0000
  H   H1222     1.0  0.29748  0.73190  0.29481  1.0000
  H   H1223     1.0  0.47838  0.64488  0.11926  1.0000
  C   C1519     1.0  0.48703  0.54234  0.20355  1.0000
  C   C1520     1.0  0.40545  0.96377  0.10426  1.0000
  C   C1521     1.0  0.35999  0.73033  0.31861  1.0000
  H   H1224     1.0  0.26422  0.49458  0.23784  1.0000
  C   C1522     1.0  0.32768  0.48639  0.99815  1.0000
  H   H1225     1.0  0.33974  0.95161  0.99983  1.0000
  H   H1226     1.0  0.50380  0.51731  0.22366  1.0000
  H   H1227     1.0  0.30096  0.88778  0.01178  1.0000
  C   C1523     1.0  0.31134  0.69750  0.30929  1.0000
  H   H1228     1.0  0.47285  0.57199  0.18434  1.0000
  C   C1524     1.0  0.35284  0.65627  0.29337  1.0000
  H   H1229     1.0  0.26173  0.83953  0.29195  1.0000
  H   H1230     1.0  0.49167  0.60791  0.30267  1.0000
  C   C1525     1.0  0.32306  0.85605  0.31096  1.0000
  H   H1231     1.0  0.39554  0.62818  0.28191  1.0000
  C   C1526     1.0  0.50696  0.49047  0.02564  1.0000
  H   H1232     1.0  0.47712  0.50670  0.10055  1.0000
  H   H1233     1.0  0.50491  0.88963  0.19109  1.0000
  C   C1527     1.0  0.46228  0.92459  0.02914  1.0000
  H   H1234     1.0  0.47676  0.89661  0.00841  1.0000
  H   H1235     1.0  0.38633  0.93292  0.11353  1.0000
  C   C1528     1.0  0.32350  0.59735  0.32695  1.0000
  H   H1236     1.0  0.48202  0.55358  0.01840  1.0000
  H   H1237     1.0  0.50540  0.48178  0.18479  1.0000
  Fe  Fe98      1.0  0.27508  0.78252  0.32825  1.0000
  C   C1529     1.0  0.49287  0.96892  0.00635  1.0000
  C   C1530     1.0  0.45532  0.66303  0.30741  1.0000
  C   C1531     1.0  0.43282  0.69944  0.31498  1.0000
  H   H1238     1.0  0.46166  0.64364  0.31153  1.0000
  H   H1239     1.0  0.48902  0.54648  0.29457  1.0000
  C   C1532     1.0  0.44147  0.67464  0.32048  1.0000
  H   H1240     1.0  0.31940  0.55436  0.32567  1.0000
  H   H1241     1.0  0.26068  0.90695  0.00905  1.0000
  H   H1242     1.0  0.34948  0.80019  0.00125  1.0000
  C   C1533     1.0  0.50226  0.53699  0.21626  1.0000
  H   H1243     1.0  0.49044  0.94830  0.00209  1.0000
  H   H1244     1.0  0.48221  0.95855  0.07442  1.0000
  C   C1534     1.0  0.50149  0.63250  0.25311  1.0000
  H   H1245     1.0  0.26996  0.84518  0.19353  1.0000
  C   C1535     1.0  0.25999  0.83033  0.19849  1.0000
  H   H1246     1.0  0.40863  0.95636  0.03592  1.0000
  C   C1536     1.0  0.50184  0.53774  0.28806  1.0000
  H   H1247     1.0  0.48699  0.47492  0.04788  1.0000
  C   C1537     1.0  0.50331  0.62699  0.27475  1.0000
  C   C1538     1.0  0.36368  0.62825  0.32216  1.0000
  H   H1248     1.0  0.35715  0.84821  0.99758  1.0000
  H   H1249     1.0  0.39876  0.77045  0.32529  1.0000
  C   C1539     1.0  0.37677  0.72647  0.32887  1.0000
  H   H1250     1.0  0.39147  0.50909  0.33045  1.0000
  C   C1540     1.0  0.48714  0.72888  0.54782  1.0000
  Fe  Fe99      1.0  0.45282  0.77554  0.46535  1.0000
  S   S197      1.0  0.47299  0.78838  0.43983  1.0000
  S   S198      1.0  0.45847  0.76529  0.50009  1.0000
  Fe  Fe100     1.0  0.41935  0.78759  0.43644  1.0000
  S   S199      1.0  0.43718  0.80079  0.40923  1.0000
  S   S200      1.0  0.38798  0.79033  0.43686  1.0000
  Fe  Fe101     1.0  0.45504  0.76442  0.41826  1.0000
  S   S201      1.0  0.46608  0.73567  0.39280  1.0000
  Fe  Fe102     1.0  0.45317  0.82360  0.43305  1.0000
  S   S202      1.0  0.45980  0.86889  0.43346  1.0000
  S   S203      1.0  0.43601  0.74994  0.44407  1.0000
  S   S204      1.0  0.43413  0.81210  0.45994  1.0000
  P   P51       1.0  0.34746  0.88892  0.37194  1.0000
  S   S205      1.0  0.27331  0.72419  0.39587  1.0000
  Fe  Fe103     1.0  0.41512  0.56488  0.35166  1.0000
  S   S206      1.0  0.43079  0.54788  0.37872  1.0000
  S   S207      1.0  0.38399  0.57207  0.35285  1.0000
  S   S208      1.0  0.46863  0.55257  0.34898  1.0000
  Fe  Fe104     1.0  0.44638  0.52139  0.35524  1.0000
  H   H1251     1.0  0.42568  0.86922  0.36665  1.0000
  Fe  Fe105     1.0  0.45106  0.58033  0.37028  1.0000
  S   S209      1.0  0.45818  0.60833  0.39687  1.0000
  C   C1541     1.0  0.28091  0.67095  0.40398  1.0000
  S   S210      1.0  0.43428  0.59882  0.34454  1.0000
  Fe  Fe106     1.0  0.27662  0.51274  0.43068  1.0000
  S   S211      1.0  0.29290  0.52609  0.45842  1.0000
  C   C1542     1.0  0.31896  0.68974  0.36056  1.0000
  Fe  Fe107     1.0  0.26954  0.57208  0.41807  1.0000
  S   S212      1.0  0.28566  0.58881  0.44467  1.0000
  H   H1252     1.0  0.45869  0.77745  0.36121  1.0000
  Fe  Fe108     1.0  0.30622  0.55548  0.43629  1.0000
  S   S213      1.0  0.33720  0.56087  0.43806  1.0000
  Fe  Fe109     1.0  0.27089  0.55829  0.46469  1.0000
  S   S214      1.0  0.29132  0.54069  0.40819  1.0000
  Fe  Fe110     1.0  0.31052  0.78687  0.35413  1.0000
  S   S215      1.0  0.29427  0.79077  0.38423  1.0000
  S   S216      1.0  0.34207  0.78479  0.35294  1.0000
  Fe  Fe111     1.0  0.27558  0.82020  0.36720  1.0000
  Fe  Fe112     1.0  0.27711  0.75752  0.37175  1.0000
  H   H1253     1.0  0.29170  0.59605  0.37676  1.0000
  H   H1254     1.0  0.46462  0.75819  0.54427  1.0000
  S   S217      1.0  0.29462  0.75169  0.34257  1.0000
  H   H1255     1.0  0.40266  0.65921  0.33640  1.0000
  H   H1256     1.0  0.40473  0.83273  0.37833  1.0000
  H   H1257     1.0  0.38484  0.56695  0.47366  1.0000
  C   C1543     1.0  0.31612  0.57298  0.33402  1.0000
  C   C1544     1.0  0.33134  0.93477  0.39149  1.0000
  H   H1258     1.0  0.28355  0.56108  0.58526  1.0000
  C   C1545     1.0  0.27843  0.90637  0.36915  1.0000
  C   C1546     1.0  0.28084  0.93471  0.36948  1.0000
  P   P52       1.0  0.25900  0.73286  0.45973  1.0000
  C   C1547     1.0  0.32791  0.47892  0.43132  1.0000
  H   H1259     1.0  0.36941  0.73918  0.43475  1.0000
  C   C1548     1.0  0.46596  0.66347  0.45875  1.0000
  S   S218      1.0  0.26309  0.56469  0.49956  1.0000
  C   C1549     1.0  0.35021  0.56227  0.41426  1.0000
  C   C1550     1.0  0.34147  0.56419  0.39492  1.0000
  C   C1551     1.0  0.35208  0.56687  0.37628  1.0000
  C   C1552     1.0  0.37147  0.56734  0.37671  1.0000
  C   C1553     1.0  0.38027  0.56495  0.39603  1.0000
  C   C1554     1.0  0.36965  0.56249  0.41476  1.0000
  H   H1260     1.0  0.32653  0.56439  0.39436  1.0000
  H   H1261     1.0  0.34523  0.56886  0.36144  1.0000
  H   H1262     1.0  0.39518  0.56551  0.39659  1.0000
  H   H1263     1.0  0.37651  0.56093  0.42965  1.0000
  C   C1555     1.0  0.37564  0.78892  0.41326  1.0000
  C   C1556     1.0  0.38449  0.78335  0.39392  1.0000
  C   C1557     1.0  0.37402  0.78208  0.37556  1.0000
  C   C1558     1.0  0.35468  0.78621  0.37640  1.0000
  C   C1559     1.0  0.34590  0.79164  0.39578  1.0000
  C   C1560     1.0  0.35633  0.79289  0.41411  1.0000
  H   H1264     1.0  0.39936  0.78000  0.39307  1.0000
  H   H1265     1.0  0.38090  0.77798  0.36065  1.0000
  H   H1266     1.0  0.33112  0.79522  0.39667  1.0000
  H   H1267     1.0  0.34939  0.79713  0.42902  1.0000
  C   C1561     1.0  0.46105  0.70072  0.39231  1.0000
  C   C1562     1.0  0.46800  0.68456  0.37565  1.0000
  C   C1563     1.0  0.46591  0.65627  0.37598  1.0000
  C   C1564     1.0  0.45695  0.64390  0.39309  1.0000
  C   C1565     1.0  0.44901  0.66027  0.40902  1.0000
  C   C1566     1.0  0.45104  0.68851  0.40866  1.0000
  H   H1268     1.0  0.47567  0.69380  0.36282  1.0000
  H   H1269     1.0  0.47217  0.64392  0.36361  1.0000
  H   H1270     1.0  0.44200  0.65092  0.42218  1.0000
  H   H1271     1.0  0.44558  0.70065  0.42148  1.0000
  C   C1567     1.0  0.45864  0.89531  0.41423  1.0000
  C   C1568     1.0  0.46034  0.92232  0.42071  1.0000
  C   C1569     1.0  0.46021  0.94390  0.40604  1.0000
  C   C1570     1.0  0.45859  0.93873  0.38457  1.0000
  C   C1571     1.0  0.45663  0.91175  0.37812  1.0000
  C   C1572     1.0  0.45657  0.89020  0.39282  1.0000
  H   H1272     1.0  0.46206  0.92654  0.43719  1.0000
  H   H1273     1.0  0.45621  0.85462  0.47925  1.0000
  H   H1274     1.0  0.45545  0.90744  0.36157  1.0000
  H   H1275     1.0  0.45548  0.86957  0.38754  1.0000
  C   C1573     1.0  0.47488  0.74458  0.51395  1.0000
  C   C1574     1.0  0.48786  0.72745  0.50369  1.0000
  H   H1276     1.0  0.41581  0.72546  0.37700  1.0000
  C   C1575     1.0  0.31201  0.85006  0.41239  1.0000
  C   C1576     1.0  0.41084  0.87310  0.36779  1.0000
  C   C1577     1.0  0.47462  0.74512  0.53610  1.0000
  H   H1277     1.0  0.48855  0.72712  0.48676  1.0000
  C   C1578     1.0  0.34036  0.85695  0.43094  1.0000
  C   C1579     1.0  0.32463  0.96156  0.39175  1.0000
  H   H1278     1.0  0.28105  0.78145  0.45215  1.0000
  H   H1279     1.0  0.48833  0.86962  0.47439  1.0000
  P   P53       1.0  0.41448  0.71474  0.33123  1.0000
  H   H1280     1.0  0.35752  0.84205  0.34497  1.0000
  C   C1580     1.0  0.48101  0.70464  0.44727  1.0000
  C   C1581     1.0  0.35180  0.67890  0.35694  1.0000
  H   H1281     1.0  0.45406  0.58646  0.53667  1.0000
  C   C1582     1.0  0.34078  0.71141  0.38297  1.0000
  C   C1583     1.0  0.36428  0.72863  0.44857  1.0000
  H   H1282     1.0  0.37732  0.73103  0.34547  1.0000
  H   H1283     1.0  0.40092  0.84622  0.44070  1.0000
  C   C1584     1.0  0.36101  0.63022  0.40301  1.0000
  C   C1585     1.0  0.34370  0.63023  0.39377  1.0000
  C   C1586     1.0  0.32776  0.63645  0.40577  1.0000
  C   C1587     1.0  0.32905  0.64263  0.42707  1.0000
  C   C1588     1.0  0.34643  0.64249  0.43652  1.0000
  C   C1589     1.0  0.36245  0.63655  0.42427  1.0000
  P   P54       1.0  0.34840  0.65188  0.46373  1.0000
  C   C1590     1.0  0.32667  0.64460  0.47721  1.0000
  C   C1591     1.0  0.32198  0.61767  0.48140  1.0000
  C   C1592     1.0  0.29259  0.63276  0.49705  1.0000
  H   H1284     1.0  0.30340  0.63941  0.36369  1.0000
  C   C1593     1.0  0.47758  0.64860  0.44476  1.0000
  C   C1594     1.0  0.31379  0.66548  0.48250  1.0000
  C   C1595     1.0  0.35374  0.68733  0.46523  1.0000
  C   C1596     1.0  0.35148  0.70128  0.48434  1.0000
  C   C1597     1.0  0.35529  0.72882  0.48541  1.0000
  C   C1598     1.0  0.36166  0.74250  0.46751  1.0000
  H   H1285     1.0  0.37321  0.62444  0.39377  1.0000
  H   H1286     1.0  0.34261  0.62469  0.37742  1.0000
  H   H1287     1.0  0.31437  0.63596  0.39864  1.0000
  H   H1288     1.0  0.31644  0.64715  0.43606  1.0000
  H   H1289     1.0  0.37600  0.63657  0.43118  1.0000
  C   C1599     1.0  0.46130  0.83478  0.50891  1.0000
  H   H1290     1.0  0.33112  0.60101  0.47662  1.0000
  H   H1291     1.0  0.37910  0.92415  0.36125  1.0000
  C   C1600     1.0  0.34809  0.86909  0.41301  1.0000
  H   H1292     1.0  0.27584  0.50851  0.53309  1.0000
  H   H1293     1.0  0.31650  0.68631  0.47863  1.0000
  H   H1294     1.0  0.34669  0.69089  0.49840  1.0000
  H   H1295     1.0  0.35338  0.73958  0.50012  1.0000
  H   H1296     1.0  0.36472  0.76382  0.46831  1.0000
  C   C1601     1.0  0.40872  0.68832  0.39221  1.0000
  C   C1602     1.0  0.40426  0.66122  0.38966  1.0000
  C   C1603     1.0  0.40189  0.65091  0.36953  1.0000
  C   C1604     1.0  0.40437  0.66755  0.35193  1.0000
  H   H1297     1.0  0.41062  0.69634  0.40779  1.0000
  H   H1298     1.0  0.40303  0.64807  0.40325  1.0000
  H   H1299     1.0  0.39861  0.62980  0.36746  1.0000
  C   C1605     1.0  0.27157  0.89291  0.38699  1.0000
  H   H1300     1.0  0.31620  0.83846  0.44461  1.0000
  H   H1301     1.0  0.32854  0.92212  0.40505  1.0000
  H   H1302     1.0  0.31484  0.90498  0.34744  1.0000
  C   C1606     1.0  0.32181  0.88798  0.33971  1.0000
  C   C1607     1.0  0.44333  0.57347  0.44615  1.0000
  C   C1608     1.0  0.42601  0.57573  0.43688  1.0000
  C   C1609     1.0  0.41504  0.59914  0.43978  1.0000
  C   C1610     1.0  0.42145  0.62048  0.45175  1.0000
  C   C1611     1.0  0.43907  0.61867  0.46079  1.0000
  C   C1612     1.0  0.44980  0.59475  0.45812  1.0000
  P   P55       1.0  0.44853  0.64689  0.47479  1.0000
  C   C1613     1.0  0.45925  0.63450  0.49843  1.0000
  C   C1614     1.0  0.43489  0.79909  0.34905  1.0000
  S   S219      1.0  0.45918  0.96490  0.36508  1.0000
  H   H1303     1.0  0.37899  0.87463  0.46207  1.0000
  C   C1615     1.0  0.47439  0.82853  0.52419  1.0000
  H   H1304     1.0  0.47738  0.81720  0.62333  1.0000
  H   H1305     1.0  0.47995  0.66547  0.49890  1.0000
  P   P56       1.0  0.39430  0.95965  0.42452  1.0000
  C   C1616     1.0  0.49761  0.85229  0.50372  1.0000
  C   C1617     1.0  0.43071  0.67189  0.48188  1.0000
  C   C1618     1.0  0.42158  0.68660  0.46608  1.0000
  C   C1619     1.0  0.40853  0.70699  0.47134  1.0000
  C   C1620     1.0  0.40485  0.71339  0.49238  1.0000
  C   C1621     1.0  0.41400  0.69910  0.50823  1.0000
  C   C1622     1.0  0.42690  0.67844  0.50304  1.0000
  H   H1306     1.0  0.45200  0.55554  0.44346  1.0000
  H   H1307     1.0  0.42124  0.55951  0.42714  1.0000
  H   H1308     1.0  0.40165  0.60078  0.43246  1.0000
  H   H1309     1.0  0.41259  0.63821  0.45368  1.0000
  H   H1310     1.0  0.46343  0.59277  0.46483  1.0000
  C   C1623     1.0  0.39268  0.62596  0.49882  1.0000
  H   H1311     1.0  0.45969  0.70365  0.47117  1.0000
  H   H1312     1.0  0.47031  0.81616  0.53749  1.0000
  C   C1624     1.0  0.43934  0.75038  0.34782  1.0000
  C   C1625     1.0  0.49871  0.84747  0.58152  1.0000
  C   C1626     1.0  0.46809  0.69158  0.46023  1.0000
  H   H1313     1.0  0.29792  0.84300  0.41221  1.0000
  H   H1314     1.0  0.42493  0.68280  0.44966  1.0000
  H   H1315     1.0  0.40188  0.71869  0.45905  1.0000
  H   H1316     1.0  0.39533  0.72998  0.49638  1.0000
  H   H1317     1.0  0.41156  0.70463  0.52453  1.0000
  H   H1318     1.0  0.43417  0.66828  0.51562  1.0000
  H   H1319     1.0  0.49074  0.78472  0.56233  1.0000
  C   C1627     1.0  0.39926  0.86765  0.43732  1.0000
  C   C1628     1.0  0.33629  0.96797  0.35622  1.0000
  C   C1629     1.0  0.28958  0.76377  0.44823  1.0000
  C   C1630     1.0  0.30746  0.76743  0.43995  1.0000
  C   C1631     1.0  0.31872  0.74504  0.43458  1.0000
  C   C1632     1.0  0.31229  0.71894  0.43788  1.0000
  C   C1633     1.0  0.29440  0.71522  0.44616  1.0000
  C   C1634     1.0  0.34075  0.92440  0.37357  1.0000
  C   C1635     1.0  0.26292  0.63372  0.39160  1.0000
  C   C1636     1.0  0.34579  0.85281  0.33834  1.0000
  H   H1320     1.0  0.40177  0.63437  0.51026  1.0000
  C   C1637     1.0  0.30478  0.57252  0.35208  1.0000
  C   C1638     1.0  0.35798  0.48942  0.44460  1.0000
  C   C1639     1.0  0.37064  0.50168  0.35437  1.0000
  C   C1640     1.0  0.40352  0.89881  0.36312  1.0000
  C   C1641     1.0  0.40997  0.69432  0.35430  1.0000
  C   C1642     1.0  0.30504  0.61184  0.49134  1.0000
  H   H1321     1.0  0.31241  0.78763  0.43717  1.0000
  H   H1322     1.0  0.33234  0.74803  0.42765  1.0000
  H   H1323     1.0  0.32094  0.70160  0.43345  1.0000
  H   H1324     1.0  0.28956  0.69491  0.44832  1.0000
  H   H1325     1.0  0.48079  0.61037  0.55103  1.0000
  C   C1643     1.0  0.38685  0.88368  0.44928  1.0000
  C   C1644     1.0  0.30749  0.62102  0.35553  1.0000
  H   H1326     1.0  0.42028  0.86715  0.41288  1.0000
  C   C1645     1.0  0.49259  0.83757  0.52186  1.0000
  C   C1646     1.0  0.29696  0.65957  0.49265  1.0000
  H   H1327     1.0  0.41275  0.91473  0.35828  1.0000
  H   H1328     1.0  0.44740  0.82715  0.51051  1.0000
  C   C1647     1.0  0.39486  0.59881  0.49305  1.0000
  C   C1648     1.0  0.27077  0.51653  0.54800  1.0000
  H   H1329     1.0  0.36313  0.52052  0.35144  1.0000
  C   C1649     1.0  0.38315  0.58795  0.47831  1.0000
  H   H1330     1.0  0.50161  0.70008  0.42247  1.0000
  C   C1650     1.0  0.35673  0.96330  0.43588  1.0000
  H   H1331     1.0  0.30138  0.59099  0.49429  1.0000
  C   C1651     1.0  0.41802  0.79691  0.33894  1.0000
  C   C1652     1.0  0.33356  0.67526  0.35036  1.0000
  H   H1332     1.0  0.35244  0.49015  0.37969  1.0000
  H   H1333     1.0  0.37741  0.66316  0.49465  1.0000
  H   H1334     1.0  0.36239  0.69115  0.43243  1.0000
  H   H1335     1.0  0.36168  0.61934  0.33763  1.0000
  H   H1336     1.0  0.50506  0.86643  0.57767  1.0000
  H   H1337     1.0  0.44777  0.73254  0.35143  1.0000
  C   C1653     1.0  0.38437  0.90403  0.36481  1.0000
  C   C1654     1.0  0.45975  0.60352  0.52823  1.0000
  H   H1338     1.0  0.26227  0.89823  0.41918  1.0000
  C   C1655     1.0  0.44558  0.77585  0.35335  1.0000
  C   C1656     1.0  0.37873  0.64224  0.48993  1.0000
  C   C1657     1.0  0.38499  0.91143  0.44514  1.0000
  C   C1658     1.0  0.37995  0.85765  0.37589  1.0000
  C   C1659     1.0  0.36033  0.70121  0.44737  1.0000
  C   C1660     1.0  0.36675  0.63139  0.47524  1.0000
  C   C1661     1.0  0.27520  0.54664  0.57726  1.0000
  H   H1339     1.0  0.34841  0.85477  0.44503  1.0000
  C   C1662     1.0  0.27665  0.95013  0.38767  1.0000
  C   C1663     1.0  0.32229  0.84756  0.43066  1.0000
  H   H1340     1.0  0.29124  0.67821  0.41432  1.0000
  C   C1664     1.0  0.44033  0.96973  0.45986  1.0000
  C   C1665     1.0  0.36924  0.60417  0.46941  1.0000
  H   H1341     1.0  0.36944  0.69968  0.37804  1.0000
  C   C1666     1.0  0.41176  0.70480  0.37460  1.0000
  H   H1342     1.0  0.37595  0.92352  0.45535  1.0000
  H   H1343     1.0  0.40565  0.58618  0.49991  1.0000
  C   C1667     1.0  0.35534  0.69676  0.37324  1.0000
  H   H1344     1.0  0.29480  0.54083  0.55152  1.0000
  H   H1345     1.0  0.31139  0.86395  0.38047  1.0000
  C   C1668     1.0  0.32261  0.70775  0.37675  1.0000
  C   C1669     1.0  0.39907  0.85258  0.37432  1.0000
  H   H1346     1.0  0.34360  0.72596  0.39506  1.0000
  H   H1347     1.0  0.31134  0.71929  0.38423  1.0000
  H   H1348     1.0  0.30474  0.68760  0.35580  1.0000
  H   H1349     1.0  0.27945  0.62807  0.50466  1.0000
  C   C1670     1.0  0.41000  0.87940  0.42143  1.0000
  H   H1350     1.0  0.32749  0.96693  0.44355  1.0000
  H   H1351     1.0  0.36198  0.87670  0.41363  1.0000
  C   C1671     1.0  0.30053  0.59651  0.36281  1.0000
  C   C1672     1.0  0.39519  0.92331  0.42854  1.0000
  C   C1673     1.0  0.40800  0.90705  0.41703  1.0000
  C   C1674     1.0  0.49052  0.66174  0.43190  1.0000
  H   H1352     1.0  0.36342  0.66840  0.34944  1.0000
  H   H1353     1.0  0.36041  0.59543  0.45792  1.0000
  H   H1354     1.0  0.49874  0.65029  0.42040  1.0000
  H   H1355     1.0  0.28373  0.62995  0.41502  1.0000
  C   C1675     1.0  0.37239  0.88336  0.37098  1.0000
  C   C1676     1.0  0.27033  0.93652  0.40570  1.0000
  C   C1677     1.0  0.38656  0.49512  0.34239  1.0000
  C   C1678     1.0  0.31975  0.86193  0.39435  1.0000
  H   H1356     1.0  0.43790  0.66417  0.33489  1.0000
  H   H1357     1.0  0.42194  0.95644  0.39002  1.0000
  C   C1679     1.0  0.40926  0.96512  0.38388  1.0000
  C   C1680     1.0  0.34327  0.94131  0.35598  1.0000
  C   C1681     1.0  0.28160  0.53508  0.55837  1.0000
  H   H1358     1.0  0.40975  0.81493  0.33550  1.0000
  S   S220      1.0  0.44520  0.47446  0.35715  1.0000
  C   C1682     1.0  0.25834  0.72856  0.48795  1.0000
  C   C1683     1.0  0.47481  0.61692  0.53632  1.0000
  C   C1684     1.0  0.36466  0.48434  0.37040  1.0000
  H   H1359     1.0  0.44009  0.60202  0.50347  1.0000
  C   C1685     1.0  0.49883  0.82603  0.56710  1.0000
  H   H1360     1.0  0.29922  0.55364  0.35779  1.0000
  H   H1361     1.0  0.28574  0.94487  0.35541  1.0000
  H   H1362     1.0  0.36630  0.50066  0.45528  1.0000
  H   H1363     1.0  0.41812  0.94188  0.45908  1.0000
  H   H1364     1.0  0.28721  0.67574  0.49700  1.0000
  C   C1686     1.0  0.27135  0.68922  0.39098  1.0000
  H   H1365     1.0  0.46186  0.96441  0.41126  1.0000
  C   C1687     1.0  0.33789  0.87148  0.39453  1.0000
  C   C1688     1.0  0.27671  0.64343  0.40434  1.0000
  C   C1689     1.0  0.25835  0.67935  0.37716  1.0000
  H   H1366     1.0  0.41697  0.91566  0.40511  1.0000
  C   C1690     1.0  0.49076  0.80156  0.57312  1.0000
  H   H1367     1.0  0.47721  0.77924  0.59796  1.0000
  H   H1368     1.0  0.37102  0.84141  0.38082  1.0000
  C   C1691     1.0  0.33767  0.87557  0.34835  1.0000
  C   C1692     1.0  0.45192  0.61233  0.50938  1.0000
  C   C1693     1.0  0.47431  0.64793  0.50674  1.0000
  C   C1694     1.0  0.48207  0.63909  0.52557  1.0000
  H   H1369     1.0  0.47623  0.62708  0.44289  1.0000
  C   C1695     1.0  0.48296  0.79843  0.59327  1.0000
  H   H1370     1.0  0.44713  0.95923  0.47266  1.0000
  H   H1371     1.0  0.50625  0.88820  0.54106  1.0000
  H   H1372     1.0  0.48674  0.72961  0.56481  1.0000
  C   C1696     1.0  0.49213  0.68977  0.43303  1.0000
  C   C1697     1.0  0.33870  0.49242  0.44562  1.0000
  H   H1373     1.0  0.26343  0.67498  0.46953  1.0000
  C   C1698     1.0  0.48446  0.85851  0.48850  1.0000
  S   S221      1.0  0.26653  0.85754  0.38702  1.0000
  H   H1374     1.0  0.35526  0.94511  0.42675  1.0000
  H   H1375     1.0  0.33217  0.50584  0.45715  1.0000
  S   S222      1.0  0.29276  0.81781  0.33725  1.0000
  C   C1699     1.0  0.42227  0.74794  0.33801  1.0000
  H   H1376     1.0  0.35006  0.93356  0.34180  1.0000
  H   H1377     1.0  0.28231  0.74404  0.53170  1.0000
  C   C1700     1.0  0.49991  0.71141  0.53753  1.0000
  H   H1378     1.0  0.28124  0.89508  0.35489  1.0000
  H   H1379     1.0  0.28342  0.75044  0.49318  1.0000
  H   H1380     1.0  0.43975  0.81873  0.35354  1.0000
  H   H1381     1.0  0.48211  0.72642  0.44792  1.0000
  C   C1701     1.0  0.28270  0.73759  0.45080  1.0000
  H   H1382     1.0  0.49115  0.86071  0.61286  1.0000
  H   H1383     1.0  0.49362  0.64968  0.53197  1.0000
  H   H1384     1.0  0.26693  0.94789  0.41981  1.0000
  C   C1702     1.0  0.48295  0.81982  0.60751  1.0000
  H   H1385     1.0  0.31676  0.96925  0.40526  1.0000
  C   C1703     1.0  0.31947  0.62156  0.33786  1.0000
  C   C1704     1.0  0.49069  0.84437  0.60158  1.0000
  C   C1705     1.0  0.46630  0.84993  0.49118  1.0000
  C   C1706     1.0  0.26767  0.90824  0.40528  1.0000
  H   H1386     1.0  0.42174  0.97204  0.35329  1.0000
  C   C1707     1.0  0.41178  0.77147  0.33327  1.0000
  C   C1708     1.0  0.39337  0.96852  0.39686  1.0000
  C   C1709     1.0  0.50006  0.71073  0.51539  1.0000
  C   C1710     1.0  0.42387  0.95989  0.45205  1.0000
  C   C1711     1.0  0.27165  0.73565  0.52216  1.0000
  C   C1712     1.0  0.27222  0.73923  0.50032  1.0000
  H   H1387     1.0  0.31299  0.48183  0.43177  1.0000
  S   S223      1.0  0.50816  0.67909  0.61561  1.0000
  C   C1713     1.0  0.25867  0.47479  0.48250  1.0000
  Fe  Fe113     1.0  0.45186  0.53247  0.95338  1.0000
  S   S224      1.0  0.47295  0.54572  0.92903  1.0000
  H   H1388     1.0  0.31412  0.50265  0.88185  1.0000
  Fe  Fe114     1.0  0.41913  0.54989  0.92465  1.0000
  S   S225      1.0  0.43803  0.56349  0.89856  1.0000
  S   S226      1.0  0.38780  0.55578  0.92336  1.0000
  Fe  Fe115     1.0  0.45461  0.52519  0.90586  1.0000
  H   H1389     1.0  0.43648  0.89123  0.97276  1.0000
  Fe  Fe116     1.0  0.45422  0.58281  0.92394  1.0000
  S   S227      1.0  0.46102  0.62777  0.92617  1.0000
  S   S228      1.0  0.43448  0.51045  0.93039  1.0000
  S   S229      1.0  0.43440  0.57068  0.94999  1.0000
  Fe  Fe117     1.0  0.45695  0.76820  0.85784  1.0000
  S   S230      1.0  0.43992  0.78179  0.83034  1.0000
  S   S231      1.0  0.46346  0.72253  0.85708  1.0000
  Fe  Fe118     1.0  0.45925  0.82692  0.87267  1.0000
  S   S232      1.0  0.44279  0.84395  0.84596  1.0000
  S   S233      1.0  0.46510  0.85386  0.90030  1.0000
  Fe  Fe119     1.0  0.42429  0.80906  0.85290  1.0000
  S   S234      1.0  0.39309  0.81539  0.85148  1.0000
  Fe  Fe120     1.0  0.46008  0.81538  0.82561  1.0000
  S   S235      1.0  0.46823  0.82109  0.79082  1.0000
  S   S236      1.0  0.43974  0.79335  0.88073  1.0000
  S   S237      1.0  0.47815  0.80048  0.85200  1.0000
  Fe  Fe121     1.0  0.27193  0.81113  0.94904  1.0000
  H   H1390     1.0  0.47999  0.94556  0.95721  1.0000
  Fe  Fe122     1.0  0.31379  0.54348  0.83743  1.0000
  S   S238      1.0  0.29629  0.55377  0.86592  1.0000
  S   S239      1.0  0.34531  0.54359  0.83757  1.0000
  Fe  Fe123     1.0  0.27945  0.53482  0.80979  1.0000
  Fe  Fe124     1.0  0.27873  0.57925  0.84439  1.0000
  Fe  Fe125     1.0  0.27959  0.51815  0.85600  1.0000
  H   H1391     1.0  0.29361  0.81847  0.98310  1.0000
  S   S240      1.0  0.29724  0.57062  0.81618  1.0000
  S   S241      1.0  0.29808  0.50668  0.82842  1.0000
  Fe  Fe126     1.0  0.31104  0.80691  0.92869  1.0000
  S   S242      1.0  0.30069  0.79454  0.89740  1.0000
  S   S243      1.0  0.34187  0.80879  0.93372  1.0000
  H   H1392     1.0  0.47541  0.64884  0.99436  1.0000
  Fe  Fe127     1.0  0.28200  0.76654  0.91550  1.0000
  Fe  Fe128     1.0  0.27898  0.82745  0.90358  1.0000
  S   S244      1.0  0.46430  0.49744  0.87903  1.0000
  S   S245      1.0  0.29363  0.77756  0.94680  1.0000
  S   S246      1.0  0.29065  0.84161  0.93383  1.0000
  C   C1714     1.0  0.31183  0.85226  0.98354  1.0000
  H   H1393     1.0  0.27046  0.56467  0.68883  1.0000
  H   H1394     1.0  0.41411  0.70240  0.75261  1.0000
  H   H1395     1.0  0.40018  0.91013  0.96282  1.0000
  C   C1715     1.0  0.44809  0.61639  0.82955  1.0000
  H   H1396     1.0  0.40669  0.76241  0.86620  1.0000
  H   H1397     1.0  0.49759  0.75637  0.69664  1.0000
  H   H1398     1.0  0.33425  0.86571  0.94546  1.0000
  C   C1716     1.0  0.40873  0.74072  0.86743  1.0000
  H   H1399     1.0  0.27590  0.80302  0.73089  1.0000
  C   C1717     1.0  0.46147  0.93331  0.75412  1.0000
  C   C1718     1.0  0.37073  0.95308  0.92702  1.0000
  H   H1400     1.0  0.46044  0.62746  0.87991  1.0000
  C   C1719     1.0  0.37910  0.81322  0.87451  1.0000
  C   C1720     1.0  0.36035  0.82135  0.87372  1.0000
  C   C1721     1.0  0.34875  0.81973  0.89172  1.0000
  C   C1722     1.0  0.35576  0.80946  0.91054  1.0000
  C   C1723     1.0  0.37441  0.80081  0.91120  1.0000
  C   C1724     1.0  0.38612  0.80306  0.89335  1.0000
  H   H1401     1.0  0.35481  0.82917  0.85918  1.0000
  H   H1402     1.0  0.33447  0.82678  0.89109  1.0000
  H   H1403     1.0  0.37990  0.79277  0.92569  1.0000
  H   H1404     1.0  0.40053  0.79685  0.89422  1.0000
  C   C1725     1.0  0.48195  0.84597  0.77809  1.0000
  C   C1726     1.0  0.48179  0.84811  0.75602  1.0000
  C   C1727     1.0  0.49296  0.86685  0.74518  1.0000
  H   H1405     1.0  0.26556  0.83881  0.70595  1.0000
  C   C1728     1.0  0.48877  0.90357  0.96118  1.0000
  C   C1729     1.0  0.49325  0.86306  0.78924  1.0000
  H   H1406     1.0  0.47305  0.83512  0.74721  1.0000
  C   C1730     1.0  0.26825  0.92693  0.80429  1.0000
  H   H1407     1.0  0.49361  0.86154  0.80618  1.0000
  C   C1731     1.0  0.37646  0.55463  0.89904  1.0000
  C   C1732     1.0  0.38620  0.55001  0.88006  1.0000
  C   C1733     1.0  0.37654  0.54716  0.86126  1.0000
  C   C1734     1.0  0.35709  0.54892  0.86126  1.0000
  C   C1735     1.0  0.34745  0.55454  0.88010  1.0000
  C   C1736     1.0  0.35708  0.55740  0.89889  1.0000
  H   H1408     1.0  0.40115  0.54793  0.87994  1.0000
  H   H1409     1.0  0.38415  0.54302  0.84673  1.0000
  H   H1410     1.0  0.33258  0.55676  0.88022  1.0000
  H   H1411     1.0  0.34948  0.56147  0.91342  1.0000
  C   C1737     1.0  0.46867  0.88862  0.89584  1.0000
  C   C1738     1.0  0.47958  0.89734  0.87884  1.0000
  C   C1739     1.0  0.48402  0.92476  0.87700  1.0000
  C   C1740     1.0  0.47679  0.94390  0.89140  1.0000
  C   C1741     1.0  0.46553  0.93526  0.90816  1.0000
  C   C1742     1.0  0.46182  0.90761  0.91059  1.0000
  H   H1412     1.0  0.48526  0.88280  0.86763  1.0000
  H   H1413     1.0  0.49317  0.93119  0.86442  1.0000
  H   H1414     1.0  0.45993  0.94979  0.91939  1.0000
  H   H1415     1.0  0.45358  0.90087  0.92387  1.0000
  C   C1743     1.0  0.46046  0.65384  0.90667  1.0000
  C   C1744     1.0  0.46079  0.68106  0.91308  1.0000
  C   C1745     1.0  0.46125  0.70240  0.89822  1.0000
  C   C1746     1.0  0.46177  0.69674  0.87669  1.0000
  C   C1747     1.0  0.46149  0.66953  0.87031  1.0000
  C   C1748     1.0  0.46054  0.64823  0.88514  1.0000
  H   H1416     1.0  0.46086  0.68568  0.92967  1.0000
  H   H1417     1.0  0.46161  0.72316  0.90342  1.0000
  H   H1418     1.0  0.46219  0.66491  0.85375  1.0000
  C   C1749     1.0  0.32192  0.61979  0.86384  1.0000
  C   C1750     1.0  0.33578  0.61015  0.85000  1.0000
  C   C1751     1.0  0.35423  0.61658  0.85310  1.0000
  C   C1752     1.0  0.35876  0.63356  0.86961  1.0000
  C   C1753     1.0  0.34495  0.64278  0.88390  1.0000
  C   C1754     1.0  0.32648  0.63598  0.88076  1.0000
  P   P57       1.0  0.35022  0.66637  0.90425  1.0000
  C   C1755     1.0  0.33387  0.66198  0.92580  1.0000
  C   C1756     1.0  0.37282  0.65996  0.91525  1.0000
  C   C1757     1.0  0.38118  0.68012  0.92695  1.0000
  C   C1758     1.0  0.39856  0.67522  0.93575  1.0000
  C   C1759     1.0  0.40765  0.65011  0.93307  1.0000
  C   C1760     1.0  0.39909  0.62961  0.92220  1.0000
  C   C1761     1.0  0.38161  0.63430  0.91366  1.0000
  C   C1762     1.0  0.32380  0.68409  0.93450  1.0000
  C   C1763     1.0  0.31050  0.68000  0.95043  1.0000
  H   H1419     1.0  0.44241  0.79029  0.69888  1.0000
  C   C1764     1.0  0.31781  0.63194  0.95000  1.0000
  C   C1765     1.0  0.33098  0.63592  0.93388  1.0000
  C   C1766     1.0  0.34713  0.69927  0.89216  1.0000
  C   C1767     1.0  0.32927  0.70817  0.88654  1.0000
  C   C1768     1.0  0.32641  0.73365  0.87743  1.0000
  C   C1769     1.0  0.34144  0.75028  0.87344  1.0000
  C   C1770     1.0  0.35934  0.74121  0.87826  1.0000
  C   C1771     1.0  0.36225  0.71567  0.88740  1.0000
  H   H1420     1.0  0.30763  0.61478  0.86138  1.0000
  H   H1421     1.0  0.33219  0.59764  0.83687  1.0000
  H   H1422     1.0  0.36492  0.60851  0.84250  1.0000
  H   H1423     1.0  0.37294  0.63956  0.87120  1.0000
  H   H1424     1.0  0.31553  0.64357  0.89117  1.0000
  H   H1425     1.0  0.37423  0.69960  0.92934  1.0000
  C   C1772     1.0  0.27434  0.60639  0.69692  1.0000
  H   H1426     1.0  0.25870  0.59571  0.80055  1.0000
  H   H1427     1.0  0.40593  0.60990  0.92064  1.0000
  H   H1428     1.0  0.37500  0.61765  0.90611  1.0000
  H   H1429     1.0  0.32588  0.70452  0.92892  1.0000
  C   C1773     1.0  0.38844  0.49681  0.96152  1.0000
  H   H1430     1.0  0.46965  0.77168  0.67854  1.0000
  C   C1774     1.0  0.34318  0.84222  0.99454  1.0000
  H   H1431     1.0  0.33878  0.61866  0.92753  1.0000
  H   H1432     1.0  0.31742  0.69566  0.88964  1.0000
  H   H1433     1.0  0.31245  0.74059  0.87387  1.0000
  H   H1434     1.0  0.33921  0.77027  0.86675  1.0000
  H   H1435     1.0  0.37092  0.75418  0.87507  1.0000
  H   H1436     1.0  0.37623  0.70887  0.89064  1.0000
  H   H1437     1.0  0.39536  0.51309  0.95332  1.0000
  H   H1438     1.0  0.26220  0.52660  0.73165  1.0000
  H   H1439     1.0  0.50813  0.48282  0.90383  1.0000
  C   C1775     1.0  0.27376  0.65066  0.86495  1.0000
  C   C1776     1.0  0.37984  0.47794  0.89995  1.0000
  H   H1440     1.0  0.50070  0.95396  0.83097  1.0000
  C   C1777     1.0  0.49867  0.47634  0.93579  1.0000
  H   H1441     1.0  0.26184  0.92575  0.81977  1.0000
  C   C1778     1.0  0.27983  0.66679  0.90023  1.0000
  H   H1442     1.0  0.32626  0.92631  0.84922  1.0000
  C   C1779     1.0  0.28505  0.93139  0.76445  1.0000
  C   C1780     1.0  0.32943  0.90613  0.95803  1.0000
  H   H1443     1.0  0.42723  0.91008  0.71215  1.0000
  H   H1444     1.0  0.41593  0.74154  0.90006  1.0000
  H   H1445     1.0  0.29772  0.96696  0.77657  1.0000
  H   H1446     1.0  0.49912  0.70946  0.71457  1.0000
  P   P58       1.0  0.43508  0.93153  0.78722  1.0000
  H   H1447     1.0  0.38858  0.63642  0.80251  1.0000
  H   H1448     1.0  0.40507  0.69093  0.94454  1.0000
  H   H1449     1.0  0.49686  0.86735  0.92803  1.0000
  C   C1781     1.0  0.46047  0.96533  0.80515  1.0000
  H   H1450     1.0  0.35850  0.94724  0.91887  1.0000
  C   C1782     1.0  0.35940  0.64531  0.80618  1.0000
  C   C1783     1.0  0.28877  0.95014  0.78003  1.0000
  S   S247      1.0  0.28107  0.72011  0.91253  1.0000
  H   H1451     1.0  0.28663  0.80219  0.84391  1.0000
  C   C1784     1.0  0.32578  0.89354  0.92145  1.0000
  H   H1452     1.0  0.27470  0.64743  0.70800  1.0000
  C   C1785     1.0  0.27435  0.69940  0.87256  1.0000
  H   H1453     1.0  0.46263  0.61408  0.82511  1.0000
  P   P59       1.0  0.50756  0.75558  0.74147  1.0000
  C   C1786     1.0  0.27823  0.92849  0.96972  1.0000
  H   H1454     1.0  0.40040  0.50806  0.90394  1.0000
  C   C1787     1.0  0.43271  0.96618  0.87067  1.0000
  C   C1788     1.0  0.42582  0.89914  0.79483  1.0000
  C   C1789     1.0  0.45499  0.93849  0.80270  1.0000
  C   C1790     1.0  0.46619  0.91727  0.81051  1.0000
  C   C1791     1.0  0.48258  0.92288  0.82075  1.0000
  C   C1792     1.0  0.47685  0.97084  0.81542  1.0000
  C   C1793     1.0  0.27644  0.94959  0.88993  1.0000
  S   S248      1.0  0.45579  0.51127  0.98534  1.0000
  C   C1794     1.0  0.41172  0.89726  0.81038  1.0000
  C   C1795     1.0  0.40425  0.87219  0.81550  1.0000
  C   C1796     1.0  0.41067  0.84887  0.80509  1.0000
  C   C1797     1.0  0.42477  0.85049  0.78981  1.0000
  P   P60       1.0  0.33482  0.89655  0.98478  1.0000
  H   H1455     1.0  0.33115  0.65800  0.81340  1.0000
  C   C1798     1.0  0.26066  0.49832  0.93694  1.0000
  H   H1456     1.0  0.46255  0.89637  0.80837  1.0000
  H   H1457     1.0  0.49124  0.90644  0.82668  1.0000
  C   C1799     1.0  0.45464  0.78315  0.70700  1.0000
  H   H1458     1.0  0.44363  0.79351  0.73780  1.0000
  C   C1800     1.0  0.26003  0.81783  0.83416  1.0000
  H   H1459     1.0  0.40639  0.91487  0.81866  1.0000
  H   H1460     1.0  0.39357  0.87068  0.82768  1.0000
  H   H1461     1.0  0.40497  0.82942  0.80916  1.0000
  H   H1462     1.0  0.43000  0.83227  0.78209  1.0000
  H   H1463     1.0  0.49587  0.51874  0.97801  1.0000
  C   C1801     1.0  0.39052  0.90826  0.97601  1.0000
  H   H1464     1.0  0.28688  0.60809  0.68736  1.0000
  C   C1802     1.0  0.34652  0.90024  0.86420  1.0000
  C   C1803     1.0  0.36271  0.89897  0.87589  1.0000
  C   C1804     1.0  0.37105  0.92288  0.88211  1.0000
  C   C1805     1.0  0.28008  0.85387  0.80905  1.0000
  P   P61       1.0  0.39148  0.92195  0.89792  1.0000
  C   C1806     1.0  0.39563  0.88970  0.91062  1.0000
  C   C1807     1.0  0.41072  0.93218  0.88143  1.0000
  C   C1808     1.0  0.42006  0.91333  0.86828  1.0000
  C   C1809     1.0  0.43611  0.92060  0.85719  1.0000
  C   C1810     1.0  0.44258  0.94689  0.85867  1.0000
  C   C1811     1.0  0.43673  0.91676  0.72387  1.0000
  H   H1465     1.0  0.26437  0.70777  0.72079  1.0000
  C   C1812     1.0  0.41371  0.87890  0.91259  1.0000
  C   C1813     1.0  0.41698  0.85575  0.92480  1.0000
  C   C1814     1.0  0.40232  0.84369  0.93566  1.0000
  C   C1815     1.0  0.38435  0.85464  0.93416  1.0000
  C   C1816     1.0  0.38097  0.87728  0.92145  1.0000
  C   C1817     1.0  0.38847  0.94429  0.92006  1.0000
  H   H1466     1.0  0.30184  0.48913  0.76652  1.0000
  C   C1818     1.0  0.43248  0.87541  0.78485  1.0000
  H   H1467     1.0  0.41709  0.66315  0.87176  1.0000
  C   C1819     1.0  0.40402  0.95154  0.93138  1.0000
  H   H1468     1.0  0.34002  0.69493  0.83706  1.0000
  C   C1820     1.0  0.47571  0.60699  0.98533  1.0000
  H   H1469     1.0  0.33994  0.88173  0.85974  1.0000
  H   H1470     1.0  0.36863  0.87933  0.88001  1.0000
  C   C1821     1.0  0.48795  0.94962  0.82311  1.0000
  H   H1471     1.0  0.41538  0.89273  0.86725  1.0000
  H   H1472     1.0  0.44387  0.90565  0.84796  1.0000
  H   H1473     1.0  0.26764  0.87056  0.98284  1.0000
  C   C1822     1.0  0.27745  0.91119  0.86606  1.0000
  H   H1474     1.0  0.35548  0.62888  0.79613  1.0000
  H   H1475     1.0  0.42543  0.88831  0.90498  1.0000
  H   H1476     1.0  0.43093  0.84718  0.92577  1.0000
  H   H1477     1.0  0.40482  0.82561  0.94497  1.0000
  H   H1478     1.0  0.37293  0.84515  0.94246  1.0000
  H   H1479     1.0  0.36695  0.88541  0.92040  1.0000
  C   C1823     1.0  0.28941  0.83451  0.82128  1.0000
  H   H1480     1.0  0.41783  0.94471  0.92639  1.0000
  C   C1824     1.0  0.26498  0.79902  0.72003  1.0000
  H   H1481     1.0  0.27299  0.72013  0.86723  1.0000
  H   H1482     1.0  0.44375  0.87596  0.77331  1.0000
  S   S249      1.0  0.25900  0.79836  0.91878  1.0000
  H   H1483     1.0  0.36697  0.49259  0.85461  1.0000
  S   S250      1.0  0.27375  0.48768  0.88226  1.0000
  C   C1825     1.0  0.45705  0.92092  0.96559  1.0000
  H   H1484     1.0  0.46011  0.91807  0.70213  1.0000
  H   H1485     1.0  0.40283  0.73426  0.83506  1.0000
  C   C1826     1.0  0.30282  0.47787  0.97427  1.0000
  C   C1827     1.0  0.26414  0.90827  0.78861  1.0000
  C   C1828     1.0  0.27519  0.89316  0.88299  1.0000
  H   H1486     1.0  0.44074  0.73203  0.75843  1.0000
  C   C1829     1.0  0.47761  0.58019  0.99215  1.0000
  C   C1830     1.0  0.36938  0.68704  0.83279  1.0000
  P   P62       1.0  0.40758  0.67606  0.82773  1.0000
  H   H1487     1.0  0.29415  0.95782  0.98584  1.0000
  H   H1488     1.0  0.27990  0.95285  0.85631  1.0000
  C   C1831     1.0  0.41438  0.68469  0.87029  1.0000
  H   H1489     1.0  0.47699  0.56386  0.98092  1.0000
  H   H1490     1.0  0.49607  0.77814  0.78256  1.0000
  C   C1832     1.0  0.27831  0.93925  0.86951  1.0000
  C   C1833     1.0  0.35067  0.68250  0.82924  1.0000
  H   H1491     1.0  0.31553  0.61177  0.95604  1.0000
  H   H1492     1.0  0.29136  0.93344  0.74893  1.0000
  S   S251      1.0  0.27256  0.85829  0.87793  1.0000
  H   H1493     1.0  0.45541  0.95229  0.85082  1.0000
  C   C1834     1.0  0.32865  0.50119  0.93228  1.0000
  H   H1494     1.0  0.31772  0.78519  0.99417  1.0000
  H   H1495     1.0  0.32612  0.87815  0.90934  1.0000
  C   C1835     1.0  0.44128  0.72407  0.79169  1.0000
  H   H1496     1.0  0.42126  0.64636  0.93959  1.0000
  C   C1836     1.0  0.45529  0.78483  0.72889  1.0000
  C   C1837     1.0  0.46388  0.87311  0.97023  1.0000
  C   C1838     1.0  0.43058  0.92045  0.74471  1.0000
  C   C1839     1.0  0.26508  0.58193  0.69772  1.0000
  H   H1497     1.0  0.44716  0.93779  0.96513  1.0000
  H   H1498     1.0  0.33114  0.51496  0.94503  1.0000
  C   C1840     1.0  0.50090  0.71178  0.76848  1.0000
  C   C1841     1.0  0.40657  0.72463  0.84975  1.0000
  C   C1842     1.0  0.41381  0.72894  0.88650  1.0000
  C   C1843     1.0  0.43322  0.71021  0.80862  1.0000
  H   H1499     1.0  0.25933  0.90329  0.95415  1.0000
  C   C1844     1.0  0.37813  0.64958  0.80991  1.0000
  C   C1845     1.0  0.44284  0.92901  0.75999  1.0000
  C   C1846     1.0  0.46993  0.77267  0.69556  1.0000
  C   C1847     1.0  0.42051  0.59845  0.84611  1.0000
  C   C1848     1.0  0.26872  0.52355  0.93458  1.0000
  H   H1500     1.0  0.49908  0.49751  0.93994  1.0000
  H   H1501     1.0  0.30232  0.69709  0.95648  1.0000
  C   C1849     1.0  0.34751  0.94916  0.86366  1.0000
  C   C1850     1.0  0.25922  0.81918  0.70596  1.0000
  C   C1851     1.0  0.29018  0.49076  0.98813  1.0000
  H   H1502     1.0  0.49275  0.86813  0.72822  1.0000
  C   C1852     1.0  0.49097  0.74439  0.80294  1.0000
  H   H1503     1.0  0.44672  0.57667  0.84358  1.0000
  C   C1853     1.0  0.41972  0.64402  0.83151  1.0000
  C   C1854     1.0  0.50465  0.88347  0.75630  1.0000
  H   H1504     1.0  0.30442  0.83371  0.82133  1.0000
  C   C1855     1.0  0.49072  0.71627  0.80491  1.0000
  C   C1856     1.0  0.40808  0.97036  0.77508  1.0000
  H   H1505     1.0  0.28985  0.91469  0.96677  1.0000
  H   H1506     1.0  0.39658  0.62492  0.84720  1.0000
  H   H1507     1.0  0.41127  0.96489  0.75896  1.0000
  C   C1857     1.0  0.41084  0.62269  0.84192  1.0000
  C   C1858     1.0  0.32052  0.92016  0.91652  1.0000
  C   C1859     1.0  0.33884  0.92532  0.85821  1.0000
  C   C1860     1.0  0.43440  0.72130  0.77152  1.0000
  H   H1508     1.0  0.27946  0.52633  0.92261  1.0000
  H   H1509     1.0  0.33329  0.48670  0.85113  1.0000
  C   C1861     1.0  0.27814  0.69400  0.89367  1.0000
  C   C1862     1.0  0.27300  0.91028  0.76878  1.0000
  H   H1510     1.0  0.42075  0.95775  0.82546  1.0000
  H   H1511     1.0  0.32025  0.53334  0.91132  1.0000
  H   H1512     1.0  0.26129  0.75870  0.73126  1.0000
  C   C1863     1.0  0.30747  0.65396  0.95816  1.0000
  C   C1864     1.0  0.27204  0.67788  0.85838  1.0000
  C   C1865     1.0  0.36363  0.94795  0.87544  1.0000
  H   H1513     1.0  0.45284  0.73710  0.79429  1.0000
  C   C1866     1.0  0.26061  0.85563  0.80958  1.0000
  H   H1514     1.0  0.43895  0.71238  0.82408  1.0000
  H   H1515     1.0  0.27850  0.90338  0.85022  1.0000
  C   C1867     1.0  0.33027  0.88654  0.94207  1.0000
  C   C1868     1.0  0.28058  0.94767  0.80001  1.0000
  C   C1869     1.0  0.47580  0.92528  0.96107  1.0000
  C   C1870     1.0  0.41672  0.95897  0.88188  1.0000
  C   C1871     1.0  0.50446  0.88176  0.77840  1.0000
  H   H1516     1.0  0.48658  0.70717  0.81979  1.0000
  H   H1517     1.0  0.27307  0.93930  0.92263  1.0000
  C   C1872     1.0  0.38329  0.67059  0.82316  1.0000
  C   C1873     1.0  0.32104  0.80636  0.99262  1.0000
  C   C1874     1.0  0.50143  0.74006  0.76643  1.0000
  C   C1875     1.0  0.46758  0.92941  0.73333  1.0000
  C   C1876     1.0  0.36199  0.47766  0.84386  1.0000
  H   H1518     1.0  0.41634  0.91616  0.74900  1.0000
  H   H1519     1.0  0.42111  0.69182  0.90247  1.0000
  C   C1877     1.0  0.43915  0.59532  0.84000  1.0000
  C   C1878     1.0  0.35908  0.90193  0.98925  1.0000
  H   H1520     1.0  0.30127  0.86629  0.97793  1.0000
  H   H1521     1.0  0.39955  0.67827  0.78232  1.0000
  C   C1879     1.0  0.37168  0.90495  0.97236  1.0000
  C   C1880     1.0  0.27769  0.64529  0.88601  1.0000
  C   C1881     1.0  0.41939  0.70466  0.76828  1.0000
  H   H1522     1.0  0.27106  0.68196  0.75325  1.0000
  C   C1882     1.0  0.32253  0.51175  0.91319  1.0000
  H   H1523     1.0  0.32398  0.94861  0.96463  1.0000
  C   C1883     1.0  0.41785  0.69392  0.80563  1.0000
  H   H1524     1.0  0.28813  0.86769  0.79954  1.0000
  H   H1525     1.0  0.37280  0.70329  0.84316  1.0000
  C   C1884     1.0  0.41343  0.96657  0.81240  1.0000
  H   H1526     1.0  0.37019  0.96664  0.87952  1.0000
  C   C1885     1.0  0.43844  0.64067  0.82530  1.0000
  H   H1527     1.0  0.31671  0.92545  0.90060  1.0000
  C   C1886     1.0  0.34567  0.66173  0.81588  1.0000
  H   H1528     1.0  0.36702  0.90474  0.95637  1.0000
  C   C1887     1.0  0.48656  0.76518  0.72799  1.0000
  C   C1888     1.0  0.48270  0.87753  0.96619  1.0000
  H   H1529     1.0  0.28330  0.96251  0.81192  1.0000
  C   C1889     1.0  0.49562  0.69998  0.78768  1.0000
  H   H1530     1.0  0.44577  0.65696  0.81770  1.0000
  C   C1890     1.0  0.41114  0.69098  0.78524  1.0000
  C   C1891     1.0  0.41655  0.70093  0.88792  1.0000
  C   C1892     1.0  0.40956  0.69649  0.85098  1.0000
  C   C1893     1.0  0.47118  0.77596  0.73935  1.0000
  H   H1531     1.0  0.41365  0.58220  0.85439  1.0000
  C   C1894     1.0  0.27397  0.90344  0.90343  1.0000
  H   H1532     1.0  0.48688  0.75701  0.81624  1.0000
  C   C1895     1.0  0.31989  0.93988  0.93219  1.0000
  C   C1896     1.0  0.48584  0.76383  0.70597  1.0000
  H   H1533     1.0  0.36835  0.49132  0.90464  1.0000
  H   H1534     1.0  0.34179  0.96865  0.85873  1.0000
  C   C1897     1.0  0.49620  0.75626  0.78379  1.0000
  H   H1535     1.0  0.47151  0.77827  0.75623  1.0000
  H   H1536     1.0  0.26888  0.68235  0.84218  1.0000
  C   C1898     1.0  0.45106  0.89479  0.96993  1.0000
  C   C1899     1.0  0.32454  0.93300  0.95282  1.0000
  H   H1537     1.0  0.28277  0.66231  0.91649  1.0000
  H   H1538     1.0  0.27199  0.88986  0.91659  1.0000
  H   H1539     1.0  0.49531  0.67817  0.78922  1.0000
  H   H1540     1.0  0.29707  0.65090  0.97042  1.0000
  S   S252      1.0  0.27004  0.62438  0.84642  1.0000
  S   S253      1.0  0.27081  0.53108  0.77531  1.0000
  H   H1541     1.0  0.48206  0.93230  0.72905  1.0000
  C   C1900     1.0  0.36867  0.96986  0.94457  1.0000
  C   C1901     1.0  0.26747  0.62852  0.70855  1.0000
  C   C1902     1.0  0.39783  0.48756  0.89943  1.0000
  C   C1903     1.0  0.32958  0.86120  0.98815  1.0000
  C   C1904     1.0  0.41773  0.95822  0.79174  1.0000
  H   H1542     1.0  0.50455  0.69875  0.75536  1.0000
  H   H1543     1.0  0.49249  0.86053  0.96653  1.0000
  H   H1544     1.0  0.27058  0.89576  0.75656  1.0000
  C   C1905     1.0  0.27438  0.93151  0.90683  1.0000
  H   H1545     1.0  0.47365  0.61141  0.96880  1.0000
  H   H1546     1.0  0.47156  0.93905  0.76547  1.0000
  C   C1906     1.0  0.28061  0.95264  0.98051  1.0000
  C   C1907     1.0  0.30748  0.82509  0.98621  1.0000
  C   C1908     1.0  0.45523  0.92122  0.71819  1.0000
  H   H1547     1.0  0.27888  0.62456  0.89143  1.0000
  H   H1548     1.0  0.36420  0.50085  0.94317  1.0000
  H   H1549     1.0  0.45926  0.85279  0.97339  1.0000
  C   C1909     1.0  0.27940  0.81661  0.83391  1.0000
  H   H1550     1.0  0.31558  0.96045  0.92827  1.0000
  H   H1551     1.0  0.27571  0.49275  0.98414  1.0000
  C   C1910     1.0  0.39728  0.48331  0.97797  1.0000
  C   C1911     1.0  0.40191  0.96821  0.94895  1.0000
  H   H1552     1.0  0.50592  0.94862  0.92250  1.0000
  C   C1912     1.0  0.34297  0.47420  0.84197  1.0000
  H   H1553     1.0  0.41109  0.48907  0.98237  1.0000
  C   C1913     1.0  0.37062  0.48969  0.95581  1.0000
  C   C1914     1.0  0.25878  0.50595  0.76133  1.0000
  C   C1915     1.0  0.49384  0.50909  0.99313  1.0000
  H   H1554     1.0  0.50680  0.84846  0.89408  1.0000
  C   C1916     1.0  0.31908  0.49447  0.89657  1.0000
  H   H1555     1.0  0.26555  0.48186  0.92703  1.0000
  H   H1556     1.0  0.26884  0.56476  0.94532  1.0000
  C   C1917     1.0  0.32170  0.47577  0.97911  1.0000
  C   C1918     1.0  0.26270  0.54512  0.94731  1.0000
  C   C1919     1.0  0.26075  0.92198  0.96266  1.0000
  S   S254      1.0  0.25990  0.54468  0.83706  1.0000
  C   C1920     1.0  0.26546  0.97015  0.98450  1.0000
  H   H1557     1.0  0.42653  0.47851  0.89247  1.0000
  C   C1921     1.0  0.33121  0.47312  0.93500  1.0000
  C   C1922     1.0  0.33891  0.81488  0.99667  1.0000
  C   C1923     1.0  0.39688  0.90898  0.99658  1.0000
  S   S255      1.0  0.51007  0.45653  0.09956  1.0000
  C   C1924     1.0  0.65257  0.10467  0.03402  1.0000
  H   H1558     1.0  0.56321  0.21627  0.26815  1.0000
  Fe  Fe129     1.0  0.52434  0.41567  0.10481  1.0000
  S   S256      1.0  0.54324  0.41978  0.07637  1.0000
  C   C1925     1.0  0.69778  0.08389  0.03932  1.0000
  Fe  Fe130     1.0  0.56282  0.43822  0.09897  1.0000
  S   S257      1.0  0.59330  0.42593  0.09817  1.0000
  C   C1926     1.0  0.58612  0.00884  0.06457  1.0000
  S   S258      1.0  0.54468  0.43160  0.12738  1.0000
  Fe  Fe131     1.0  0.53762  0.19392  0.17271  1.0000
  S   S259      1.0  0.55085  0.18109  0.20307  1.0000
  Fe  Fe132     1.0  0.52751  0.13463  0.16384  1.0000
  S   S260      1.0  0.54073  0.11840  0.19297  1.0000
  C   C1927     1.0  0.52106  0.02715  0.12516  1.0000
  Fe  Fe133     1.0  0.52643  0.15419  0.20864  1.0000
  Fe  Fe134     1.0  0.56376  0.14682  0.18447  1.0000
  S   S261      1.0  0.59457  0.13612  0.18631  1.0000
  S   S262      1.0  0.55142  0.16016  0.15413  1.0000
  Fe  Fe135     1.0  0.67596  0.17130  0.10745  1.0000
  S   S263      1.0  0.69322  0.18361  0.13434  1.0000
  S   S264      1.0  0.64470  0.17552  0.10898  1.0000
  Fe  Fe136     1.0  0.71008  0.15849  0.07827  1.0000
  S   S265      1.0  0.72979  0.17020  0.10347  1.0000
  S   S266      1.0  0.71690  0.14942  0.04352  1.0000
  Fe  Fe137     1.0  0.71056  0.14680  0.12494  1.0000
  S   S267      1.0  0.71775  0.11737  0.15090  1.0000
  Fe  Fe138     1.0  0.71042  0.20616  0.11048  1.0000
  S   S268      1.0  0.71916  0.25070  0.11083  1.0000
  S   S269      1.0  0.69202  0.13309  0.09949  1.0000
  S   S270      1.0  0.69199  0.19572  0.08382  1.0000
  Fe  Fe139     1.0  0.70658  0.44528  0.20415  1.0000
  S   S271      1.0  0.72568  0.42807  0.17861  1.0000
  S   S272      1.0  0.51592  0.10686  0.13954  1.0000
  Fe  Fe140     1.0  0.67154  0.43250  0.17868  1.0000
  S   S273      1.0  0.68805  0.41504  0.15153  1.0000
  S   S274      1.0  0.64011  0.43661  0.18071  1.0000
  Fe  Fe141     1.0  0.70541  0.39385  0.17584  1.0000
  S   S275      1.0  0.71075  0.34777  0.17763  1.0000
  Fe  Fe142     1.0  0.70657  0.45043  0.15627  1.0000
  C   C1928     1.0  0.69723  0.07204  0.05926  1.0000
  S   S276      1.0  0.68768  0.40973  0.20308  1.0000
  H   H1559     1.0  0.70984  0.43255  0.29420  1.0000
  H   H1560     1.0  0.64255  0.44156  0.07229  1.0000
  H   H1561     1.0  0.72514  0.03761  0.01348  1.0000
  H   H1562     1.0  0.61367  0.00622  0.17464  1.0000
  H   H1563     1.0  0.53229  0.40813  0.20538  1.0000
  C   C1929     1.0  0.73718  0.97756  0.29012  1.0000
  H   H1564     1.0  0.70072  0.44718  0.01877  1.0000
  H   H1565     1.0  0.60977  0.14377  0.25406  1.0000
  C   C1930     1.0  0.57534  0.98866  0.21184  1.0000
  Fe  Fe143     1.0  0.53233  0.47257  0.11985  1.0000
  H   H1566     1.0  0.52606  0.08538  0.30068  1.0000
  C   C1931     1.0  0.64482  0.00369  0.23891  1.0000
  C   C1932     1.0  0.71624  0.08248  0.14603  1.0000
  C   C1933     1.0  0.70910  0.06563  0.16185  1.0000
  C   C1934     1.0  0.70909  0.03746  0.15917  1.0000
  C   C1935     1.0  0.71743  0.02583  0.14125  1.0000
  C   C1936     1.0  0.72424  0.04269  0.12521  1.0000
  C   C1937     1.0  0.72339  0.07099  0.12741  1.0000
  H   H1567     1.0  0.70359  0.07445  0.17621  1.0000
  H   H1568     1.0  0.70307  0.02473  0.17118  1.0000
  H   H1569     1.0  0.73049  0.03372  0.11124  1.0000
  H   H1570     1.0  0.72904  0.08381  0.11515  1.0000
  C   C1938     1.0  0.71518  0.27757  0.12935  1.0000
  C   C1939     1.0  0.71859  0.30439  0.12301  1.0000
  C   C1940     1.0  0.71641  0.32623  0.13723  1.0000
  C   C1941     1.0  0.71137  0.32150  0.15828  1.0000
  C   C1942     1.0  0.70789  0.29469  0.16460  1.0000
  C   C1943     1.0  0.70948  0.27296  0.15022  1.0000
  H   H1571     1.0  0.72313  0.30829  0.10700  1.0000
  H   H1572     1.0  0.71935  0.34657  0.13208  1.0000
  H   H1573     1.0  0.70416  0.29063  0.18085  1.0000
  H   H1574     1.0  0.70689  0.25254  0.15545  1.0000
  C   C1944     1.0  0.53666  0.19847  0.27367  1.0000
  C   C1945     1.0  0.52401  0.18888  0.28872  1.0000
  C   C1946     1.0  0.74357  0.10731  0.04231  1.0000
  C   C1947     1.0  0.73276  0.12599  0.03102  1.0000
  H   H1575     1.0  0.74239  0.05512  0.07225  1.0000
  C   C1948     1.0  0.52441  0.03416  0.22084  1.0000
  C   C1949     1.0  0.75652  0.08803  0.00942  1.0000
  H   H1576     1.0  0.68995  0.08240  0.07205  1.0000
  C   C1950     1.0  0.60910  0.14873  0.16579  1.0000
  C   C1951     1.0  0.60184  0.16550  0.15010  1.0000
  C   C1952     1.0  0.61296  0.17346  0.13291  1.0000
  C   C1953     1.0  0.63168  0.16544  0.13142  1.0000
  C   C1954     1.0  0.63932  0.14948  0.14749  1.0000
  C   C1955     1.0  0.62802  0.14107  0.16460  1.0000
  H   H1577     1.0  0.58764  0.17255  0.15111  1.0000
  H   H1578     1.0  0.60699  0.18610  0.12075  1.0000
  H   H1579     1.0  0.65381  0.14330  0.14652  1.0000
  H   H1580     1.0  0.63383  0.12824  0.17672  1.0000
  H   H1581     1.0  0.51154  0.32648  0.08141  1.0000
  C   C1956     1.0  0.60591  0.42769  0.12147  1.0000
  C   C1957     1.0  0.59762  0.43721  0.14018  1.0000
  C   C1958     1.0  0.60820  0.43924  0.15834  1.0000
  C   C1959     1.0  0.62712  0.43194  0.15793  1.0000
  C   C1960     1.0  0.63531  0.42186  0.13933  1.0000
  C   C1961     1.0  0.62474  0.41979  0.12116  1.0000
  H   H1582     1.0  0.58313  0.44331  0.14058  1.0000
  H   H1583     1.0  0.74249  0.04502  0.25043  1.0000
  H   H1584     1.0  0.64980  0.41587  0.13887  1.0000
  H   H1585     1.0  0.63121  0.41221  0.10678  1.0000
  H   H1586     1.0  0.74661  0.24236  0.06761  1.0000
  C   C1962     1.0  0.51946  0.07148  0.14187  1.0000
  H   H1587     1.0  0.61526  0.97632  0.20464  1.0000
  C   C1963     1.0  0.53612  0.26555  0.14895  1.0000
  H   H1588     1.0  0.52102  0.01517  0.11110  1.0000
  H   H1589     1.0  0.58853  0.97561  0.24058  1.0000
  C   C1964     1.0  0.54831  0.28465  0.14154  1.0000
  C   C1965     1.0  0.54218  0.30890  0.13205  1.0000
  H   H1590     1.0  0.56302  0.28059  0.14299  1.0000
  H   H1591     1.0  0.55393  0.32042  0.12681  1.0000
  H   H1592     1.0  0.53924  0.99934  0.23311  1.0000
  C   C1966     1.0  0.55344  0.20891  0.27989  1.0000
  H   H1593     1.0  0.64045  0.04205  0.25437  1.0000
  H   H1594     1.0  0.57934  0.99201  0.07218  1.0000
  C   C1967     1.0  0.51781  0.35949  0.14703  1.0000
  H   H1595     1.0  0.69323  0.98667  0.04379  1.0000
  H   H1596     1.0  0.52401  0.02067  0.17799  1.0000
  H   H1597     1.0  0.52999  0.43147  0.01255  1.0000
  H   H1598     1.0  0.52510  0.45685  0.21033  1.0000
  C   C1968     1.0  0.72782  0.38763  0.23843  1.0000
  C   C1969     1.0  0.53578  0.36122  0.12901  1.0000
  C   C1970     1.0  0.53347  0.34818  0.10405  1.0000
  H   H1599     1.0  0.61094  0.01059  0.13640  1.0000
  C   C1971     1.0  0.57777  0.37674  0.17805  1.0000
  C   C1972     1.0  0.58352  0.35181  0.18641  1.0000
  H   H1600     1.0  0.54869  0.37007  0.13317  1.0000
  H   H1601     1.0  0.54468  0.34961  0.09263  1.0000
  H   H1602     1.0  0.51272  0.00609  0.04406  1.0000
  H   H1603     1.0  0.58790  0.39194  0.17428  1.0000
  H   H1604     1.0  0.59804  0.34776  0.18948  1.0000
  H   H1605     1.0  0.57505  0.31245  0.19685  1.0000
  C   C1973     1.0  0.68510  0.04150  0.26621  1.0000
  C   C1974     1.0  0.65202  0.13147  0.04092  1.0000
  C   C1975     1.0  0.64264  0.13826  0.05967  1.0000
  C   C1976     1.0  0.63373  0.11836  0.07154  1.0000
  C   C1977     1.0  0.63414  0.09138  0.06463  1.0000
  C   C1978     1.0  0.64402  0.08460  0.04605  1.0000
  P   P63       1.0  0.62406  0.06493  0.08050  1.0000
  C   C1979     1.0  0.64351  0.04565  0.09102  1.0000
  C   C1980     1.0  0.60993  0.08006  0.10132  1.0000
  C   C1981     1.0  0.61593  0.08001  0.12210  1.0000
  C   C1982     1.0  0.60482  0.09172  0.13805  1.0000
  C   C1983     1.0  0.58765  0.10368  0.13334  1.0000
  C   C1984     1.0  0.58155  0.10390  0.11268  1.0000
  C   C1985     1.0  0.59266  0.09218  0.09668  1.0000
  C   C1986     1.0  0.64374  0.01723  0.09215  1.0000
  C   C1987     1.0  0.65892  0.00311  0.10060  1.0000
  C   C1988     1.0  0.67417  0.01706  0.10757  1.0000
  C   C1989     1.0  0.67417  0.04526  0.10630  1.0000
  C   C1990     1.0  0.65895  0.05950  0.09808  1.0000
  C   C1991     1.0  0.60825  0.04502  0.06566  1.0000
  C   C1992     1.0  0.59906  0.02352  0.07548  1.0000
  H   H1606     1.0  0.75230  0.46544  0.22593  1.0000
  C   C1993     1.0  0.51747  0.27060  0.14622  1.0000
  C   C1994     1.0  0.68486  0.47047  0.07175  1.0000
  C   C1995     1.0  0.60351  0.05239  0.04504  1.0000
  H   H1607     1.0  0.64246  0.15898  0.06522  1.0000
  H   H1608     1.0  0.62691  0.12421  0.08624  1.0000
  H   H1609     1.0  0.64511  0.06376  0.04088  1.0000
  H   H1610     1.0  0.62906  0.07083  0.12610  1.0000
  H   H1611     1.0  0.60943  0.09146  0.15413  1.0000
  H   H1612     1.0  0.57909  0.11279  0.14575  1.0000
  H   H1613     1.0  0.56822  0.11326  0.10911  1.0000
  H   H1614     1.0  0.58778  0.09267  0.08071  1.0000
  H   H1615     1.0  0.63243  0.00566  0.08649  1.0000
  Fe  Fe144     1.0  0.53070  0.46194  0.07280  1.0000
  H   H1616     1.0  0.68595  0.00603  0.11408  1.0000
  H   H1617     1.0  0.68592  0.05613  0.11196  1.0000
  H   H1618     1.0  0.65918  0.08141  0.09741  1.0000
  H   H1619     1.0  0.60177  0.01804  0.09163  1.0000
  H   H1620     1.0  0.74200  0.31057  0.32472  1.0000
  H   H1621     1.0  0.70654  0.03878  0.07850  1.0000
  H   H1622     1.0  0.73003  0.20483  0.05143  1.0000
  H   H1623     1.0  0.60944  0.06977  0.03736  1.0000
  C   C1996     1.0  0.51946  0.44629  0.19716  1.0000
  H   H1624     1.0  0.58686  0.04348  0.01834  1.0000
  C   C1997     1.0  0.73252  0.12140  0.25961  1.0000
  S   S277      1.0  0.51045  0.15444  0.24022  1.0000
  H   H1625     1.0  0.60491  0.11107  0.22561  1.0000
  C   C1998     1.0  0.54573  0.36243  0.17911  1.0000
  H   H1626     1.0  0.74229  0.97593  0.22920  1.0000
  H   H1627     1.0  0.68159  0.04062  0.28284  1.0000
  C   C1999     1.0  0.69665  0.02136  0.25724  1.0000
  C   C2000     1.0  0.75465  0.00176  0.01743  1.0000
  H   H1628     1.0  0.59529  0.44643  0.05642  1.0000
  C   C2001     1.0  0.51642  0.40499  0.17707  1.0000
  P   P64       1.0  0.74590  0.40747  0.30567  1.0000
  H   H1629     1.0  0.70552  0.36625  0.25335  1.0000
  H   H1630     1.0  0.52489  0.13505  0.29888  1.0000
  H   H1631     1.0  0.55485  0.40133  0.16757  1.0000
  H   H1632     1.0  0.54216  0.32132  0.19038  1.0000
  H   H1633     1.0  0.51799  0.06511  0.10853  1.0000
  H   H1634     1.0  0.73353  0.05099  0.20809  1.0000
  H   H1635     1.0  0.57172  0.00447  0.03561  1.0000
  C   C2002     1.0  0.65462  0.12389  0.24410  1.0000
  C   C2003     1.0  0.75241  0.03905  0.07533  1.0000
  C   C2004     1.0  0.52358  0.41875  0.19423  1.0000
  C   C2005     1.0  0.62152  0.13273  0.24708  1.0000
  H   H1636     1.0  0.64299  0.45964  0.03582  1.0000
  C   C2006     1.0  0.72312  0.10213  0.27156  1.0000
  H   H1637     1.0  0.56974  0.46518  0.03493  1.0000
  H   H1638     1.0  0.74630  0.34854  0.29992  1.0000
  C   C2007     1.0  0.73401  0.12563  0.00890  1.0000
  H   H1639     1.0  0.75337  0.12849  0.23598  1.0000
  C   C2008     1.0  0.70742  0.07093  0.02280  1.0000
  S   S278      1.0  0.54515  0.23690  0.16268  1.0000
  C   C2009     1.0  0.55898  0.38204  0.17437  1.0000
  H   H1640     1.0  0.72026  0.05963  0.27804  1.0000
  C   C2010     1.0  0.71716  0.04660  0.02637  1.0000
  H   H1641     1.0  0.65804  0.99932  0.24614  1.0000
  C   C2011     1.0  0.71567  0.44428  0.30661  1.0000
  H   H1642     1.0  0.71007  0.00655  0.22890  1.0000
  C   C2012     1.0  0.74035  0.33122  0.33020  1.0000
  H   H1643     1.0  0.55931  0.99481  0.18352  1.0000
  C   C2013     1.0  0.74270  0.35282  0.31620  1.0000
  C   C2014     1.0  0.58409  0.31027  0.09818  1.0000
  C   C2015     1.0  0.58707  0.33642  0.09061  1.0000
  C   C2016     1.0  0.60268  0.35025  0.09667  1.0000
  C   C2017     1.0  0.61524  0.33809  0.11043  1.0000
  C   C2018     1.0  0.61197  0.31225  0.11878  1.0000
  C   C2019     1.0  0.59656  0.29811  0.11209  1.0000
  P   P65       1.0  0.62889  0.29606  0.13544  1.0000
  C   C2020     1.0  0.64659  0.28278  0.11761  1.0000
  C   C2021     1.0  0.63818  0.31936  0.15392  1.0000
  C   C2022     1.0  0.65493  0.31285  0.16380  1.0000
  C   C2023     1.0  0.66211  0.33057  0.17838  1.0000
  C   C2024     1.0  0.65266  0.35482  0.18325  1.0000
  C   C2025     1.0  0.63579  0.36114  0.17386  1.0000
  C   C2026     1.0  0.62846  0.34341  0.15936  1.0000
  C   C2027     1.0  0.66258  0.29749  0.11311  1.0000
  C   C2028     1.0  0.67592  0.28748  0.09868  1.0000
  C   C2029     1.0  0.67337  0.26290  0.08862  1.0000
  C   C2030     1.0  0.65731  0.24841  0.09271  1.0000
  C   C2031     1.0  0.64386  0.25843  0.10699  1.0000
  C   C2032     1.0  0.61887  0.26966  0.15137  1.0000
  C   C2033     1.0  0.62885  0.24541  0.15524  1.0000
  C   C2034     1.0  0.62080  0.22491  0.16727  1.0000
  C   C2035     1.0  0.60287  0.22855  0.17572  1.0000
  C   C2036     1.0  0.59318  0.25304  0.17265  1.0000
  C   C2037     1.0  0.60120  0.27365  0.16069  1.0000
  H   H1644     1.0  0.57214  0.29933  0.09323  1.0000
  H   H1645     1.0  0.57746  0.34590  0.07981  1.0000
  H   H1646     1.0  0.60512  0.37037  0.09056  1.0000
  H   H1647     1.0  0.62752  0.34887  0.11450  1.0000
  H   H1648     1.0  0.59425  0.27758  0.11737  1.0000
  H   H1649     1.0  0.66254  0.29420  0.16013  1.0000
  H   H1650     1.0  0.67514  0.32563  0.18579  1.0000
  H   H1651     1.0  0.65842  0.36872  0.19430  1.0000
  H   H1652     1.0  0.62844  0.37988  0.17779  1.0000
  H   H1653     1.0  0.61525  0.34859  0.15251  1.0000
  H   H1654     1.0  0.66486  0.31664  0.12067  1.0000
  H   H1655     1.0  0.68844  0.29853  0.09553  1.0000
  H   H1656     1.0  0.68399  0.25500  0.07782  1.0000
  H   H1657     1.0  0.65534  0.22922  0.08503  1.0000
  H   H1658     1.0  0.63145  0.24697  0.10984  1.0000
  H   H1659     1.0  0.64276  0.24209  0.14885  1.0000
  H   H1660     1.0  0.62832  0.20591  0.16965  1.0000
  H   H1661     1.0  0.59643  0.21229  0.18448  1.0000
  H   H1662     1.0  0.57927  0.25580  0.17922  1.0000
  H   H1663     1.0  0.59349  0.29248  0.15841  1.0000
  H   H1664     1.0  0.75088  0.41128  0.22798  1.0000
  C   C2038     1.0  0.57147  0.04504  0.15140  1.0000
  C   C2039     1.0  0.58509  0.03335  0.13817  1.0000
  C   C2040     1.0  0.60049  0.02000  0.14670  1.0000
  C   C2041     1.0  0.60205  0.01774  0.16851  1.0000
  C   C2042     1.0  0.58823  0.02899  0.18200  1.0000
  C   C2043     1.0  0.57296  0.04282  0.17320  1.0000
  P   P66       1.0  0.58762  0.02007  0.20963  1.0000
  C   C2044     1.0  0.72305  0.38426  0.27617  1.0000
  C   C2045     1.0  0.61062  0.01483  0.21994  1.0000
  C   C2046     1.0  0.61800  0.03343  0.23392  1.0000
  C   C2047     1.0  0.63497  0.02777  0.24344  1.0000
  P   P67       1.0  0.52149  0.36929  0.17378  1.0000
  H   H1665     1.0  0.71487  0.37707  0.28942  1.0000
  C   C2048     1.0  0.51309  0.33404  0.09715  1.0000
  C   C2049     1.0  0.71530  0.98189  0.06608  1.0000
  C   C2050     1.0  0.69772  0.97686  0.05813  1.0000
  C   C2051     1.0  0.51099  0.29522  0.13732  1.0000
  C   C2052     1.0  0.73975  0.98954  0.02798  1.0000
  H   H1666     1.0  0.65887  0.98125  0.10177  1.0000
  C   C2053     1.0  0.57594  0.04594  0.22541  1.0000
  C   C2054     1.0  0.57641  0.07324  0.21928  1.0000
  C   C2055     1.0  0.56775  0.09324  0.23183  1.0000
  C   C2056     1.0  0.55851  0.08619  0.25050  1.0000
  C   C2057     1.0  0.55842  0.05917  0.25702  1.0000
  C   C2058     1.0  0.56734  0.03915  0.24469  1.0000
  H   H1667     1.0  0.55954  0.05537  0.14470  1.0000
  H   H1668     1.0  0.58361  0.03474  0.12131  1.0000
  H   H1669     1.0  0.70812  0.08043  0.00743  1.0000
  C   C2059     1.0  0.52617  0.00722  0.22742  1.0000
  H   H1670     1.0  0.56165  0.05074  0.18303  1.0000
  H   H1671     1.0  0.61062  0.05213  0.23781  1.0000
  H   H1672     1.0  0.51343  0.31174  0.17684  1.0000
  H   H1673     1.0  0.65908  0.14694  0.03192  1.0000
  H   H1674     1.0  0.57060  0.21797  0.30604  1.0000
  C   C2060     1.0  0.52810  0.18947  0.31019  1.0000
  C   C2061     1.0  0.59289  0.46812  0.05556  1.0000
  H   H1675     1.0  0.72362  0.38293  0.22262  1.0000
  S   S279      1.0  0.71205  0.46497  0.23620  1.0000
  P   P68       1.0  0.73051  0.00451  0.05201  1.0000
  H   H1676     1.0  0.58354  0.07926  0.20488  1.0000
  H   H1677     1.0  0.56812  0.11428  0.22695  1.0000
  H   H1678     1.0  0.55141  0.10171  0.25989  1.0000
  H   H1679     1.0  0.55131  0.05374  0.27157  1.0000
  H   H1680     1.0  0.56731  0.01842  0.25016  1.0000
  C   C2062     1.0  0.65885  0.07225  0.15427  1.0000
  C   C2063     1.0  0.65326  0.04540  0.15549  1.0000
  C   C2064     1.0  0.65327  0.03180  0.17474  1.0000
  C   C2065     1.0  0.65880  0.04507  0.19277  1.0000
  C   C2066     1.0  0.66469  0.07189  0.19167  1.0000
  C   C2067     1.0  0.66447  0.08549  0.17227  1.0000
  P   P69       1.0  0.67171  0.08877  0.21522  1.0000
  C   C2068     1.0  0.65189  0.10498  0.22814  1.0000
  C   C2069     1.0  0.68253  0.06371  0.23216  1.0000
  C   C2070     1.0  0.69438  0.04356  0.22337  1.0000
  C   C2071     1.0  0.70131  0.02243  0.23585  1.0000
  C   C2072     1.0  0.51937  0.05549  0.12374  1.0000
  C   C2073     1.0  0.63778  0.98543  0.22466  1.0000
  C   C2074     1.0  0.67810  0.06265  0.25376  1.0000
  C   C2075     1.0  0.63382  0.10022  0.22165  1.0000
  C   C2076     1.0  0.68745  0.11535  0.20828  1.0000
  C   C2077     1.0  0.70671  0.11151  0.20987  1.0000
  C   C2078     1.0  0.71861  0.13199  0.20343  1.0000
  C   C2079     1.0  0.71142  0.15646  0.19562  1.0000
  C   C2080     1.0  0.69228  0.16058  0.19429  1.0000
  C   C2081     1.0  0.68033  0.14017  0.20062  1.0000
  H   H1681     1.0  0.65907  0.08295  0.13939  1.0000
  H   H1682     1.0  0.64902  0.03497  0.14156  1.0000
  H   H1683     1.0  0.64919  0.01084  0.17565  1.0000
  H   H1684     1.0  0.65879  0.03416  0.20746  1.0000
  H   H1685     1.0  0.66898  0.10609  0.17074  1.0000
  C   C2082     1.0  0.65446  0.45238  0.06632  1.0000
  H   H1686     1.0  0.66899  0.07771  0.26106  1.0000
  H   H1687     1.0  0.63128  0.08643  0.20894  1.0000
  H   H1688     1.0  0.66850  0.12830  0.24899  1.0000
  H   H1689     1.0  0.71261  0.09259  0.21549  1.0000
  H   H1690     1.0  0.73345  0.12859  0.20358  1.0000
  H   H1691     1.0  0.72071  0.17186  0.18991  1.0000
  H   H1692     1.0  0.68674  0.17931  0.18773  1.0000
  H   H1693     1.0  0.66553  0.14353  0.19894  1.0000
  H   H1694     1.0  0.72985  0.14275  0.26245  1.0000
  H   H1695     1.0  0.70199  0.00490  0.26686  1.0000
  C   C2083     1.0  0.57055  0.33198  0.19073  1.0000
  C   C2084     1.0  0.72685  0.07464  0.26816  1.0000
  H   H1696     1.0  0.69786  0.04375  0.20674  1.0000
  C   C2085     1.0  0.55176  0.33720  0.18708  1.0000
  C   C2086     1.0  0.52279  0.03045  0.16287  1.0000
  H   H1697     1.0  0.64166  0.15235  0.26578  1.0000
  C   C2087     1.0  0.63947  0.13759  0.25362  1.0000
  C   C2088     1.0  0.52230  0.01447  0.14478  1.0000
  S   S280      1.0  0.72055  0.99049  0.13876  1.0000
  H   H1698     1.0  0.69134  0.10365  0.03684  1.0000
  C   C2089     1.0  0.61874  0.11410  0.23113  1.0000
  C   C2090     1.0  0.66954  0.45625  0.07924  1.0000
  H   H1699     1.0  0.75438  0.07918  0.17903  1.0000
  C   C2091     1.0  0.54499  0.20011  0.31634  1.0000
  H   H1700     1.0  0.53609  0.04735  0.22109  1.0000
  C   C2092     1.0  0.70929  0.46016  0.00913  1.0000
  C   C2093     1.0  0.75531  0.08842  0.03155  1.0000
  C   C2094     1.0  0.73967  0.06637  0.25256  1.0000
  S   S281      1.0  0.51209  0.16968  0.17957  1.0000
  C   C2095     1.0  0.75022  0.01279  0.06757  1.0000
  C   C2096     1.0  0.73310  0.43732  0.31474  1.0000
  C   C2097     1.0  0.52155  0.05888  0.16144  1.0000
  H   H1701     1.0  0.75300  0.97569  0.18147  1.0000
  C   C2098     1.0  0.74875  0.40953  0.26181  1.0000
  H   H1702     1.0  0.51755  0.09592  0.23714  1.0000
  C   C2099     1.0  0.62072  0.99091  0.21532  1.0000
  C   C2100     1.0  0.55759  0.20979  0.30122  1.0000
  C   C2101     1.0  0.73880  0.39971  0.27934  1.0000
  C   C2102     1.0  0.52052  0.12522  0.31330  1.0000
  H   H1703     1.0  0.74270  0.10719  0.05930  1.0000
  C   C2103     1.0  0.71702  0.03486  0.04651  1.0000
  H   H1704     1.0  0.60178  0.44684  0.17269  1.0000
  C   C2104     1.0  0.74901  0.20114  0.02489  1.0000
  C   C2105     1.0  0.74241  0.21254  0.04378  1.0000
  C   C2106     1.0  0.70667  0.04746  0.06283  1.0000
  H   H1705     1.0  0.71328  0.10848  0.28380  1.0000
  H   H1706     1.0  0.66925  0.44856  0.09525  1.0000
  H   H1707     1.0  0.72315  0.45347  0.06259  1.0000
  H   H1708     1.0  0.51071  0.42390  0.04454  1.0000
  H   H1709     1.0  0.74158  0.18464  0.01818  1.0000
  H   H1710     1.0  0.63852  0.46496  0.22299  1.0000
  S   S282      1.0  0.52218  0.97883  0.14731  1.0000
  C   C2107     1.0  0.74328  0.40342  0.24145  1.0000
  C   C2108     1.0  0.59048  0.03771  0.03421  1.0000
  C   C2109     1.0  0.71765  0.37817  0.25578  1.0000
  C   C2110     1.0  0.75006  0.99430  0.28015  1.0000
  H   H1711     1.0  0.65996  0.09938  0.01954  1.0000
  H   H1712     1.0  0.52171  0.07104  0.17545  1.0000
  H   H1713     1.0  0.72739  0.00775  0.19040  1.0000
  C   C2111     1.0  0.52258  0.31821  0.12992  1.0000
  C   C2112     1.0  0.58186  0.01584  0.04394  1.0000
  C   C2113     1.0  0.65474  0.46258  0.04579  1.0000
  C   C2114     1.0  0.74575  0.10674  0.99816  1.0000
  C   C2115     1.0  0.51099  0.99036  0.22664  1.0000
  H   H1714     1.0  0.53344  0.19759  0.25711  1.0000
  C   C2116     1.0  0.56246  0.98164  0.19665  1.0000
  C   C2117     1.0  0.75178  0.23366  0.05289  1.0000
  C   C2118     1.0  0.74071  0.97641  0.24609  1.0000
  C   C2119     1.0  0.74103  0.37965  0.32335  1.0000
  C   C2120     1.0  0.52128  0.09696  0.31425  1.0000
  C   C2121     1.0  0.75197  0.99311  0.25808  1.0000
  H   H1715     1.0  0.51113  0.18070  0.28351  1.0000
  H   H1716     1.0  0.73372  0.97341  0.09199  1.0000
  C   C2122     1.0  0.51596  0.42455  0.01111  1.0000
  P   P70       1.0  0.51163  0.17670  0.32942  1.0000
  H   H1717     1.0  0.73552  0.97806  0.30705  1.0000
  C   C2123     1.0  0.74943  0.08552  0.24069  1.0000
  C   C2124     1.0  0.74485  0.03667  0.20500  1.0000
  S   S283      1.0  0.68873  0.46927  0.18174  1.0000
  H   H1718     1.0  0.72564  0.13986  0.99998  1.0000
  H   H1719     1.0  0.75773  0.11419  0.15192  1.0000
  H   H1720     1.0  0.74850  0.45109  0.08792  1.0000
  C   C2125     1.0  0.74132  0.01249  0.19469  1.0000
  C   C2126     1.0  0.74583  0.11316  0.24446  1.0000
  C   C2127     1.0  0.70559  0.46682  0.31434  1.0000
  C   C2128     1.0  0.75581  0.99421  0.18975  1.0000
  C   C2129     1.0  0.74486  0.47022  0.08049  1.0000
  H   H1721     1.0  0.69222  0.47214  0.30789  1.0000
  C   C2130     1.0  0.73034  0.47172  0.06632  1.0000
  C   C2131     1.0  0.51360  0.14025  0.33057  1.0000
  S   S284      1.0  0.54973  0.42185  0.64180  1.0000
  C   C2132     1.0  0.53471  0.18836  0.38676  1.0000
  H   H1722     1.0  0.51658  0.34439  0.56673  1.0000
  C   C2133     1.0  0.53400  0.27250  0.62130  1.0000
  Fe  Fe145     1.0  0.56114  0.17981  0.59753  1.0000
  S   S285      1.0  0.54276  0.16878  0.62508  1.0000
  S   S286      1.0  0.59193  0.18848  0.59885  1.0000
  Fe  Fe146     1.0  0.52839  0.18472  0.56671  1.0000
  Fe  Fe147     1.0  0.52367  0.20178  0.61272  1.0000
  H   H1723     1.0  0.54184  0.25655  0.61355  1.0000
  Fe  Fe148     1.0  0.52879  0.14144  0.60234  1.0000
  H   H1724     1.0  0.55294  0.30296  0.61127  1.0000
  S   S287      1.0  0.54287  0.21435  0.58662  1.0000
  S   S288      1.0  0.54842  0.15069  0.57526  1.0000
  C   C2134     1.0  0.53399  0.02879  0.65369  1.0000
  C   C2135     1.0  0.70376  0.99089  0.51808  1.0000
  H   H1725     1.0  0.56923  0.33232  0.52126  1.0000
  S   S289      1.0  0.70701  0.24045  0.63701  1.0000
  H   H1726     1.0  0.67238  0.27382  0.59956  1.0000
  H   H1727     1.0  0.73912  0.14396  0.64870  1.0000
  H   H1728     1.0  0.66571  0.32338  0.60100  1.0000
  Fe  Fe149     1.0  0.67602  0.41283  0.59728  1.0000
  S   S290      1.0  0.68766  0.42805  0.62720  1.0000
  S   S291      1.0  0.64490  0.40818  0.59425  1.0000
  Fe  Fe150     1.0  0.71478  0.40397  0.57581  1.0000
  S   S292      1.0  0.72856  0.41940  0.60483  1.0000
  S   S293      1.0  0.73587  0.39273  0.54910  1.0000
  Fe  Fe151     1.0  0.70840  0.39361  0.62289  1.0000
  S   S294      1.0  0.71503  0.36662  0.65092  1.0000
  Fe  Fe152     1.0  0.70646  0.45245  0.60637  1.0000
  C   C2136     1.0  0.51785  0.16314  0.44740  1.0000
  S   S295      1.0  0.69562  0.37679  0.59412  1.0000
  S   S296      1.0  0.69380  0.43875  0.57619  1.0000
  C   C2137     1.0  0.53414  0.40015  0.53357  1.0000
  C   C2138     1.0  0.51793  0.30768  0.47906  1.0000
  H   H1729     1.0  0.75072  0.03996  0.66222  1.0000
  P   P71       1.0  0.54109  0.30336  0.54615  1.0000
  C   C2139     1.0  0.72970  0.40002  0.44701  1.0000
  C   C2140     1.0  0.58114  0.36056  0.54206  1.0000
  C   C2141     1.0  0.72792  0.13629  0.65837  1.0000
  H   H1730     1.0  0.63878  0.46755  0.59025  1.0000
  H   H1731     1.0  0.73838  0.25128  0.57385  1.0000
  C   C2142     1.0  0.72289  0.05200  0.65426  1.0000
  C   C2143     1.0  0.56537  0.22877  0.65429  1.0000
  C   C2144     1.0  0.58664  0.33854  0.65185  1.0000
  C   C2145     1.0  0.73834  0.36867  0.52822  1.0000
  C   C2146     1.0  0.72377  0.35279  0.52180  1.0000
  C   C2147     1.0  0.72646  0.33443  0.50496  1.0000
  H   H1732     1.0  0.52181  0.25725  0.56482  1.0000
  C   C2148     1.0  0.52342  0.20882  0.39569  1.0000
  H   H1733     1.0  0.71037  0.35487  0.52963  1.0000
  H   H1734     1.0  0.66408  0.24468  0.62988  1.0000
  C   C2149     1.0  0.71191  0.33165  0.64725  1.0000
  H   H1735     1.0  0.74402  0.27672  0.61651  1.0000
  C   C2150     1.0  0.66570  0.28269  0.61338  1.0000
  C   C2151     1.0  0.70780  0.27556  0.64160  1.0000
  C   C2152     1.0  0.70945  0.29297  0.62430  1.0000
  C   C2153     1.0  0.71167  0.32078  0.62707  1.0000
  H   H1736     1.0  0.70932  0.28482  0.60863  1.0000
  H   H1737     1.0  0.71372  0.33363  0.61355  1.0000
  C   C2154     1.0  0.51268  0.38780  0.50671  1.0000
  C   C2155     1.0  0.70702  0.04425  0.64364  1.0000
  C   C2156     1.0  0.70720  0.01970  0.63211  1.0000
  C   C2157     1.0  0.72324  0.00282  0.63113  1.0000
  C   C2158     1.0  0.73866  0.01028  0.64247  1.0000
  C   C2159     1.0  0.65380  0.32206  0.63231  1.0000
  H   H1738     1.0  0.69498  0.05770  0.64347  1.0000
  H   H1739     1.0  0.69537  0.01475  0.62288  1.0000
  H   H1740     1.0  0.71634  0.39385  0.44161  1.0000
  C   C2160     1.0  0.60439  0.18398  0.62229  1.0000
  C   C2161     1.0  0.62132  0.19696  0.62438  1.0000
  C   C2162     1.0  0.63172  0.19363  0.64271  1.0000
  C   C2163     1.0  0.53656  0.07626  0.64228  1.0000
  H   H1741     1.0  0.74133  0.35943  0.44740  1.0000
  C   C2164     1.0  0.59803  0.16729  0.63858  1.0000
  H   H1742     1.0  0.62634  0.20984  0.61181  1.0000
  H   H1743     1.0  0.64455  0.20413  0.64430  1.0000
  H   H1744     1.0  0.58511  0.15700  0.63702  1.0000
  C   C2165     1.0  0.70779  0.28632  0.66187  1.0000
  C   C2166     1.0  0.60084  0.40747  0.63527  1.0000
  C   C2167     1.0  0.61253  0.40337  0.61748  1.0000
  C   C2168     1.0  0.63056  0.41335  0.61690  1.0000
  C   C2169     1.0  0.63663  0.42782  0.63413  1.0000
  C   C2170     1.0  0.54367  0.29973  0.50231  1.0000
  H   H1745     1.0  0.58709  0.39946  0.63562  1.0000
  H   H1746     1.0  0.60764  0.39221  0.60422  1.0000
  H   H1747     1.0  0.65019  0.43629  0.63373  1.0000
  S   S297      1.0  0.50908  0.23375  0.63322  1.0000
  C   C2171     1.0  0.75560  0.36579  0.51753  1.0000
  C   C2172     1.0  0.53105  0.17867  0.36671  1.0000
  C   C2173     1.0  0.66104  0.26625  0.63052  1.0000
  C   C2174     1.0  0.54026  0.29899  0.61998  1.0000
  C   C2175     1.0  0.66204  0.31057  0.61425  1.0000
  C   C2176     1.0  0.74381  0.38064  0.45017  1.0000
  P   P72       1.0  0.52901  0.44524  0.55962  1.0000
  H   H1748     1.0  0.60535  0.44150  0.58040  1.0000
  C   C2177     1.0  0.57830  0.22635  0.55186  1.0000
  H   H1749     1.0  0.75216  0.45632  0.46133  1.0000
  S   S298      1.0  0.75237  0.03263  0.35727  1.0000
  C   C2178     1.0  0.52554  0.07161  0.62491  1.0000
  S   S299      1.0  0.68490  0.17365  0.65513  1.0000
  H   H1750     1.0  0.75149  0.28293  0.53494  1.0000
  H   H1751     1.0  0.75245  0.20667  0.57902  1.0000
  H   H1752     1.0  0.71506  0.32225  0.50023  1.0000
  H   H1753     1.0  0.54184  0.09620  0.64477  1.0000
  C   C2179     1.0  0.55559  0.34258  0.57225  1.0000
  C   C2180     1.0  0.55251  0.25041  0.53586  1.0000
  C   C2181     1.0  0.56848  0.34086  0.53684  1.0000
  H   H1754     1.0  0.65081  0.34366  0.63254  1.0000
  H   H1755     1.0  0.51046  0.04143  0.60859  1.0000
  C   C2182     1.0  0.68635  0.99818  0.52676  1.0000
  H   H1756     1.0  0.72188  0.44231  0.44851  1.0000
  C   C2183     1.0  0.60714  0.42143  0.65267  1.0000
  Fe  Fe153     1.0  0.69974  0.21135  0.66318  1.0000
  H   H1757     1.0  0.53987  0.16269  0.36004  1.0000
  H   H1758     1.0  0.68270  0.10762  0.65569  1.0000
  H   H1759     1.0  0.73709  0.21658  0.61347  1.0000
  H   H1760     1.0  0.74641  0.06552  0.48813  1.0000
  S   S300      1.0  0.53820  0.35325  0.62644  1.0000
  H   H1761     1.0  0.54547  0.29557  0.46860  1.0000
  H   H1762     1.0  0.58676  0.20805  0.55363  1.0000
  H   H1763     1.0  0.72982  0.33786  0.57013  1.0000
  H   H1764     1.0  0.75516  0.31996  0.62164  1.0000
  C   C2184     1.0  0.53030  0.32018  0.62990  1.0000
  C   C2185     1.0  0.74238  0.06232  0.60534  1.0000
  C   C2186     1.0  0.69526  0.11478  0.66226  1.0000
  H   H1765     1.0  0.56135  0.20966  0.52802  1.0000
  H   H1766     1.0  0.59135  0.36715  0.53051  1.0000
  C   C2187     1.0  0.58106  0.37115  0.56238  1.0000
  S   S301      1.0  0.75379  0.29829  0.41255  1.0000
  H   H1767     1.0  0.51809  0.00403  0.63354  1.0000
  C   C2188     1.0  0.56978  0.27182  0.56313  1.0000
  C   C2189     1.0  0.73282  0.42727  0.45095  1.0000
  C   C2190     1.0  0.73838  0.03429  0.65417  1.0000
  C   C2191     1.0  0.73491  0.36277  0.35872  1.0000
  C   C2192     1.0  0.53659  0.30072  0.48202  1.0000
  C   C2193     1.0  0.51727  0.13910  0.45901  1.0000
  C   C2194     1.0  0.69925  0.28786  0.56303  1.0000
  C   C2195     1.0  0.52897  0.38263  0.51765  1.0000
  H   H1768     1.0  0.58108  0.44172  0.60861  1.0000
  H   H1769     1.0  0.54797  0.44247  0.59972  1.0000
  C   C2196     1.0  0.74360  0.33199  0.49397  1.0000
  C   C2197     1.0  0.64953  0.30573  0.64981  1.0000
  C   C2198     1.0  0.68370  0.99922  0.54857  1.0000
  H   H1770     1.0  0.59628  0.44258  0.54300  1.0000
  C   C2199     1.0  0.62498  0.43180  0.65190  1.0000
  C   C2200     1.0  0.58368  0.22921  0.66082  1.0000
  H   H1771     1.0  0.50866  0.37416  0.49443  1.0000
  C   C2201     1.0  0.52333  0.02401  0.63604  1.0000
  H   H1772     1.0  0.56137  0.23982  0.64034  1.0000
  C   C2202     1.0  0.56815  0.36238  0.57740  1.0000
  H   H1773     1.0  0.54852  0.20108  0.33271  1.0000
  C   C2203     1.0  0.71870  0.98471  0.53120  1.0000
  C   C2204     1.0  0.52323  0.42338  0.53826  1.0000
  C   C2205     1.0  0.75382  0.04762  0.49371  1.0000
  H   H1774     1.0  0.73779  0.02896  0.58464  1.0000
  C   C2206     1.0  0.58111  0.24854  0.56479  1.0000
  C   C2207     1.0  0.73227  0.04795  0.59088  1.0000
  C   C2208     1.0  0.75005  0.43515  0.45808  1.0000
  H   H1775     1.0  0.61351  0.35603  0.64968  1.0000
  C   C2209     1.0  0.57618  0.31730  0.65969  1.0000
  C   C2210     1.0  0.51901  0.04533  0.62191  1.0000
  H   H1776     1.0  0.53750  0.36491  0.51387  1.0000
  H   H1777     1.0  0.58002  0.35409  0.64236  1.0000
  H   H1778     1.0  0.54105  0.25022  0.52516  1.0000
  C   C2211     1.0  0.51226  0.32456  0.57181  1.0000
  H   H1779     1.0  0.54638  0.33521  0.58445  1.0000
  C   C2212     1.0  0.51608  0.18950  0.35536  1.0000
  C   C2213     1.0  0.73645  0.29499  0.57317  1.0000
  C   C2214     1.0  0.55314  0.44179  0.56616  1.0000
  C   C2215     1.0  0.54053  0.05509  0.65667  1.0000
  C   C2216     1.0  0.74121  0.16690  0.57697  1.0000
  H   H1780     1.0  0.75133  0.99819  0.64124  1.0000
  H   H1781     1.0  0.52927  0.12548  0.45920  1.0000
  C   C2217     1.0  0.59080  0.44178  0.57638  1.0000
  H   H1782     1.0  0.72689  0.98068  0.56379  1.0000
  C   C2218     1.0  0.74402  0.02633  0.50280  1.0000
  C   C2219     1.0  0.73557  0.19709  0.60624  1.0000
  H   H1783     1.0  0.73265  0.36658  0.37535  1.0000
  C   C2220     1.0  0.62520  0.17732  0.65916  1.0000
  C   C2221     1.0  0.72948  0.26887  0.57143  1.0000
  H   H1784     1.0  0.69641  0.99341  0.57867  1.0000
  H   H1785     1.0  0.73529  0.31947  0.36246  1.0000
  P   P73       1.0  0.74096  0.97428  0.51985  1.0000
  H   H1786     1.0  0.52761  0.39626  0.58548  1.0000
  H   H1787     1.0  0.53029  0.16810  0.43852  1.0000
  H   H1788     1.0  0.52624  0.21638  0.41121  1.0000
  H   H1789     1.0  0.59177  0.24726  0.57652  1.0000
  H   H1790     1.0  0.56815  0.37032  0.59328  1.0000
  H   H1791     1.0  0.57199  0.28855  0.57358  1.0000
  H   H1792     1.0  0.70557  0.24514  0.56537  1.0000
  C   C2222     1.0  0.51412  0.31468  0.64147  1.0000
  S   S302      1.0  0.52232  0.19293  0.53184  1.0000
  C   C2223     1.0  0.53211  0.30571  0.51984  1.0000
  C   C2224     1.0  0.75743  0.26692  0.61406  1.0000
  C   C2225     1.0  0.52167  0.30106  0.56448  1.0000
  C   C2226     1.0  0.70615  0.31388  0.56451  1.0000
  H   H1793     1.0  0.74894  0.44718  0.53648  1.0000
  H   H1794     1.0  0.53840  0.21301  0.65957  1.0000
  H   H1795     1.0  0.56312  0.44338  0.53384  1.0000
  C   C2227     1.0  0.71092  0.26534  0.56649  1.0000
  H   H1796     1.0  0.51534  0.06161  0.33284  1.0000
  C   C2228     1.0  0.60553  0.33956  0.65611  1.0000
  C   C2229     1.0  0.65942  0.16289  0.60010  1.0000
  C   C2230     1.0  0.64657  0.14268  0.60372  1.0000
  C   C2231     1.0  0.65239  0.11765  0.61181  1.0000
  C   C2232     1.0  0.67108  0.11281  0.61631  1.0000
  C   C2233     1.0  0.68413  0.13305  0.61282  1.0000
  C   C2234     1.0  0.67811  0.15818  0.60465  1.0000
  P   P74       1.0  0.70816  0.12727  0.61978  1.0000
  C   C2235     1.0  0.71026  0.12726  0.64838  1.0000
  C   C2236     1.0  0.71701  0.09548  0.60907  1.0000
  C   C2237     1.0  0.73487  0.08612  0.61424  1.0000
  H   H1797     1.0  0.74282  0.09685  0.62559  1.0000
  H   H1798     1.0  0.75192  0.43613  0.41177  1.0000
  C   C2238     1.0  0.71485  0.05776  0.58489  1.0000
  C   C2239     1.0  0.70730  0.08155  0.59375  1.0000
  Fe  Fe154     1.0  0.52696  0.44655  0.65747  1.0000
  S   S303      1.0  0.51883  0.09797  0.60702  1.0000
  H   H1799     1.0  0.54649  0.39537  0.54230  1.0000
  C   C2240     1.0  0.72228  0.15252  0.60699  1.0000
  C   C2241     1.0  0.72487  0.17763  0.61642  1.0000
  C   C2242     1.0  0.55554  0.33168  0.55190  1.0000
  H   H1800     1.0  0.54629  0.17992  0.39540  1.0000
  C   C2243     1.0  0.65289  0.27767  0.64864  1.0000
  H   H1801     1.0  0.75484  0.24332  0.64242  1.0000
  H   H1802     1.0  0.65477  0.18241  0.59412  1.0000
  H   H1803     1.0  0.63202  0.14654  0.60049  1.0000
  H   H1804     1.0  0.64234  0.10212  0.61480  1.0000
  H   H1805     1.0  0.67532  0.09324  0.62252  1.0000
  H   H1806     1.0  0.68767  0.17442  0.60217  1.0000
  H   H1807     1.0  0.69716  0.33135  0.56164  1.0000
  H   H1808     1.0  0.55802  0.29350  0.50433  1.0000
  H   H1809     1.0  0.51227  0.30786  0.46342  1.0000
  H   H1810     1.0  0.70710  0.04679  0.57351  1.0000
  H   H1811     1.0  0.69404  0.08900  0.58834  1.0000
  C   C2244     1.0  0.51763  0.26685  0.63237  1.0000
  C   C2245     1.0  0.57714  0.44160  0.59229  1.0000
  H   H1812     1.0  0.71849  0.18241  0.63151  1.0000
  H   H1813     1.0  0.72908  0.02813  0.50405  1.0000
  C   C2246     1.0  0.56399  0.22728  0.53744  1.0000
  H   H1814     1.0  0.68490  0.28518  0.55908  1.0000
  H   H1815     1.0  0.59125  0.38571  0.56664  1.0000
  C   C2247     1.0  0.55553  0.27307  0.54843  1.0000
  C   C2248     1.0  0.75350  0.00291  0.50975  1.0000
  H   H1816     1.0  0.64928  0.26454  0.66170  1.0000
  C   C2249     1.0  0.56690  0.44238  0.55021  1.0000
  Fe  Fe155     1.0  0.53438  0.38503  0.65155  1.0000
  C   C2250     1.0  0.55838  0.44174  0.58722  1.0000
  C   C2251     1.0  0.74396  0.19164  0.58669  1.0000
  C   C2252     1.0  0.71589  0.98587  0.55312  1.0000
  H   H1817     1.0  0.56160  0.31667  0.65622  1.0000
  H   H1818     1.0  0.59386  0.24043  0.65182  1.0000
  H   H1819     1.0  0.75578  0.05456  0.61024  1.0000
  C   C2253     1.0  0.69847  0.99309  0.56172  1.0000
  C   C2254     1.0  0.73649  0.33619  0.35147  1.0000
  C   C2255     1.0  0.73734  0.38443  0.34480  1.0000
  H   H1820     1.0  0.70551  0.98978  0.50115  1.0000
  H   H1821     1.0  0.74745  0.16275  0.56164  1.0000
  H   H1822     1.0  0.75699  0.42095  0.50470  1.0000
  C   C2256     1.0  0.58567  0.44222  0.55532  1.0000
  C   C2257     1.0  0.51515  0.08354  0.33237  1.0000
  H   H1823     1.0  0.73684  0.40473  0.35105  1.0000
  C   C2258     1.0  0.60846  0.16390  0.65691  1.0000
  C   C2259     1.0  0.73028  0.14752  0.58694  1.0000
  C   C2260     1.0  0.75822  0.34776  0.50048  1.0000
  H   H1824     1.0  0.72811  0.12871  0.57887  1.0000
  C   C2261     1.0  0.50836  0.21943  0.38465  1.0000
  H   H1825     1.0  0.67483  0.00266  0.51656  1.0000
  S   S304      1.0  0.74610  0.30803  0.47302  1.0000
  C   C2262     1.0  0.51521  0.27567  0.57069  1.0000
  C   C2263     1.0  0.72471  0.31749  0.56942  1.0000
  H   H1826     1.0  0.67014  0.00441  0.55531  1.0000
  S   S305      1.0  0.72659  0.97703  0.61182  1.0000
  C   C2264     1.0  0.51404  0.43555  0.58134  1.0000
  C   C2265     1.0  0.51645  0.40992  0.59066  1.0000
  C   C2266     1.0  0.51340  0.31293  0.51666  1.0000
  H   H1827     1.0  0.75350  0.44827  0.33728  1.0000
  H   H1828     1.0  0.51485  0.20385  0.48850  1.0000
  C   C2267     1.0  0.50831  0.09837  0.34964  1.0000
  C   C2268     1.0  0.74022  0.45331  0.33065  1.0000
  Fe  Fe156     1.0  0.52588  0.40670  0.69542  1.0000
  Fe  Fe157     1.0  0.70521  0.14841  0.67598  1.0000
  C   C2269     1.0  0.57317  0.10617  0.68656  1.0000
  S   S306      1.0  0.54100  0.44558  0.68863  1.0000
  S   S307      1.0  0.54901  0.37999  0.68201  1.0000
  C   C2270     1.0  0.74376  0.00012  0.72020  1.0000
  C   C2271     1.0  0.53396  0.29576  0.69216  1.0000
  C   C2272     1.0  0.74662  0.16116  0.82963  1.0000
  Fe  Fe158     1.0  0.70086  0.19888  0.70956  1.0000
  S   S308      1.0  0.72070  0.18906  0.68265  1.0000
  S   S309      1.0  0.70513  0.21560  0.74282  1.0000
  Fe  Fe159     1.0  0.66737  0.18343  0.68337  1.0000
  C   C2273     1.0  0.72839  0.12173  0.86676  1.0000
  C   C2274     1.0  0.58681  0.27810  0.76876  1.0000
  S   S310      1.0  0.68582  0.16019  0.70514  1.0000
  S   S311      1.0  0.68061  0.22287  0.68988  1.0000
  H   H1829     1.0  0.71665  0.26295  0.85617  1.0000
  C   C2275     1.0  0.73084  0.13219  0.68178  1.0000
  H   H1830     1.0  0.75136  0.44050  0.68584  1.0000
  H   H1831     1.0  0.51165  0.26920  0.68563  1.0000
  C   C2276     1.0  0.58896  0.21450  0.67856  1.0000
  H   H1832     1.0  0.67320  0.29302  0.68512  1.0000
  C   C2277     1.0  0.75190  0.39293  0.72477  1.0000
  S   S312      1.0  0.51411  0.40257  0.72918  1.0000
  H   H1833     1.0  0.51021  0.36684  0.97616  1.0000
  C   C2278     1.0  0.55238  0.21327  0.66524  1.0000
  C   C2279     1.0  0.73943  0.20721  0.97275  1.0000
  C   C2280     1.0  0.71896  0.24275  0.86243  1.0000
  H   H1834     1.0  0.74636  0.10643  0.98118  1.0000
  C   C2281     1.0  0.54095  0.33814  0.78001  1.0000
  C   C2282     1.0  0.54738  0.31248  0.77322  1.0000
  C   C2283     1.0  0.54352  0.28977  0.78581  1.0000
  C   C2284     1.0  0.73620  0.24411  0.79067  1.0000
  C   C2285     1.0  0.59566  0.24516  0.73417  1.0000
  C   C2286     1.0  0.54942  0.12749  0.71807  1.0000
  C   C2287     1.0  0.57621  0.19819  0.68910  1.0000
  C   C2288     1.0  0.72138  0.23565  0.77831  1.0000
  C   C2289     1.0  0.72451  0.22554  0.75780  1.0000
  C   C2290     1.0  0.74276  0.22395  0.74987  1.0000
  H   H1835     1.0  0.60804  0.25504  0.78475  1.0000
  H   H1836     1.0  0.66175  0.27029  0.74911  1.0000
  H   H1837     1.0  0.70737  0.23696  0.78469  1.0000
  H   H1838     1.0  0.52593  0.36078  0.80403  1.0000
  H   H1839     1.0  0.70393  0.01027  0.69294  1.0000
  H   H1840     1.0  0.50957  0.20969  0.68493  1.0000
  H   H1841     1.0  0.73286  0.08824  0.88794  1.0000
  C   C2291     1.0  0.60510  0.24142  0.75292  1.0000
  C   C2292     1.0  0.58168  0.26518  0.73270  1.0000
  C   C2293     1.0  0.72292  0.17655  0.95079  1.0000
  H   H1842     1.0  0.54301  0.35607  0.77063  1.0000
  C   C2294     1.0  0.66395  0.36186  0.67219  1.0000
  H   H1843     1.0  0.61588  0.22579  0.75400  1.0000
  H   H1844     1.0  0.54790  0.26971  0.78083  1.0000
  H   H1845     1.0  0.55594  0.32012  0.70287  1.0000
  C   C2295     1.0  0.75444  0.24247  0.78273  1.0000
  P   P75       1.0  0.63858  0.32033  0.67299  1.0000
  H   H1846     1.0  0.57634  0.28029  0.67749  1.0000
  H   H1847     1.0  0.53556  0.30219  0.67597  1.0000
  S   S313      1.0  0.53879  0.00330  0.67305  1.0000
  H   H1848     1.0  0.57751  0.45662  0.72252  1.0000
  H   H1849     1.0  0.73352  0.25200  0.80629  1.0000
  S   S314      1.0  0.63663  0.17557  0.68346  1.0000
  H   H1850     1.0  0.50899  0.34426  0.72171  1.0000
  H   H1851     1.0  0.72372  0.25661  0.89386  1.0000
  H   H1852     1.0  0.75342  0.98439  0.72529  1.0000
  H   H1853     1.0  0.70963  0.05712  0.70241  1.0000
  H   H1854     1.0  0.62989  0.29031  0.74674  1.0000
  C   C2296     1.0  0.67628  0.36706  0.76484  1.0000
  C   C2297     1.0  0.66416  0.36072  0.74893  1.0000
  C   C2298     1.0  0.67120  0.35140  0.72961  1.0000
  C   C2299     1.0  0.69033  0.34825  0.72616  1.0000
  C   C2300     1.0  0.70268  0.35478  0.74199  1.0000
  C   C2301     1.0  0.69545  0.36424  0.76140  1.0000
  P   P76       1.0  0.72748  0.35235  0.73695  1.0000
  C   C2302     1.0  0.73468  0.38121  0.72147  1.0000
  C   C2303     1.0  0.74126  0.37462  0.77355  1.0000
  H   H1855     1.0  0.71313  0.29732  0.73894  1.0000
  H   H1856     1.0  0.74430  0.30729  0.76174  1.0000
  C   C2304     1.0  0.54619  0.20523  0.73236  1.0000
  H   H1857     1.0  0.71112  0.17229  0.94124  1.0000
  H   H1858     1.0  0.70069  0.07214  0.88556  1.0000
  H   H1859     1.0  0.74021  0.22680  0.98018  1.0000
  H   H1860     1.0  0.68757  0.13691  0.84294  1.0000
  C   C2305     1.0  0.50861  0.42063  0.99126  1.0000
  C   C2306     1.0  0.72983  0.41205  0.69205  1.0000
  C   C2307     1.0  0.72383  0.39072  0.70478  1.0000
  H   H1861     1.0  0.61309  0.36675  0.73363  1.0000
  C   C2308     1.0  0.53119  0.34102  0.79913  1.0000
  H   H1862     1.0  0.54460  0.36052  0.73328  1.0000
  C   C2309     1.0  0.52744  0.31834  0.81148  1.0000
  H   H1863     1.0  0.73608  0.13739  0.94580  1.0000
  C   C2310     1.0  0.70997  0.31432  0.66469  1.0000
  H   H1864     1.0  0.67086  0.37432  0.77987  1.0000
  H   H1865     1.0  0.64932  0.36311  0.75154  1.0000
  H   H1866     1.0  0.66182  0.34672  0.71725  1.0000
  H   H1867     1.0  0.69545  0.34091  0.71106  1.0000
  H   H1868     1.0  0.70445  0.36943  0.77400  1.0000
  C   C2311     1.0  0.75371  0.18768  0.97520  1.0000
  H   H1869     1.0  0.72002  0.25656  0.71768  1.0000
  H   H1870     1.0  0.53270  0.99756  0.98198  1.0000
  H   H1871     1.0  0.71639  0.22364  0.83253  1.0000
  C   C2312     1.0  0.51629  0.18484  0.72888  1.0000
  C   C2313     1.0  0.72295  0.09890  0.87811  1.0000
  H   H1872     1.0  0.71323  0.21692  0.95860  1.0000
  P   P77       1.0  0.72304  0.16553  0.83947  1.0000
  H   H1873     1.0  0.72155  0.41882  0.67892  1.0000
  H   H1874     1.0  0.71099  0.38133  0.70105  1.0000
  C   C2314     1.0  0.61404  0.31928  0.66835  1.0000
  C   C2315     1.0  0.52934  0.27949  0.73397  1.0000
  C   C2316     1.0  0.75777  0.41446  0.71214  1.0000
  H   H1875     1.0  0.60328  0.21440  0.68334  1.0000
  C   C2317     1.0  0.74958  0.37356  0.79319  1.0000
  C   C2318     1.0  0.64563  0.35459  0.67692  1.0000
  C   C2319     1.0  0.71594  0.11952  0.69539  1.0000
  H   H1876     1.0  0.51936  0.32059  0.82595  1.0000
  H   H1877     1.0  0.71819  0.11602  0.71194  1.0000
  H   H1878     1.0  0.68766  0.10076  0.69501  1.0000
  C   C2320     1.0  0.74081  0.27527  0.69829  1.0000
  C   C2321     1.0  0.70486  0.08986  0.87675  1.0000
  C   C2322     1.0  0.73695  0.15688  0.95337  1.0000
  S   S315      1.0  0.72538  0.08426  0.66626  1.0000
  C   C2323     1.0  0.59814  0.36532  0.73381  1.0000
  H   H1879     1.0  0.75743  0.42073  0.85921  1.0000
  H   H1880     1.0  0.60336  0.15127  0.66957  1.0000
  C   C2324     1.0  0.56914  0.09081  0.70450  1.0000
  C   C2325     1.0  0.75226  0.16235  0.96559  1.0000
  H   H1881     1.0  0.59856  0.32450  0.74512  1.0000
  H   H1882     1.0  0.53992  0.13510  0.73018  1.0000
  C   C2326     1.0  0.72284  0.23921  0.88369  1.0000
  C   C2327     1.0  0.72633  0.21326  0.89167  1.0000
  C   C2328     1.0  0.72613  0.19084  0.87841  1.0000
  H   H1883     1.0  0.57456  0.26771  0.71800  1.0000
  H   H1884     1.0  0.56802  0.14337  0.66996  1.0000
  C   C2329     1.0  0.72344  0.29815  0.72631  1.0000
  C   C2330     1.0  0.70790  0.17159  0.81767  1.0000
  C   C2331     1.0  0.71327  0.16318  0.79734  1.0000
  C   C2332     1.0  0.70137  0.16755  0.78058  1.0000
  C   C2333     1.0  0.68413  0.18050  0.78391  1.0000
  C   C2334     1.0  0.67864  0.18886  0.80410  1.0000
  C   C2335     1.0  0.69045  0.18435  0.82096  1.0000
  H   H1885     1.0  0.51021  0.99760  0.92003  1.0000
  C   C2336     1.0  0.53408  0.18990  0.72057  1.0000
  C   C2337     1.0  0.72223  0.19419  0.85701  1.0000
  C   C2338     1.0  0.58980  0.34130  0.74019  1.0000
  H   H1886     1.0  0.51804  0.21977  0.77474  1.0000
  H   H1887     1.0  0.56009  0.20902  0.72669  1.0000
  C   C2339     1.0  0.72413  0.20168  0.96053  1.0000
  H   H1888     1.0  0.68330  0.27208  0.71842  1.0000
  H   H1889     1.0  0.73007  0.21067  0.90798  1.0000
  H   H1890     1.0  0.72964  0.17116  0.88488  1.0000
  C   C2340     1.0  0.74672  0.42405  0.69582  1.0000
  C   C2341     1.0  0.60069  0.25791  0.77020  1.0000
  C   C2342     1.0  0.73922  0.35087  0.76184  1.0000
  C   C2343     1.0  0.69763  0.12659  0.85265  1.0000
  H   H1891     1.0  0.70574  0.16165  0.76481  1.0000
  H   H1892     1.0  0.67522  0.18448  0.77069  1.0000
  H   H1893     1.0  0.66530  0.19900  0.80663  1.0000
  H   H1894     1.0  0.68600  0.19083  0.83655  1.0000
  C   C2344     1.0  0.58719  0.38761  0.72774  1.0000
  C   C2345     1.0  0.65781  0.40620  0.68719  1.0000
  C   C2346     1.0  0.63974  0.39883  0.69251  1.0000
  C   C2347     1.0  0.63364  0.37316  0.68737  1.0000
  C   C2348     1.0  0.57705  0.28169  0.75006  1.0000
  C   C2349     1.0  0.74632  0.32232  0.70565  1.0000
  H   H1895     1.0  0.59358  0.40619  0.72261  1.0000
  C   C2350     1.0  0.64535  0.30277  0.69663  1.0000
  C   C2351     1.0  0.71592  0.01439  0.70217  1.0000
  C   C2352     1.0  0.72825  0.99361  0.70845  1.0000
  C   C2353     1.0  0.55733  0.10150  0.72027  1.0000
  H   H1896     1.0  0.53019  0.27512  0.81423  1.0000
  C   C2354     1.0  0.71908  0.04118  0.70756  1.0000
  P   P78       1.0  0.54167  0.17517  0.69575  1.0000
  C   C2355     1.0  0.66349  0.29211  0.69832  1.0000
  C   C2356     1.0  0.66933  0.28051  0.71723  1.0000
  C   C2357     1.0  0.65717  0.27957  0.73458  1.0000
  C   C2358     1.0  0.63922  0.29071  0.73318  1.0000
  C   C2359     1.0  0.63338  0.30252  0.71434  1.0000
  C   C2360     1.0  0.52041  0.27719  0.69761  1.0000
  H   H1897     1.0  0.59921  0.23245  0.72077  1.0000
  H   H1898     1.0  0.55400  0.08935  0.73400  1.0000
  H   H1899     1.0  0.52296  0.02257  0.95002  1.0000
  H   H1900     1.0  0.58205  0.09771  0.67414  1.0000
  H   H1901     1.0  0.74387  0.13739  0.68857  1.0000
  C   C2361     1.0  0.73473  0.04759  0.71883  1.0000
  H   H1902     1.0  0.66237  0.42635  0.69065  1.0000
  H   H1903     1.0  0.63020  0.41334  0.69997  1.0000
  H   H1904     1.0  0.61950  0.36801  0.69142  1.0000
  C   C2362     1.0  0.74567  0.32606  0.77017  1.0000
  H   H1905     1.0  0.54875  0.05910  0.67024  1.0000
  H   H1906     1.0  0.71032  0.32250  0.68035  1.0000
  H   H1907     1.0  0.68389  0.39343  0.67281  1.0000
  C   C2363     1.0  0.55776  0.19744  0.68255  1.0000
  H   H1908     1.0  0.74548  0.21631  0.73418  1.0000
  H   H1909     1.0  0.73738  0.06853  0.72234  1.0000
  Fe  Fe160     1.0  0.56271  0.41865  0.67302  1.0000
  C   C2364     1.0  0.56791  0.38591  0.72811  1.0000
  H   H1910     1.0  0.58373  0.29095  0.78221  1.0000
  H   H1911     1.0  0.55933  0.40325  0.72363  1.0000
  H   H1912     1.0  0.72667  0.15350  0.79427  1.0000
  C   C2365     1.0  0.54046  0.21582  0.75185  1.0000
  H   H1913     1.0  0.75103  0.39184  0.80227  1.0000
  C   C2366     1.0  0.55957  0.36166  0.73376  1.0000
  S   S316      1.0  0.51010  0.40947  0.66501  1.0000
  H   H1914     1.0  0.74243  0.12843  0.86806  1.0000
  C   C2367     1.0  0.71583  0.13579  0.85391  1.0000
  C   C2368     1.0  0.69815  0.11061  0.68551  1.0000
  C   C2369     1.0  0.72739  0.27491  0.71443  1.0000
  H   H1915     1.0  0.57490  0.07042  0.70597  1.0000
  H   H1916     1.0  0.75376  0.34048  0.70185  1.0000
  C   C2370     1.0  0.52181  0.00076  0.95083  1.0000
  C   C2371     1.0  0.69220  0.10371  0.86403  1.0000
  H   H1917     1.0  0.54994  0.22750  0.76085  1.0000
  H   H1918     1.0  0.62983  0.44293  0.66515  1.0000
  H   H1919     1.0  0.73425  0.45845  0.96292  1.0000
  C   C2372     1.0  0.54536  0.30604  0.70753  1.0000
  C   C2373     1.0  0.53357  0.29271  0.80482  1.0000
  C   C2374     1.0  0.66990  0.38772  0.67705  1.0000
  H   H1920     1.0  0.58092  0.18553  0.70196  1.0000
  H   H1921     1.0  0.73617  0.39395  0.76763  1.0000
  S   S317      1.0  0.59338  0.42551  0.67583  1.0000
  C   C2375     1.0  0.54319  0.29786  0.72859  1.0000
  H   H1922     1.0  0.74553  0.11756  0.82678  1.0000
  C   C2376     1.0  0.73284  0.32210  0.72195  1.0000
  C   C2377     1.0  0.75387  0.13528  0.82462  1.0000
  C   C2378     1.0  0.75024  0.29898  0.69386  1.0000
  C   C2379     1.0  0.57040  0.33922  0.74011  1.0000
  P   P79       1.0  0.55939  0.30818  0.74806  1.0000
  C   C2380     1.0  0.52734  0.98665  0.96881  1.0000
  C   C2381     1.0  0.72836  0.46619  0.97763  1.0000
  C   C2382     1.0  0.56530  0.13213  0.68431  1.0000
  C   C2383     1.0  0.51950  0.14486  0.66950  1.0000
  C   C2384     1.0  0.55336  0.14297  0.70004  1.0000
  C   C2385     1.0  0.71877  0.22038  0.84910  1.0000
  H   H1923     1.0  0.67816  0.09670  0.86298  1.0000
  C   C2386     1.0  0.51442  0.98681  0.93407  1.0000
  H   H1924     1.0  0.70643  0.27303  0.67531  1.0000
  H   H1925     1.0  0.61964  0.31173  0.71367  1.0000
  H   H1926     1.0  0.52705  0.27319  0.75008  1.0000
  C   C2387     1.0  0.71673  0.45020  0.99008  1.0000
  H   H1927     1.0  0.52958  0.12845  0.67088  1.0000
  C   C2388     1.0  0.74704  0.02704  0.72522  1.0000
  C   C2389     1.0  0.52170  0.16968  0.67973  1.0000
  C   C2390     1.0  0.75591  0.34882  0.80135  1.0000
  C   C2391     1.0  0.51051  0.19579  0.74825  1.0000
  H   H1928     1.0  0.71366  0.42994  0.98502  1.0000
  H   H1929     1.0  0.74369  0.25723  0.68905  1.0000
  C   C2392     1.0  0.51804  0.26916  0.71853  1.0000
  H   H1930     1.0  0.51813  0.32056  0.96415  1.0000
  H   H1931     1.0  0.51728  0.42400  0.97743  1.0000
  C   C2393     1.0  0.52257  0.21134  0.75971  1.0000
  H   H1932     1.0  0.75224  0.20411  0.82882  1.0000
  H   H1933     1.0  0.60996  0.28088  0.68420  1.0000
  C   C2394     1.0  0.58457  0.29683  0.67164  1.0000
  C   C2395     1.0  0.60353  0.29749  0.67566  1.0000
  C   C2396     1.0  0.75397  0.32514  0.78983  1.0000
  H   H1934     1.0  0.67369  0.34764  0.66474  1.0000
  C   C2397     1.0  0.75756  0.23234  0.76225  1.0000
  C   C2398     1.0  0.75758  0.18380  0.82580  1.0000
  Fe  Fe161     1.0  0.52950  0.95402  0.11833  1.0000
  H   H1935     1.0  0.57690  0.62287  0.21495  1.0000
  C   C2399     1.0  0.74399  0.50027  0.28013  1.0000
  Fe  Fe162     1.0  0.53460  0.89547  0.10268  1.0000
  S   S318      1.0  0.54884  0.91037  0.07310  1.0000
  S   S319      1.0  0.53324  0.84916  0.10351  1.0000
  Fe  Fe163     1.0  0.56403  0.93843  0.09391  1.0000
  S   S320      1.0  0.59515  0.94404  0.09172  1.0000
  Fe  Fe164     1.0  0.52631  0.94277  0.07154  1.0000
  S   S321      1.0  0.55138  0.92157  0.12333  1.0000
  Fe  Fe165     1.0  0.52855  0.71259  0.17422  1.0000
  S   S322      1.0  0.54565  0.69935  0.20184  1.0000
  Fe  Fe166     1.0  0.52802  0.65454  0.15803  1.0000
  S   S323      1.0  0.54501  0.63790  0.18448  1.0000
  C   C2400     1.0  0.64255  0.55730  0.02562  1.0000
  Fe  Fe167     1.0  0.52658  0.66406  0.20557  1.0000
  Fe  Fe168     1.0  0.56238  0.67413  0.17865  1.0000
  S   S324      1.0  0.59372  0.66972  0.18089  1.0000
  S   S325      1.0  0.54667  0.68951  0.15082  1.0000
  Fe  Fe169     1.0  0.67976  0.66522  0.10514  1.0000
  S   S326      1.0  0.69224  0.66728  0.13684  1.0000
  S   S327      1.0  0.64848  0.66461  0.10081  1.0000
  Fe  Fe170     1.0  0.71793  0.66349  0.08282  1.0000
  S   S328      1.0  0.73284  0.66634  0.11354  1.0000
  S   S329      1.0  0.73484  0.66244  0.05180  1.0000
  Fe  Fe171     1.0  0.71251  0.63561  0.12482  1.0000
  S   S330      1.0  0.72020  0.60192  0.14740  1.0000
  Fe  Fe172     1.0  0.71127  0.69833  0.12299  1.0000
  S   S331      1.0  0.71614  0.73262  0.14646  1.0000
  S   S332      1.0  0.69875  0.63098  0.09386  1.0000
  S   S333      1.0  0.69774  0.69783  0.09140  1.0000
  Fe  Fe173     1.0  0.70496  0.93758  0.20625  1.0000
  S   S334      1.0  0.72449  0.92835  0.17868  1.0000
  S   S335      1.0  0.71179  0.94052  0.24144  1.0000
  Fe  Fe174     1.0  0.67105  0.94046  0.17774  1.0000
  S   S336      1.0  0.68820  0.93217  0.14889  1.0000
  S   S337      1.0  0.63988  0.94765  0.17671  1.0000
  Fe  Fe175     1.0  0.70288  0.89955  0.16748  1.0000
  S   S338      1.0  0.70757  0.86236  0.14613  1.0000
  Fe  Fe176     1.0  0.70803  0.96119  0.16218  1.0000
  C   C2401     1.0  0.52028  0.81027  0.15886  1.0000
  S   S339      1.0  0.68434  0.90643  0.19614  1.0000
  C   C2402     1.0  0.53149  0.89761  0.17662  1.0000
  H   H1936     1.0  0.59950  0.90585  0.18209  1.0000
  H   H1937     1.0  0.56131  0.57913  0.06865  1.0000
  C   C2403     1.0  0.54612  0.51008  0.20643  1.0000
  H   H1938     1.0  0.54987  0.92028  0.21579  1.0000
  C   C2404     1.0  0.65944  0.49645  0.12143  1.0000
  C   C2405     1.0  0.68386  0.58783  0.03814  1.0000
  C   C2406     1.0  0.66809  0.55829  0.26289  1.0000
  C   C2407     1.0  0.75521  0.86174  0.24492  1.0000
  H   H1939     1.0  0.54515  0.62393  0.07051  1.0000
  H   H1940     1.0  0.63788  0.52121  0.04366  1.0000
  C   C2408     1.0  0.69623  0.53355  0.03936  1.0000
  C   C2409     1.0  0.71855  0.56737  0.14127  1.0000
  C   C2410     1.0  0.71795  0.54865  0.15785  1.0000
  C   C2411     1.0  0.71667  0.52087  0.15389  1.0000
  C   C2412     1.0  0.71605  0.51151  0.13328  1.0000
  C   C2413     1.0  0.71667  0.53021  0.11661  1.0000
  C   C2414     1.0  0.71786  0.55813  0.12053  1.0000
  H   H1941     1.0  0.71827  0.55571  0.17388  1.0000
  H   H1942     1.0  0.71630  0.50669  0.16683  1.0000
  H   H1943     1.0  0.71596  0.52302  0.10070  1.0000
  H   H1944     1.0  0.71831  0.57241  0.10761  1.0000
  C   C2415     1.0  0.71241  0.76854  0.14586  1.0000
  C   C2416     1.0  0.70927  0.78255  0.16491  1.0000
  C   C2417     1.0  0.70735  0.81111  0.16536  1.0000
  C   C2418     1.0  0.70879  0.82615  0.14671  1.0000
  C   C2419     1.0  0.71171  0.81209  0.12765  1.0000
  C   C2420     1.0  0.71353  0.78355  0.12721  1.0000
  H   H1945     1.0  0.70852  0.77124  0.17949  1.0000
  H   H1946     1.0  0.70512  0.82149  0.18015  1.0000
  H   H1947     1.0  0.71294  0.82343  0.11313  1.0000
  H   H1948     1.0  0.71630  0.77322  0.11250  1.0000
  C   C2421     1.0  0.51781  0.56009  0.05688  1.0000
  C   C2422     1.0  0.73403  0.58851  0.02317  1.0000
  C   C2423     1.0  0.73024  0.61001  0.03724  1.0000
  C   C2424     1.0  0.73871  0.63486  0.03418  1.0000
  H   H1949     1.0  0.60667  0.61208  0.13002  1.0000
  H   H1950     1.0  0.55464  0.86076  0.02172  1.0000
  H   H1951     1.0  0.72094  0.60725  0.05060  1.0000
  H   H1952     1.0  0.55329  0.62887  0.27735  1.0000
  C   C2425     1.0  0.60841  0.66784  0.15826  1.0000
  C   C2426     1.0  0.60156  0.66850  0.13785  1.0000
  C   C2427     1.0  0.61393  0.66785  0.12033  1.0000
  C   C2428     1.0  0.63322  0.66660  0.12309  1.0000
  C   C2429     1.0  0.63993  0.66570  0.14352  1.0000
  C   C2430     1.0  0.62762  0.66589  0.16093  1.0000
  H   H1953     1.0  0.58675  0.66952  0.13555  1.0000
  H   H1954     1.0  0.60853  0.66830  0.10462  1.0000
  H   H1955     1.0  0.65463  0.66440  0.14601  1.0000
  H   H1956     1.0  0.63304  0.66469  0.17659  1.0000
  H   H1957     1.0  0.72761  0.56935  0.02584  1.0000
  C   C2431     1.0  0.60743  0.94570  0.11541  1.0000
  C   C2432     1.0  0.59823  0.94922  0.13484  1.0000
  C   C2433     1.0  0.60836  0.94999  0.15344  1.0000
  C   C2434     1.0  0.62777  0.94711  0.15284  1.0000
  C   C2435     1.0  0.63700  0.94404  0.13338  1.0000
  C   C2436     1.0  0.62687  0.94347  0.11475  1.0000
  H   H1958     1.0  0.58331  0.95166  0.13555  1.0000
  H   H1959     1.0  0.60107  0.95289  0.16834  1.0000
  H   H1960     1.0  0.65192  0.94204  0.13264  1.0000
  H   H1961     1.0  0.63409  0.94085  0.09979  1.0000
  P   P80       1.0  0.70495  0.49902  0.04087  1.0000
  S   S340      1.0  0.51071  0.94670  0.04044  1.0000
  H   H1962     1.0  0.52205  0.59882  0.21315  1.0000
  H   H1963     1.0  0.50901  0.91039  0.00121  1.0000
  H   H1964     1.0  0.72928  0.52180  0.00860  1.0000
  H   H1965     1.0  0.71299  0.94197  0.10988  1.0000
  C   C2437     1.0  0.62937  0.59887  0.04012  1.0000
  C   C2438     1.0  0.62211  0.58449  0.05726  1.0000
  C   C2439     1.0  0.52207  0.59219  0.13540  1.0000
  C   C2440     1.0  0.70162  0.55470  0.26205  1.0000
  H   H1966     1.0  0.54774  0.50639  0.26516  1.0000
  C   C2441     1.0  0.75715  0.57774  0.26063  1.0000
  C   C2442     1.0  0.65144  0.52590  0.09227  1.0000
  C   C2443     1.0  0.66477  0.51396  0.10526  1.0000
  H   H1967     1.0  0.56425  0.51457  0.03259  1.0000
  C   C2444     1.0  0.50922  0.50284  0.00579  1.0000
  C   C2445     1.0  0.69463  0.67428  0.02242  1.0000
  H   H1968     1.0  0.51168  0.62812  0.06395  1.0000
  C   C2446     1.0  0.73932  0.95570  0.00040  1.0000
  C   C2447     1.0  0.73177  0.47722  0.24941  1.0000
  C   C2448     1.0  0.73208  0.60228  0.27876  1.0000
  H   H1969     1.0  0.68606  0.60431  0.22887  1.0000
  C   C2449     1.0  0.55536  0.61769  0.26285  1.0000
  H   H1970     1.0  0.65605  0.58899  0.24294  1.0000
  H   H1971     1.0  0.61605  0.92839  0.21011  1.0000
  C   C2450     1.0  0.51930  0.88302  0.18941  1.0000
  C   C2451     1.0  0.52534  0.58192  0.15545  1.0000
  C   C2452     1.0  0.57671  0.48867  0.20526  1.0000
  H   H1972     1.0  0.67236  0.95516  0.06235  1.0000
  H   H1973     1.0  0.52626  0.59551  0.16847  1.0000
  H   H1974     1.0  0.69759  0.67871  0.03866  1.0000
  C   C2453     1.0  0.52255  0.54599  0.12190  1.0000
  C   C2454     1.0  0.53756  0.60612  0.06654  1.0000
  C   C2455     1.0  0.62528  0.55639  0.05885  1.0000
  H   H1975     1.0  0.71583  0.94830  0.28601  1.0000
  H   H1976     1.0  0.57309  0.60498  0.13620  1.0000
  S   S341      1.0  0.51986  0.62744  0.13117  1.0000
  H   H1977     1.0  0.67021  0.48421  0.02217  1.0000
  C   C2456     1.0  0.51853  0.60839  0.06295  1.0000
  C   C2457     1.0  0.69314  0.54649  0.01998  1.0000
  C   C2458     1.0  0.56852  0.61439  0.22761  1.0000
  H   H1978     1.0  0.66747  0.65948  0.02969  1.0000
  C   C2459     1.0  0.68601  0.57467  0.05743  1.0000
  H   H1979     1.0  0.69554  0.53595  0.00528  1.0000
  C   C2460     1.0  0.60929  0.90955  0.21343  1.0000
  C   C2461     1.0  0.73916  0.58934  0.26055  1.0000
  C   C2462     1.0  0.54762  0.58003  0.24063  1.0000
  C   C2463     1.0  0.55105  0.52560  0.22377  1.0000
  H   H1980     1.0  0.64490  0.59639  0.01084  1.0000
  C   C2464     1.0  0.51265  0.58263  0.21035  1.0000
  C   C2465     1.0  0.75422  0.49353  0.08568  1.0000
  H   H1981     1.0  0.72099  0.68753  0.01114  1.0000
  C   C2466     1.0  0.60002  0.59565  0.12225  1.0000
  C   C2467     1.0  0.72062  0.96932  0.08492  1.0000
  H   H1982     1.0  0.71809  0.68786  0.19430  1.0000
  C   C2468     1.0  0.56652  0.62814  0.24668  1.0000
  H   H1983     1.0  0.72094  0.95609  0.02732  1.0000
  H   H1984     1.0  0.73272  0.49760  0.20318  1.0000
  C   C2469     1.0  0.58276  0.55321  0.10221  1.0000
  C   C2470     1.0  0.70246  0.57566  0.24711  1.0000
  S   S342      1.0  0.51997  0.75771  0.17360  1.0000
  C   C2471     1.0  0.73747  0.51818  0.20389  1.0000
  H   H1985     1.0  0.71425  0.54504  0.26766  1.0000
  C   C2472     1.0  0.64472  0.48434  0.21984  1.0000
  H   H1986     1.0  0.58392  0.54558  0.05213  1.0000
  S   S343      1.0  0.50832  0.67873  0.17929  1.0000
  H   H1987     1.0  0.65031  0.54672  0.01327  1.0000
  H   H1988     1.0  0.52658  0.91563  0.16842  1.0000
  H   H1989     1.0  0.71234  0.60180  0.19571  1.0000
  C   C2473     1.0  0.52062  0.57410  0.11861  1.0000
  P   P81       1.0  0.53494  0.54973  0.23600  1.0000
  C   C2474     1.0  0.60013  0.89642  0.19744  1.0000
  C   C2475     1.0  0.67771  0.66324  0.01736  1.0000
  H   H1990     1.0  0.71814  0.61096  0.27919  1.0000
  H   H1991     1.0  0.74156  0.50983  0.29524  1.0000
  H   H1992     1.0  0.68583  0.58401  0.00445  1.0000
  H   H1993     1.0  0.66982  0.48733  0.13155  1.0000
  H   H1994     1.0  0.62492  0.58201  0.10599  1.0000
  C   C2476     1.0  0.52566  0.85977  0.19989  1.0000
  C   C2477     1.0  0.68589  0.58799  0.24024  1.0000
  C   C2478     1.0  0.52568  0.53592  0.14213  1.0000
  C   C2479     1.0  0.51104  0.51681  0.29871  1.0000
  C   C2480     1.0  0.60051  0.51351  0.06625  1.0000
  H   H1995     1.0  0.52932  0.54641  0.17451  1.0000
  H   H1996     1.0  0.68404  0.52945  0.28106  1.0000
  H   H1997     1.0  0.54370  0.53815  0.05980  1.0000
  C   C2481     1.0  0.54666  0.58084  0.06554  1.0000
  H   H1998     1.0  0.52104  0.85191  0.14804  1.0000
  H   H1999     1.0  0.52300  0.50766  0.00014  1.0000
  H   H2000     1.0  0.60123  0.86545  0.25356  1.0000
  H   H2001     1.0  0.57235  0.93231  0.24288  1.0000
  H   H2002     1.0  0.68308  0.58548  0.07193  1.0000
  H   H2003     1.0  0.61466  0.47665  0.07661  1.0000
  C   C2482     1.0  0.74933  0.88282  0.33002  1.0000
  C   C2483     1.0  0.52342  0.83093  0.14386  1.0000
  H   H2004     1.0  0.57582  0.53657  0.09507  1.0000
  C   C2484     1.0  0.52918  0.77620  0.13331  1.0000
  S   S344      1.0  0.52700  0.48296  0.04080  1.0000
  C   C2485     1.0  0.52759  0.50564  0.29035  1.0000
  C   C2486     1.0  0.72928  0.53627  0.21838  1.0000
  P   P82       1.0  0.72480  0.58693  0.23776  1.0000
  C   C2487     1.0  0.66879  0.57939  0.24822  1.0000
  C   C2488     1.0  0.72224  0.61923  0.22446  1.0000
  C   C2489     1.0  0.71584  0.62018  0.20377  1.0000
  C   C2490     1.0  0.74983  0.47515  0.24096  1.0000
  C   C2491     1.0  0.57540  0.50656  0.04214  1.0000
  C   C2492     1.0  0.56905  0.52260  0.23156  1.0000
  C   C2493     1.0  0.73224  0.96621  0.01945  1.0000
  C   C2494     1.0  0.55330  0.95718  0.19816  1.0000
  H   H2005     1.0  0.74528  0.61554  0.07964  1.0000
  H   H2006     1.0  0.69444  0.53806  0.07311  1.0000
  C   C2495     1.0  0.58112  0.59166  0.12573  1.0000
  H   H2007     1.0  0.71852  0.52902  0.22886  1.0000
  C   C2496     1.0  0.61028  0.57861  0.10861  1.0000
  H   H2008     1.0  0.61711  0.90845  0.24587  1.0000
  H   H2009     1.0  0.65484  0.55143  0.26886  1.0000
  H   H2010     1.0  0.51619  0.84836  0.20974  1.0000
  H   H2011     1.0  0.53254  0.51206  0.19974  1.0000
  C   C2497     1.0  0.74941  0.51823  0.07627  1.0000
  C   C2498     1.0  0.72699  0.64343  0.23423  1.0000
  C   C2499     1.0  0.60381  0.48542  0.06709  1.0000
  H   H2012     1.0  0.68229  0.93250  0.09534  1.0000
  H   H2013     1.0  0.69593  0.47411  0.08250  1.0000
  C   C2500     1.0  0.54409  0.85072  0.19721  1.0000
  C   C2501     1.0  0.55626  0.86483  0.18388  1.0000
  C   C2502     1.0  0.55001  0.88887  0.17424  1.0000
  P   P83       1.0  0.58025  0.85401  0.18085  1.0000
  C   C2503     1.0  0.59200  0.87137  0.20134  1.0000
  C   C2504     1.0  0.58285  0.81775  0.18347  1.0000
  C   C2505     1.0  0.59842  0.80609  0.19320  1.0000
  C   C2506     1.0  0.59983  0.77807  0.19615  1.0000
  C   C2507     1.0  0.58610  0.76141  0.18867  1.0000
  C   C2508     1.0  0.57101  0.77282  0.17816  1.0000
  C   C2509     1.0  0.56944  0.80085  0.17541  1.0000
  C   C2510     1.0  0.59198  0.86071  0.22185  1.0000
  C   C2511     1.0  0.58854  0.86173  0.15456  1.0000
  C   C2512     1.0  0.57656  0.85974  0.13758  1.0000
  C   C2513     1.0  0.58258  0.86662  0.11727  1.0000
  C   C2514     1.0  0.60057  0.87556  0.11374  1.0000
  C   C2515     1.0  0.61276  0.87672  0.13042  1.0000
  C   C2516     1.0  0.60694  0.86926  0.15070  1.0000
  C   C2517     1.0  0.72902  0.48993  0.26902  1.0000
  C   C2518     1.0  0.71324  0.48643  0.01569  1.0000
  H   H2014     1.0  0.51843  0.58178  0.10299  1.0000
  H   H2015     1.0  0.54871  0.83255  0.20534  1.0000
  H   H2016     1.0  0.55943  0.90076  0.16475  1.0000
  H   H2017     1.0  0.60939  0.81859  0.19866  1.0000
  H   H2018     1.0  0.61158  0.76925  0.20423  1.0000
  H   H2019     1.0  0.58715  0.73964  0.19084  1.0000
  H   H2020     1.0  0.56045  0.75991  0.17214  1.0000
  H   H2021     1.0  0.55773  0.80929  0.16707  1.0000
  H   H2022     1.0  0.58501  0.84206  0.22548  1.0000
  H   H2023     1.0  0.56245  0.85320  0.13998  1.0000
  H   H2024     1.0  0.57310  0.86564  0.10432  1.0000
  H   H2025     1.0  0.60495  0.88200  0.09813  1.0000
  H   H2026     1.0  0.62660  0.88406  0.12768  1.0000
  H   H2027     1.0  0.61672  0.86992  0.16331  1.0000
  C   C2519     1.0  0.67019  0.47640  0.03811  1.0000
  H   H2028     1.0  0.56478  0.52333  0.15065  1.0000
  C   C2520     1.0  0.54588  0.59376  0.25986  1.0000
  H   H2029     1.0  0.75664  0.53628  0.08027  1.0000
  H   H2030     1.0  0.53676  0.58667  0.27231  1.0000
  C   C2521     1.0  0.60161  0.55776  0.09801  1.0000
  C   C2522     1.0  0.64075  0.49083  0.12461  1.0000
  C   C2523     1.0  0.62737  0.50241  0.11154  1.0000
  C   C2524     1.0  0.63262  0.51990  0.09516  1.0000
  H   H2031     1.0  0.72923  0.68668  0.23094  1.0000
  P   P84       1.0  0.61496  0.53671  0.07982  1.0000
  H   H2032     1.0  0.70961  0.64534  0.17699  1.0000
  C   C2525     1.0  0.53205  0.79679  0.11822  1.0000
  C   C2526     1.0  0.74602  0.88271  0.25588  1.0000
  C   C2527     1.0  0.60101  0.87403  0.23786  1.0000
  H   H2033     1.0  0.74935  0.85397  0.23070  1.0000
  H   H2034     1.0  0.62134  0.49987  0.20318  1.0000
  C   C2528     1.0  0.70790  0.67946  0.00663  1.0000
  C   C2529     1.0  0.69143  0.94627  0.08714  1.0000
  H   H2035     1.0  0.73754  0.61409  0.31066  1.0000
  H   H2036     1.0  0.53121  0.75516  0.12905  1.0000
  C   C2530     1.0  0.63948  0.58527  0.02424  1.0000
  H   H2037     1.0  0.57313  0.64734  0.24867  1.0000
  C   C2531     1.0  0.55914  0.59039  0.22460  1.0000
  C   C2532     1.0  0.75354  0.89290  0.27417  1.0000
  C   C2533     1.0  0.52342  0.78281  0.15380  1.0000
  H   H2038     1.0  0.53472  0.48945  0.29869  1.0000
  C   C2534     1.0  0.56954  0.94619  0.23004  1.0000
  C   C2535     1.0  0.69231  0.54773  0.05804  1.0000
  S   S345      1.0  0.52831  0.50106  0.14722  1.0000
  H   H2039     1.0  0.59550  0.50158  0.22878  1.0000
  H   H2040     1.0  0.53640  0.79136  0.10238  1.0000
  H   H2041     1.0  0.55807  0.56682  0.11904  1.0000
  C   C2536     1.0  0.57872  0.97074  0.22863  1.0000
  C   C2537     1.0  0.58642  0.52396  0.05341  1.0000
  C   C2538     1.0  0.54669  0.86956  0.00901  1.0000
  C   C2539     1.0  0.74296  0.60410  0.29658  1.0000
  C   C2540     1.0  0.73481  0.51985  0.06222  1.0000
  C   C2541     1.0  0.59334  0.51281  0.15643  1.0000
  C   C2542     1.0  0.57732  0.52914  0.15830  1.0000
  C   C2543     1.0  0.57752  0.55314  0.16974  1.0000
  C   C2544     1.0  0.59378  0.56085  0.17937  1.0000
  C   C2545     1.0  0.60985  0.54419  0.17799  1.0000
  C   C2546     1.0  0.60960  0.52037  0.16610  1.0000
  P   P85       1.0  0.63138  0.55498  0.18868  1.0000
  C   C2547     1.0  0.64339  0.52881  0.20341  1.0000
  C   C2548     1.0  0.64521  0.56529  0.16624  1.0000
  C   C2549     1.0  0.66063  0.54949  0.15948  1.0000
  C   C2550     1.0  0.67123  0.55750  0.14209  1.0000
  C   C2551     1.0  0.66649  0.58099  0.13102  1.0000
  C   C2552     1.0  0.65075  0.59623  0.13712  1.0000
  C   C2553     1.0  0.64001  0.58833  0.15456  1.0000
  C   C2554     1.0  0.63507  0.50417  0.20838  1.0000
  H   H2042     1.0  0.57318  0.53448  0.24484  1.0000
  C   C2555     1.0  0.75167  0.52655  0.19029  1.0000
  C   C2556     1.0  0.67099  0.51345  0.22174  1.0000
  C   C2557     1.0  0.66137  0.53339  0.21037  1.0000
  C   C2558     1.0  0.62692  0.58202  0.20723  1.0000
  C   C2559     1.0  0.61539  0.57731  0.22486  1.0000
  C   C2560     1.0  0.61153  0.59790  0.23942  1.0000
  C   C2561     1.0  0.61900  0.62344  0.23635  1.0000
  C   C2562     1.0  0.63072  0.62818  0.21901  1.0000
  C   C2563     1.0  0.63491  0.60747  0.20464  1.0000
  C   C2564     1.0  0.71423  0.64488  0.19307  1.0000
  H   H2043     1.0  0.62692  0.62056  0.03906  1.0000
  H   H2044     1.0  0.56516  0.56606  0.17072  1.0000
  H   H2045     1.0  0.59378  0.58006  0.18745  1.0000
  H   H2046     1.0  0.62201  0.50771  0.16424  1.0000
  H   H2047     1.0  0.66452  0.53082  0.16738  1.0000
  H   H2048     1.0  0.68307  0.54523  0.13712  1.0000
  H   H2049     1.0  0.67497  0.58730  0.11771  1.0000
  H   H2050     1.0  0.64691  0.61412  0.12822  1.0000
  H   H2051     1.0  0.62779  0.60034  0.15906  1.0000
  C   C2565     1.0  0.72596  0.96074  0.27809  1.0000
  H   H2052     1.0  0.51049  0.54205  0.05283  1.0000
  C   C2566     1.0  0.53680  0.55785  0.06059  1.0000
  H   H2053     1.0  0.68506  0.51667  0.22657  1.0000
  H   H2054     1.0  0.66812  0.55217  0.20662  1.0000
  H   H2055     1.0  0.60922  0.55775  0.22722  1.0000
  H   H2056     1.0  0.60241  0.59426  0.25285  1.0000
  H   H2057     1.0  0.61562  0.63961  0.24733  1.0000
  H   H2058     1.0  0.63642  0.64803  0.21656  1.0000
  H   H2059     1.0  0.64430  0.61161  0.19162  1.0000
  C   C2567     1.0  0.71902  0.66882  0.20285  1.0000
  C   C2568     1.0  0.67782  0.76720  0.09008  1.0000
  C   C2569     1.0  0.67018  0.74906  0.07615  1.0000
  C   C2570     1.0  0.65411  0.73551  0.08195  1.0000
  C   C2571     1.0  0.64530  0.74077  0.10135  1.0000
  C   C2572     1.0  0.65243  0.75986  0.11508  1.0000
  C   C2573     1.0  0.66915  0.77227  0.10958  1.0000
  P   P86       1.0  0.64074  0.76729  0.13993  1.0000
  C   C2574     1.0  0.64672  0.80063  0.14874  1.0000
  C   C2575     1.0  0.61608  0.76604  0.13579  1.0000
  C   C2576     1.0  0.60571  0.78958  0.13077  1.0000
  C   C2577     1.0  0.58703  0.78788  0.12562  1.0000
  C   C2578     1.0  0.57859  0.76281  0.12564  1.0000
  C   C2579     1.0  0.58866  0.73945  0.13103  1.0000
  C   C2580     1.0  0.60735  0.74100  0.13593  1.0000
  C   C2581     1.0  0.65018  0.80528  0.17004  1.0000
  C   C2582     1.0  0.65629  0.83046  0.17652  1.0000
  C   C2583     1.0  0.65913  0.85106  0.16179  1.0000
  C   C2584     1.0  0.65551  0.84672  0.14065  1.0000
  C   C2585     1.0  0.64897  0.82183  0.13418  1.0000
  C   C2586     1.0  0.64842  0.74260  0.15909  1.0000
  C   C2587     1.0  0.66703  0.73380  0.15905  1.0000
  C   C2588     1.0  0.67344  0.71606  0.17463  1.0000
  C   C2589     1.0  0.66130  0.70700  0.19039  1.0000
  C   C2590     1.0  0.64272  0.71576  0.19060  1.0000
  C   C2591     1.0  0.63631  0.73342  0.17499  1.0000
  H   H2060     1.0  0.69064  0.77702  0.08594  1.0000
  H   H2061     1.0  0.67710  0.74477  0.06121  1.0000
  H   H2062     1.0  0.64862  0.72045  0.07165  1.0000
  H   H2063     1.0  0.63309  0.72961  0.10557  1.0000
  H   H2064     1.0  0.67557  0.78582  0.12036  1.0000
  H   H2065     1.0  0.61199  0.80919  0.13040  1.0000
  H   H2066     1.0  0.57906  0.80590  0.12142  1.0000
  H   H2067     1.0  0.56426  0.76142  0.12138  1.0000
  H   H2068     1.0  0.58202  0.72007  0.13114  1.0000
  H   H2069     1.0  0.61512  0.72254  0.13937  1.0000
  H   H2070     1.0  0.64863  0.78935  0.18161  1.0000
  H   H2071     1.0  0.65945  0.83378  0.19285  1.0000
  H   H2072     1.0  0.66453  0.87023  0.16663  1.0000
  H   H2073     1.0  0.65826  0.86253  0.12923  1.0000
  H   H2074     1.0  0.64630  0.81884  0.11769  1.0000
  H   H2075     1.0  0.67667  0.74077  0.14708  1.0000
  H   H2076     1.0  0.68788  0.70945  0.17441  1.0000
  H   H2077     1.0  0.66630  0.69314  0.20234  1.0000
  H   H2078     1.0  0.63316  0.70844  0.20257  1.0000
  H   H2079     1.0  0.62188  0.73967  0.17528  1.0000
  H   H2080     1.0  0.54342  0.95219  0.18630  1.0000
  C   C2592     1.0  0.72535  0.66810  0.22344  1.0000
  C   C2593     1.0  0.57258  0.57027  0.11590  1.0000
  H   H2081     1.0  0.67928  0.51836  0.10305  1.0000
  C   C2594     1.0  0.55688  0.93937  0.21478  1.0000
  H   H2082     1.0  0.64555  0.96694  0.22082  1.0000
  C   C2595     1.0  0.60986  0.89830  0.23358  1.0000
  C   C2596     1.0  0.52933  0.82428  0.12339  1.0000
  H   H2083     1.0  0.73221  0.64341  0.25001  1.0000
  H   H2084     1.0  0.75166  0.86229  0.32453  1.0000
  C   C2597     1.0  0.74609  0.59154  0.00570  1.0000
  H   H2085     1.0  0.65587  0.53997  0.08025  1.0000
  C   C2598     1.0  0.72535  0.50200  0.00338  1.0000
  S   S346      1.0  0.51904  0.65125  0.23961  1.0000
  H   H2086     1.0  0.61381  0.59546  0.06891  1.0000
  C   C2599     1.0  0.63555  0.54293  0.04288  1.0000
  H   H2087     1.0  0.51519  0.63435  0.28280  1.0000
  C   C2600     1.0  0.68451  0.54591  0.26977  1.0000
  C   C2601     1.0  0.53493  0.51536  0.27128  1.0000
  C   C2602     1.0  0.75458  0.61637  0.00259  1.0000
  H   H2088     1.0  0.61291  0.49784  0.11427  1.0000
  H   H2089     1.0  0.73130  0.53925  0.05527  1.0000
  H   H2090     1.0  0.56035  0.58040  0.20952  1.0000
  C   C2603     1.0  0.70876  0.95149  0.09530  1.0000
  H   H2091     1.0  0.59313  0.49438  0.14735  1.0000
  C   C2604     1.0  0.72735  0.96047  0.25595  1.0000
  C   C2605     1.0  0.73503  0.56313  0.21910  1.0000
  C   C2606     1.0  0.74937  0.57139  0.20539  1.0000
  C   C2607     1.0  0.68736  0.57373  0.01942  1.0000
  H   H2092     1.0  0.71514  0.49189  0.27564  1.0000
  H   H2093     1.0  0.73306  0.89120  0.25015  1.0000
  H   H2094     1.0  0.67957  0.60898  0.03775  1.0000
  H   H2095     1.0  0.63664  0.47760  0.13733  1.0000
  C   C2608     1.0  0.55893  0.49176  0.19720  1.0000
  H   H2096     1.0  0.52165  0.53219  0.10884  1.0000
  C   C2609     1.0  0.52698  0.55397  0.15885  1.0000
  C   C2610     1.0  0.72469  0.49676  0.05778  1.0000
  S   S347      1.0  0.51118  0.92646  0.10024  1.0000
  C   C2611     1.0  0.52566  0.53629  0.26041  1.0000
  C   C2612     1.0  0.66268  0.48894  0.22647  1.0000
  C   C2613     1.0  0.58175  0.50406  0.22245  1.0000
  H   H2097     1.0  0.52700  0.89007  0.02981  1.0000
  H   H2098     1.0  0.74625  0.90930  0.28235  1.0000
  C   C2614     1.0  0.51541  0.55693  0.21940  1.0000
  S   S348      1.0  0.55217  0.48058  0.09315  1.0000
  H   H2099     1.0  0.67036  0.47324  0.23481  1.0000
  C   C2615     1.0  0.53107  0.88593  0.01359  1.0000
  C   C2616     1.0  0.68550  0.48012  0.05093  1.0000
  H   H2100     1.0  0.51548  0.81553  0.17455  1.0000
  C   C2617     1.0  0.68587  0.95904  0.06858  1.0000
  S   S349      1.0  0.71407  0.47668  0.12809  1.0000
  C   C2618     1.0  0.75090  0.63788  0.01677  1.0000
  H   H2101     1.0  0.75041  0.60199  0.11659  1.0000
  C   C2619     1.0  0.75700  0.60237  0.08341  1.0000
  C   C2620     1.0  0.71287  0.48265  0.33014  1.0000
  C   C2621     1.0  0.50841  0.58525  0.05878  1.0000
  H   H2102     1.0  0.55507  0.48022  0.18357  1.0000
  H   H2103     1.0  0.75411  0.59198  0.20572  1.0000
  H   H2104     1.0  0.51236  0.96947  0.23171  1.0000
  C   C2622     1.0  0.57856  0.47865  0.04333  1.0000
  H   H2105     1.0  0.75762  0.65696  0.01432  1.0000
  S   S350      1.0  0.54301  0.97236  0.08968  1.0000
  H   H2106     1.0  0.75783  0.51248  0.17898  1.0000
  C   C2623     1.0  0.75698  0.93017  0.32976  1.0000
  C   C2624     1.0  0.75760  0.55318  0.19102  1.0000
  C   C2625     1.0  0.50911  0.54749  0.26902  1.0000
  H   H2107     1.0  0.58661  0.47450  0.19810  1.0000
  S   S351      1.0  0.68981  0.97206  0.19009  1.0000
  C   C2626     1.0  0.74483  0.93550  0.46290  1.0000
  H   H2108     1.0  0.60338  0.89908  0.56907  1.0000
  S   S352      1.0  0.52654  0.86879  0.63691  1.0000
  H   H2109     1.0  0.51688  0.57638  0.61033  1.0000
  Fe  Fe177     1.0  0.56140  0.68823  0.60947  1.0000
  S   S353      1.0  0.54725  0.68074  0.64034  1.0000
  S   S354      1.0  0.59257  0.69241  0.60627  1.0000
  Fe  Fe178     1.0  0.52485  0.68746  0.58573  1.0000
  Fe  Fe179     1.0  0.52587  0.71118  0.62959  1.0000
  C   C2627     1.0  0.73719  0.95168  0.49818  1.0000
  Fe  Fe180     1.0  0.53118  0.64891  0.62392  1.0000
  C   C2628     1.0  0.63461  0.78979  0.59861  1.0000
  S   S355      1.0  0.54123  0.72094  0.59955  1.0000
  S   S356      1.0  0.54665  0.65512  0.59323  1.0000
  H   H2110     1.0  0.51171  0.85865  0.50112  1.0000
  H   H2111     1.0  0.72832  0.90319  0.45167  1.0000
  C   C2629     1.0  0.68950  0.75150  0.56057  1.0000
  S   S357      1.0  0.71033  0.72049  0.63752  1.0000
  S   S358      1.0  0.55558  0.92796  0.65564  1.0000
  C   C2630     1.0  0.55877  0.86928  0.54018  1.0000
  H   H2112     1.0  0.52442  0.55750  0.53930  1.0000
  Fe  Fe181     1.0  0.67936  0.90237  0.60514  1.0000
  S   S359      1.0  0.69702  0.91241  0.63248  1.0000
  S   S360      1.0  0.64808  0.90339  0.60423  1.0000
  Fe  Fe182     1.0  0.71286  0.88919  0.57565  1.0000
  S   S361      1.0  0.73305  0.89871  0.60086  1.0000
  S   S362      1.0  0.71780  0.87840  0.54094  1.0000
  Fe  Fe183     1.0  0.71391  0.87548  0.62248  1.0000
  S   S363      1.0  0.72384  0.84621  0.64777  1.0000
  Fe  Fe184     1.0  0.71436  0.93497  0.60878  1.0000
  S   S364      1.0  0.71013  0.49839  0.60790  1.0000
  S   S365      1.0  0.69486  0.86390  0.59689  1.0000
  S   S366      1.0  0.69560  0.92707  0.58191  1.0000
  H   H2113     1.0  0.64458  0.73164  0.55842  1.0000
  C   C2631     1.0  0.72261  0.79357  0.66222  1.0000
  C   C2632     1.0  0.67107  0.75032  0.55397  1.0000
  C   C2633     1.0  0.69150  0.80580  0.54272  1.0000
  H   H2114     1.0  0.58851  0.61824  0.62981  1.0000
  H   H2115     1.0  0.63071  0.77329  0.58881  1.0000
  H   H2116     1.0  0.66313  0.77556  0.59924  1.0000
  H   H2117     1.0  0.58367  0.73707  0.53122  1.0000
  C   C2634     1.0  0.74037  0.81384  0.58705  1.0000
  H   H2118     1.0  0.71466  0.93105  0.51402  1.0000
  C   C2635     1.0  0.68186  0.84212  0.51922  1.0000
  C   C2636     1.0  0.73328  0.85343  0.50594  1.0000
  C   C2637     1.0  0.73511  0.85824  0.52757  1.0000
  C   C2638     1.0  0.73017  0.47584  0.33832  1.0000
  H   H2119     1.0  0.72681  0.87187  0.35092  1.0000
  H   H2120     1.0  0.68758  0.70386  0.59956  1.0000
  H   H2121     1.0  0.72104  0.86082  0.49812  1.0000
  H   H2122     1.0  0.55688  0.47551  0.62705  1.0000
  H   H2123     1.0  0.74464  0.89459  0.64680  1.0000
  C   C2639     1.0  0.71869  0.81152  0.64560  1.0000
  C   C2640     1.0  0.62203  0.76401  0.65880  1.0000
  C   C2641     1.0  0.52017  0.78704  0.51397  1.0000
  C   C2642     1.0  0.71251  0.75558  0.64165  1.0000
  C   C2643     1.0  0.70826  0.77362  0.62528  1.0000
  C   C2644     1.0  0.71118  0.80142  0.62732  1.0000
  H   H2124     1.0  0.70287  0.76612  0.61085  1.0000
  H   H2125     1.0  0.70808  0.81488  0.61447  1.0000
  C   C2645     1.0  0.58535  0.54016  0.63192  1.0000
  C   C2646     1.0  0.65893  0.81234  0.61674  1.0000
  C   C2647     1.0  0.71271  0.51543  0.64962  1.0000
  C   C2648     1.0  0.71076  0.52273  0.62849  1.0000
  C   C2649     1.0  0.70961  0.55043  0.62325  1.0000
  C   C2650     1.0  0.71029  0.57058  0.63883  1.0000
  C   C2651     1.0  0.55285  0.89642  0.53977  1.0000
  H   H2126     1.0  0.70772  0.71426  0.48651  1.0000
  P   P87       1.0  0.50971  0.82919  0.54133  1.0000
  C   C2652     1.0  0.60553  0.68633  0.62911  1.0000
  C   C2653     1.0  0.62413  0.67743  0.62718  1.0000
  C   C2654     1.0  0.63502  0.67400  0.64513  1.0000
  C   C2655     1.0  0.74817  0.91649  0.40558  1.0000
  C   C2656     1.0  0.57581  0.77264  0.62511  1.0000
  C   C2657     1.0  0.59790  0.69175  0.64909  1.0000
  H   H2127     1.0  0.63014  0.67327  0.61178  1.0000
  H   H2128     1.0  0.64934  0.66730  0.64346  1.0000
  H   H2129     1.0  0.58378  0.69935  0.65074  1.0000
  H   H2130     1.0  0.71376  0.49427  0.65392  1.0000
  C   C2658     1.0  0.60470  0.90349  0.64569  1.0000
  C   C2659     1.0  0.61560  0.90385  0.62717  1.0000
  C   C2660     1.0  0.63493  0.90479  0.62793  1.0000
  C   C2661     1.0  0.64334  0.90590  0.64746  1.0000
  C   C2662     1.0  0.65875  0.73245  0.56362  1.0000
  H   H2131     1.0  0.75330  0.93642  0.44864  1.0000
  H   H2132     1.0  0.60900  0.90343  0.61219  1.0000
  H   H2133     1.0  0.65820  0.90737  0.64815  1.0000
  C   C2663     1.0  0.52635  0.52770  0.56401  1.0000
  H   H2134     1.0  0.60322  0.74874  0.59347  1.0000
  H   H2135     1.0  0.59702  0.71858  0.56407  1.0000
  C   C2664     1.0  0.52554  0.48925  0.53196  1.0000
  C   C2665     1.0  0.57676  0.89461  0.58458  1.0000
  C   C2666     1.0  0.71932  0.76572  0.66037  1.0000
  H   H2136     1.0  0.74734  0.91673  0.53088  1.0000
  C   C2667     1.0  0.72407  0.78276  0.56500  1.0000
  H   H2137     1.0  0.65076  0.84936  0.63233  1.0000
  C   C2668     1.0  0.52393  0.78750  0.62851  1.0000
  C   C2669     1.0  0.58391  0.52242  0.64913  1.0000
  C   C2670     1.0  0.69239  0.81848  0.52295  1.0000
  C   C2671     1.0  0.65524  0.57715  0.64296  1.0000
  H   H2138     1.0  0.54349  0.72701  0.52084  1.0000
  P   P88       1.0  0.65062  0.57637  0.61512  1.0000
  C   C2672     1.0  0.67022  0.59034  0.60105  1.0000
  C   C2673     1.0  0.64675  0.54202  0.60682  1.0000
  C   C2674     1.0  0.66175  0.52358  0.60437  1.0000
  C   C2675     1.0  0.65886  0.49691  0.59837  1.0000
  C   C2676     1.0  0.62591  0.50662  0.59677  1.0000
  C   C2677     1.0  0.62879  0.53338  0.60272  1.0000
  C   C2678     1.0  0.67626  0.57982  0.58152  1.0000
  C   C2679     1.0  0.69146  0.59085  0.57082  1.0000
  C   C2680     1.0  0.70056  0.61268  0.57937  1.0000
  C   C2681     1.0  0.69435  0.62369  0.59852  1.0000
  C   C2682     1.0  0.67921  0.61264  0.60927  1.0000
  C   C2683     1.0  0.63034  0.59677  0.60895  1.0000
  C   C2684     1.0  0.62846  0.60753  0.58862  1.0000
  C   C2685     1.0  0.61231  0.62190  0.58325  1.0000
  C   C2686     1.0  0.59790  0.62544  0.59805  1.0000
  C   C2687     1.0  0.59966  0.61495  0.61833  1.0000
  C   C2688     1.0  0.61579  0.60055  0.62378  1.0000
  H   H2139     1.0  0.61413  0.85235  0.57654  1.0000
  C   C2689     1.0  0.57428  0.80809  0.65917  1.0000
  C   C2690     1.0  0.57104  0.85049  0.59967  1.0000
  C   C2691     1.0  0.52465  0.51688  0.52708  1.0000
  Fe  Fe185     1.0  0.53389  0.89718  0.66329  1.0000
  H   H2140     1.0  0.67573  0.52982  0.60711  1.0000
  C   C2692     1.0  0.74802  0.95299  0.47955  1.0000
  H   H2141     1.0  0.61698  0.54715  0.60418  1.0000
  H   H2142     1.0  0.66936  0.56305  0.57452  1.0000
  H   H2143     1.0  0.69630  0.58226  0.55599  1.0000
  H   H2144     1.0  0.71247  0.62100  0.57121  1.0000
  H   H2145     1.0  0.70144  0.64055  0.60525  1.0000
  H   H2146     1.0  0.67471  0.62140  0.62410  1.0000
  H   H2147     1.0  0.63939  0.60469  0.57684  1.0000
  H   H2148     1.0  0.61093  0.63045  0.56764  1.0000
  H   H2149     1.0  0.58547  0.63680  0.59393  1.0000
  C   C2693     1.0  0.52032  0.77766  0.64880  1.0000
  S   S367      1.0  0.68781  0.65689  0.65806  1.0000
  C   C2694     1.0  0.52866  0.76208  0.50897  1.0000
  H   H2150     1.0  0.52830  0.49389  0.58528  1.0000
  S   S368      1.0  0.51696  0.48263  0.63725  1.0000
  H   H2151     1.0  0.72102  0.91870  0.36382  1.0000
  S   S369      1.0  0.51573  0.68964  0.55130  1.0000
  H   H2152     1.0  0.70931  0.73460  0.58264  1.0000
  H   H2153     1.0  0.52390  0.52344  0.51083  1.0000
  C   C2695     1.0  0.58893  0.84146  0.59337  1.0000
  C   C2696     1.0  0.65318  0.79112  0.60431  1.0000
  C   C2697     1.0  0.68296  0.71665  0.58667  1.0000
  H   H2154     1.0  0.52584  0.47478  0.51926  1.0000
  H   H2155     1.0  0.56293  0.91227  0.53925  1.0000
  C   C2698     1.0  0.56510  0.87707  0.59551  1.0000
  P   P89       1.0  0.70501  0.77538  0.54815  1.0000
  H   H2156     1.0  0.57266  0.48438  0.65996  1.0000
  C   C2699     1.0  0.59421  0.88536  0.57728  1.0000
  H   H2157     1.0  0.74552  0.83560  0.47767  1.0000
  H   H2158     1.0  0.61928  0.50622  0.64083  1.0000
  C   C2700     1.0  0.67992  0.81706  0.55860  1.0000
  H   H2159     1.0  0.55940  0.50705  0.59692  1.0000
  H   H2160     1.0  0.57345  0.86415  0.54000  1.0000
  H   H2161     1.0  0.70146  0.81063  0.51053  1.0000
  C   C2701     1.0  0.57398  0.49861  0.64705  1.0000
  H   H2162     1.0  0.70868  0.90130  0.48420  1.0000
  H   H2163     1.0  0.57529  0.75896  0.61202  1.0000
  S   S370      1.0  0.75346  0.96957  0.39530  1.0000
  C   C2702     1.0  0.60032  0.85889  0.58169  1.0000
  H   H2164     1.0  0.55155  0.88421  0.60120  1.0000
  H   H2165     1.0  0.53073  0.78920  0.56595  1.0000
  C   C2703     1.0  0.66939  0.84066  0.55483  1.0000
  H   H2166     1.0  0.70829  0.55638  0.60696  1.0000
  H   H2167     1.0  0.75228  0.85079  0.55424  1.0000
  H   H2168     1.0  0.68302  0.85229  0.50416  1.0000
  C   C2704     1.0  0.53392  0.90312  0.54023  1.0000
  C   C2705     1.0  0.52089  0.88270  0.54085  1.0000
  C   C2706     1.0  0.52672  0.85536  0.54112  1.0000
  C   C2707     1.0  0.54578  0.84880  0.54100  1.0000
  C   C2708     1.0  0.73175  0.91458  0.35200  1.0000
  C   C2709     1.0  0.52080  0.79713  0.53453  1.0000
  C   C2710     1.0  0.74782  0.91288  0.65512  1.0000
  C   C2711     1.0  0.70648  0.74054  0.51351  1.0000
  C   C2712     1.0  0.56521  0.49322  0.62824  1.0000
  C   C2713     1.0  0.53012  0.78192  0.54995  1.0000
  H   H2169     1.0  0.57630  0.78617  0.52811  1.0000
  C   C2714     1.0  0.52630  0.81537  0.62513  1.0000
  C   C2715     1.0  0.72579  0.80859  0.57368  1.0000
  H   H2170     1.0  0.55922  0.74656  0.64469  1.0000
  C   C2716     1.0  0.52890  0.52901  0.65742  1.0000
  H   H2171     1.0  0.65520  0.70169  0.58743  1.0000
  C   C2717     1.0  0.62643  0.50560  0.65554  1.0000
  C   C2718     1.0  0.56566  0.78320  0.66072  1.0000
  H   H2172     1.0  0.71606  0.82485  0.57010  1.0000
  C   C2719     1.0  0.52712  0.50010  0.56896  1.0000
  H   H2173     1.0  0.61201  0.49996  0.59394  1.0000
  H   H2174     1.0  0.67947  0.80799  0.57409  1.0000
  C   C2720     1.0  0.53767  0.74692  0.52446  1.0000
  H   H2175     1.0  0.52932  0.92417  0.54010  1.0000
  H   H2176     1.0  0.51075  0.52706  0.60882  1.0000
  H   H2177     1.0  0.55067  0.82797  0.54134  1.0000
  C   C2721     1.0  0.66431  0.55518  0.65277  1.0000
  C   C2722     1.0  0.66470  0.71560  0.57996  1.0000
  H   H2178     1.0  0.58984  0.90232  0.64477  1.0000
  H   H2179     1.0  0.73717  0.74305  0.56172  1.0000
  C   C2723     1.0  0.64428  0.49394  0.65601  1.0000
  C   C2724     1.0  0.73891  0.76252  0.49660  1.0000
  C   C2725     1.0  0.74711  0.83897  0.49431  1.0000
  H   H2180     1.0  0.59297  0.55851  0.63312  1.0000
  C   C2726     1.0  0.69534  0.73433  0.57695  1.0000
  H   H2181     1.0  0.64528  0.61852  0.64733  1.0000
  H   H2182     1.0  0.70951  0.59173  0.63452  1.0000
  H   H2183     1.0  0.66087  0.84967  0.56735  1.0000
  C   C2727     1.0  0.71501  0.76151  0.52413  1.0000
  C   C2728     1.0  0.62291  0.74948  0.64002  1.0000
  C   C2729     1.0  0.63985  0.73877  0.63242  1.0000
  C   C2730     1.0  0.65599  0.74247  0.64359  1.0000
  C   C2731     1.0  0.73047  0.74149  0.48621  1.0000
  C   C2732     1.0  0.51703  0.53529  0.62254  1.0000
  H   H2184     1.0  0.73999  0.95604  0.34992  1.0000
  S   S371      1.0  0.51661  0.74289  0.65369  1.0000
  C   C2733     1.0  0.75076  0.84768  0.53759  1.0000
  C   C2734     1.0  0.75449  0.95737  0.53977  1.0000
  C   C2735     1.0  0.52501  0.53609  0.54309  1.0000
  H   H2185     1.0  0.61675  0.59222  0.63948  1.0000
  C   C2736     1.0  0.56651  0.76545  0.64373  1.0000
  H   H2186     1.0  0.51282  0.79800  0.50183  1.0000
  H   H2187     1.0  0.74238  0.87456  0.41189  1.0000
  H   H2188     1.0  0.52763  0.75401  0.49326  1.0000
  H   H2189     1.0  0.67329  0.81344  0.62115  1.0000
  C   C2737     1.0  0.56649  0.51117  0.61130  1.0000
  H   H2190     1.0  0.57230  0.91544  0.58195  1.0000
  H   H2191     1.0  0.54498  0.74470  0.55697  1.0000
  C   C2738     1.0  0.52642  0.48066  0.55300  1.0000
  H   H2192     1.0  0.52869  0.82284  0.60934  1.0000
  C   C2739     1.0  0.75471  0.92908  0.54171  1.0000
  C   C2740     1.0  0.71425  0.73052  0.49465  1.0000
  C   C2741     1.0  0.73071  0.91680  0.46458  1.0000
  H   H2193     1.0  0.70514  0.50018  0.33609  1.0000
  H   H2194     1.0  0.61040  0.74610  0.63150  1.0000
  H   H2195     1.0  0.64041  0.72744  0.61794  1.0000
  H   H2196     1.0  0.66914  0.73401  0.63778  1.0000
  C   C2742     1.0  0.53837  0.75683  0.54492  1.0000
  H   H2197     1.0  0.61798  0.84666  0.62344  1.0000
  H   H2198     1.0  0.66837  0.53721  0.64410  1.0000
  C   C2743     1.0  0.73120  0.77256  0.51544  1.0000
  H   H2199     1.0  0.66276  0.87204  0.53245  1.0000
  C   C2744     1.0  0.52035  0.56333  0.62342  1.0000
  C   C2745     1.0  0.73779  0.76280  0.56890  1.0000
  S   S372      1.0  0.53163  0.60992  0.64411  1.0000
  H   H2200     1.0  0.58213  0.81671  0.55749  1.0000
  H   H2201     1.0  0.66622  0.76324  0.54132  1.0000
  C   C2746     1.0  0.67044  0.85327  0.53516  1.0000
  H   H2202     1.0  0.52452  0.77377  0.61535  1.0000
  C   C2747     1.0  0.52513  0.83365  0.64198  1.0000
  H   H2203     1.0  0.57734  0.54886  0.60013  1.0000
  C   C2748     1.0  0.52149  0.51787  0.63939  1.0000
  C   C2749     1.0  0.64094  0.48835  0.59470  1.0000
  H   H2204     1.0  0.69390  0.73182  0.51972  1.0000
  H   H2205     1.0  0.52689  0.54261  0.57640  1.0000
  C   C2750     1.0  0.72306  0.93276  0.49974  1.0000
  C   C2751     1.0  0.52758  0.57454  0.64155  1.0000
  P   P90       1.0  0.59713  0.80756  0.59969  1.0000
  C   C2752     1.0  0.62149  0.80934  0.60585  1.0000
  C   C2753     1.0  0.58509  0.79726  0.62363  1.0000
  H   H2206     1.0  0.73582  0.48790  0.35072  1.0000
  H   H2207     1.0  0.67553  0.96888  0.64935  1.0000
  C   C2754     1.0  0.58419  0.81492  0.64090  1.0000
  C   C2755     1.0  0.62754  0.83079  0.61813  1.0000
  C   C2756     1.0  0.64618  0.83237  0.62334  1.0000
  C   C2757     1.0  0.57659  0.53465  0.61312  1.0000
  C   C2758     1.0  0.59323  0.78518  0.57781  1.0000
  C   C2759     1.0  0.58565  0.79544  0.55915  1.0000
  C   C2760     1.0  0.58236  0.77818  0.54236  1.0000
  C   C2761     1.0  0.58653  0.75052  0.54407  1.0000
  C   C2762     1.0  0.59410  0.74013  0.56252  1.0000
  C   C2763     1.0  0.59752  0.75735  0.57926  1.0000
  H   H2208     1.0  0.56178  0.83739  0.60832  1.0000
  C   C2764     1.0  0.71972  0.91565  0.48291  1.0000
  H   H2209     1.0  0.59045  0.83455  0.64004  1.0000
  C   C2765     1.0  0.71259  0.56334  0.65989  1.0000
  C   C2766     1.0  0.53154  0.55717  0.65861  1.0000
  C   C2767     1.0  0.65517  0.75686  0.66242  1.0000
  H   H2210     1.0  0.50988  0.69742  0.50719  1.0000
  H   H2211     1.0  0.73787  0.78904  0.52316  1.0000
  C   C2768     1.0  0.52195  0.82373  0.66233  1.0000
  H   H2212     1.0  0.74135  0.83363  0.59410  1.0000
  C   C2769     1.0  0.75158  0.88844  0.40400  1.0000
  H   H2213     1.0  0.73654  0.73376  0.47160  1.0000
  H   H2214     1.0  0.67057  0.48286  0.59671  1.0000
  C   C2770     1.0  0.73505  0.88823  0.34476  1.0000
  H   H2215     1.0  0.73642  0.92409  0.41482  1.0000
  H   H2216     1.0  0.75147  0.77110  0.49002  1.0000
  C   C2771     1.0  0.65157  0.60084  0.65459  1.0000
  H   H2217     1.0  0.65080  0.48610  0.64172  1.0000
  C   C2772     1.0  0.75351  0.79352  0.59156  1.0000
  C   C2773     1.0  0.74252  0.93560  0.34424  1.0000
  H   H2218     1.0  0.70766  0.96918  0.66159  1.0000
  C   C2774     1.0  0.75233  0.76808  0.58232  1.0000
  H   H2219     1.0  0.56766  0.57332  0.66313  1.0000
  Fe  Fe186     1.0  0.53087  0.91158  0.70955  1.0000
  Fe  Fe187     1.0  0.56859  0.91268  0.68521  1.0000
  H   H2220     1.0  0.62255  0.84209  0.70263  1.0000
  S   S373      1.0  0.55289  0.94276  0.70545  1.0000
  S   S374      1.0  0.54805  0.88019  0.69170  1.0000
  C   C2775     1.0  0.59466  0.56676  0.67675  1.0000
  H   H2221     1.0  0.54880  0.81458  0.78093  1.0000
  S   S375      1.0  0.59958  0.90472  0.68873  1.0000
  Fe  Fe188     1.0  0.70668  0.68045  0.71221  1.0000
  C   C2776     1.0  0.66793  0.85035  0.67541  1.0000
  S   S376      1.0  0.71433  0.68804  0.74649  1.0000
  Fe  Fe189     1.0  0.67147  0.67089  0.68642  1.0000
  S   S377      1.0  0.64001  0.67337  0.68820  1.0000
  C   C2777     1.0  0.52002  0.89426  0.93033  1.0000
  S   S378      1.0  0.68809  0.64497  0.70849  1.0000
  S   S379      1.0  0.68825  0.70751  0.69258  1.0000
  H   H2222     1.0  0.73342  0.93784  0.99375  1.0000
  H   H2223     1.0  0.74594  0.90872  0.71206  1.0000
  H   H2224     1.0  0.71174  0.96772  0.74582  1.0000
  H   H2225     1.0  0.57142  0.77839  0.71438  1.0000
  H   H2226     1.0  0.72324  0.91185  0.67463  1.0000
  H   H2227     1.0  0.64674  0.76528  0.76990  1.0000
  C   C2778     1.0  0.72582  0.60314  0.94395  1.0000
  C   C2779     1.0  0.61786  0.51569  0.67400  1.0000
  S   S380      1.0  0.72552  0.66743  0.68510  1.0000
  C   C2780     1.0  0.56522  0.52923  0.70308  1.0000
  H   H2228     1.0  0.53522  0.86454  0.87588  1.0000
  Fe  Fe190     1.0  0.70564  0.69232  0.66524  1.0000
  H   H2229     1.0  0.66980  0.58172  0.70137  1.0000
  H   H2230     1.0  0.65415  0.62079  0.68433  1.0000
  C   C2781     1.0  0.57928  0.58256  0.67041  1.0000
  H   H2231     1.0  0.62100  0.52134  0.70742  1.0000
  H   H2232     1.0  0.74160  0.73162  0.80737  1.0000
  C   C2782     1.0  0.50956  0.87434  0.92085  1.0000
  H   H2233     1.0  0.56666  0.62242  0.66854  1.0000
  C   C2783     1.0  0.74159  0.73057  0.79042  1.0000
  C   C2784     1.0  0.73049  0.71177  0.78029  1.0000
  C   C2785     1.0  0.72966  0.71094  0.75821  1.0000
  C   C2786     1.0  0.74045  0.72876  0.74635  1.0000
  C   C2787     1.0  0.64275  0.76356  0.71659  1.0000
  C   C2788     1.0  0.65321  0.83303  0.67913  1.0000
  H   H2234     1.0  0.72216  0.69817  0.78966  1.0000
  C   C2789     1.0  0.74884  0.83322  0.70299  1.0000
  C   C2790     1.0  0.51946  0.79589  0.66568  1.0000
  H   H2235     1.0  0.71788  0.62139  0.83292  1.0000
  H   H2236     1.0  0.51332  0.89466  0.78717  1.0000
  Fe  Fe191     1.0  0.70586  0.63314  0.68030  1.0000
  H   H2237     1.0  0.75239  0.88513  0.74534  1.0000
  C   C2791     1.0  0.72427  0.93605  0.76435  1.0000
  H   H2238     1.0  0.73438  0.72517  0.98992  1.0000
  C   C2792     1.0  0.53114  0.87265  0.89112  1.0000
  C   C2793     1.0  0.65589  0.85596  0.73898  1.0000
  C   C2794     1.0  0.65558  0.88413  0.74032  1.0000
  C   C2795     1.0  0.67092  0.89730  0.74794  1.0000
  C   C2796     1.0  0.68669  0.88233  0.75390  1.0000
  C   C2797     1.0  0.68702  0.85394  0.75292  1.0000
  C   C2798     1.0  0.67149  0.84089  0.74531  1.0000
  P   P91       1.0  0.70776  0.83469  0.75972  1.0000
  C   C2799     1.0  0.72418  0.83499  0.73781  1.0000
  C   C2800     1.0  0.71810  0.84768  0.78318  1.0000
  C   C2801     1.0  0.73661  0.84089  0.78787  1.0000
  C   C2802     1.0  0.73577  0.91286  0.76429  1.0000
  C   C2803     1.0  0.65657  0.60228  0.67563  1.0000
  C   C2804     1.0  0.60905  0.60768  0.68868  1.0000
  C   C2805     1.0  0.70734  0.86295  0.79778  1.0000
  C   C2806     1.0  0.73860  0.81539  0.73667  1.0000
  H   H2239     1.0  0.53651  0.56563  0.67298  1.0000
  H   H2240     1.0  0.53277  0.77201  0.77465  1.0000
  C   C2807     1.0  0.73447  0.85267  0.70390  1.0000
  C   C2808     1.0  0.72223  0.85371  0.72126  1.0000
  C   C2809     1.0  0.70172  0.80003  0.76499  1.0000
  C   C2810     1.0  0.70020  0.78180  0.74830  1.0000
  C   C2811     1.0  0.69501  0.75522  0.75219  1.0000
  C   C2812     1.0  0.69165  0.74644  0.77278  1.0000
  C   C2813     1.0  0.69326  0.76434  0.78950  1.0000
  C   C2814     1.0  0.69816  0.79111  0.78565  1.0000
  H   H2241     1.0  0.64401  0.84583  0.73299  1.0000
  H   H2242     1.0  0.64341  0.89573  0.73546  1.0000
  H   H2243     1.0  0.67055  0.91913  0.74922  1.0000
  H   H2244     1.0  0.69863  0.89284  0.75927  1.0000
  H   H2245     1.0  0.67138  0.81912  0.74406  1.0000
  H   H2246     1.0  0.74510  0.82811  0.77761  1.0000
  C   C2815     1.0  0.69672  0.96305  0.67238  1.0000
  C   C2816     1.0  0.57868  0.61051  0.67342  1.0000
  H   H2247     1.0  0.74443  0.61308  0.80849  1.0000
  H   H2248     1.0  0.69281  0.86738  0.79519  1.0000
  H   H2249     1.0  0.74014  0.80042  0.74902  1.0000
  C   C2817     1.0  0.52031  0.78596  0.74572  1.0000
  C   C2818     1.0  0.70072  0.95567  0.69316  1.0000
  H   H2250     1.0  0.73262  0.86653  0.69082  1.0000
  H   H2251     1.0  0.71110  0.86878  0.72139  1.0000
  H   H2252     1.0  0.70318  0.78794  0.73229  1.0000
  H   H2253     1.0  0.69415  0.74106  0.73930  1.0000
  H   H2254     1.0  0.68837  0.72547  0.77573  1.0000
  H   H2255     1.0  0.69106  0.75729  0.80549  1.0000
  H   H2256     1.0  0.69940  0.80459  0.79886  1.0000
  H   H2257     1.0  0.56122  0.54918  0.69755  1.0000
  H   H2258     1.0  0.56722  0.72076  0.71063  1.0000
  H   H2259     1.0  0.72272  0.75198  0.67308  1.0000
  C   C2819     1.0  0.71516  0.87203  0.81630  1.0000
  C   C2820     1.0  0.70424  0.67385  0.98555  1.0000
  H   H2260     1.0  0.52925  0.94837  0.98449  1.0000
  C   C2821     1.0  0.68733  0.66222  0.98064  1.0000
  H   H2261     1.0  0.65253  0.50061  0.70808  1.0000
  H   H2262     1.0  0.68885  0.94250  0.72288  1.0000
  C   C2822     1.0  0.75091  0.81458  0.71939  1.0000
  H   H2263     1.0  0.55769  0.77805  0.67473  1.0000
  C   C2823     1.0  0.57966  0.81982  0.71474  1.0000
  C   C2824     1.0  0.72791  0.93966  0.72631  1.0000
  C   C2825     1.0  0.62741  0.51381  0.69297  1.0000
  H   H2264     1.0  0.70184  0.81534  0.70065  1.0000
  C   C2826     1.0  0.63815  0.76756  0.67029  1.0000
  H   H2265     1.0  0.60280  0.69274  0.68237  1.0000
  C   C2827     1.0  0.67850  0.96305  0.66541  1.0000
  H   H2266     1.0  0.54989  0.48130  0.73745  1.0000
  C   C2828     1.0  0.67338  0.80370  0.69956  1.0000
  C   C2829     1.0  0.59413  0.83757  0.71133  1.0000
  C   C2830     1.0  0.64280  0.77407  0.73705  1.0000
  H   H2267     1.0  0.73962  0.87210  0.83518  1.0000
  C   C2831     1.0  0.66528  0.58019  0.68530  1.0000
  C   C2832     1.0  0.64663  0.75710  0.75415  1.0000
  C   C2833     1.0  0.72765  0.63726  0.82985  1.0000
  S   S381      1.0  0.51995  0.90639  0.74356  1.0000
  H   H2268     1.0  0.56607  0.82769  0.71944  1.0000
  C   C2834     1.0  0.73788  0.68269  0.83582  1.0000
  C   C2835     1.0  0.68530  0.84439  0.68365  1.0000
  C   C2836     1.0  0.68620  0.94804  0.70681  1.0000
  C   C2837     1.0  0.60019  0.78214  0.70523  1.0000
  H   H2269     1.0  0.54188  0.52757  0.72476  1.0000
  S   S382      1.0  0.75659  0.78958  0.85271  1.0000
  C   C2838     1.0  0.75179  0.74725  0.75651  1.0000
  C   C2839     1.0  0.73363  0.86549  0.82064  1.0000
  C   C2840     1.0  0.60877  0.68826  0.66699  1.0000
  H   H2270     1.0  0.53215  0.51605  0.67065  1.0000
  H   H2271     1.0  0.72725  0.58324  0.95105  1.0000
  C   C2841     1.0  0.58269  0.79210  0.71177  1.0000
  H   H2272     1.0  0.67605  0.78502  0.70803  1.0000
  H   H2273     1.0  0.71858  0.94386  0.77909  1.0000
  H   H2274     1.0  0.73896  0.90267  0.77896  1.0000
  H   H2275     1.0  0.55395  0.89971  0.89238  1.0000
  C   C2842     1.0  0.52622  0.89298  0.97622  1.0000
  H   H2276     1.0  0.74001  0.72836  0.72937  1.0000
  H   H2277     1.0  0.64616  0.72721  0.69800  1.0000
  C   C2843     1.0  0.51731  0.94464  0.95364  1.0000
  H   H2278     1.0  0.51701  0.78849  0.68143  1.0000
  H   H2279     1.0  0.65334  0.71628  0.76411  1.0000
  C   C2844     1.0  0.53930  0.83380  0.75260  1.0000
  H   H2280     1.0  0.65307  0.69755  0.72808  1.0000
  C   C2845     1.0  0.65033  0.72952  0.75093  1.0000
  C   C2846     1.0  0.54196  0.87649  0.97173  1.0000
  H   H2281     1.0  0.67655  0.53995  0.68117  1.0000
  C   C2847     1.0  0.55417  0.51702  0.71858  1.0000
  H   H2282     1.0  0.62188  0.56827  0.69049  1.0000
  C   C2848     1.0  0.54165  0.89245  0.90042  1.0000
  H   H2283     1.0  0.56425  0.85212  0.98456  1.0000
  H   H2284     1.0  0.54597  0.85277  0.75555  1.0000
  C   C2849     1.0  0.65022  0.71895  0.73063  1.0000
  C   C2850     1.0  0.55235  0.71840  0.71160  1.0000
  C   C2851     1.0  0.65569  0.80997  0.69181  1.0000
  C   C2852     1.0  0.54075  0.81238  0.76691  1.0000
  H   H2285     1.0  0.68431  0.65743  0.96449  1.0000
  C   C2853     1.0  0.52521  0.95865  0.97021  1.0000
  C   C2854     1.0  0.61479  0.79990  0.70139  1.0000
  C   C2855     1.0  0.72658  0.60605  0.92209  1.0000
  C   C2856     1.0  0.72513  0.63177  0.91301  1.0000
  C   C2857     1.0  0.72306  0.65467  0.92574  1.0000
  C   C2858     1.0  0.72226  0.65189  0.94773  1.0000
  H   H2286     1.0  0.54648  0.87259  0.95569  1.0000
  P   P92       1.0  0.72085  0.68109  0.96465  1.0000
  C   C2859     1.0  0.75597  0.96027  0.67638  1.0000
  C   C2860     1.0  0.71341  0.71074  0.94999  1.0000
  C   C2861     1.0  0.72618  0.72379  0.93666  1.0000
  C   C2862     1.0  0.72077  0.74673  0.92521  1.0000
  C   C2863     1.0  0.70261  0.75704  0.92707  1.0000
  C   C2864     1.0  0.68983  0.74435  0.94041  1.0000
  C   C2865     1.0  0.69518  0.72130  0.95186  1.0000
  C   C2866     1.0  0.53617  0.90316  0.91996  1.0000
  H   H2287     1.0  0.65671  0.94209  0.71024  1.0000
  S   S383      1.0  0.74981  0.56364  0.98837  1.0000
  P   P93       1.0  0.63757  0.78580  0.69482  1.0000
  H   H2288     1.0  0.63973  0.79532  0.73975  1.0000
  H   H2289     1.0  0.72357  0.62336  0.97366  1.0000
  C   C2867     1.0  0.72524  0.66228  0.83977  1.0000
  H   H2290     1.0  0.73608  0.70207  0.84359  1.0000
  C   C2868     1.0  0.64522  0.50194  0.69342  1.0000
  C   C2869     1.0  0.73978  0.94645  0.68179  1.0000
  H   H2291     1.0  0.59169  0.85908  0.71372  1.0000
  C   C2870     1.0  0.54133  0.73531  0.72464  1.0000
  H   H2292     1.0  0.72871  0.58847  0.91212  1.0000
  H   H2293     1.0  0.72634  0.63398  0.89608  1.0000
  H   H2294     1.0  0.72255  0.67435  0.91829  1.0000
  Fe  Fe192     1.0  0.53851  0.95671  0.67602  1.0000
  H   H2295     1.0  0.74035  0.71619  0.93495  1.0000
  H   H2296     1.0  0.73076  0.75647  0.91486  1.0000
  H   H2297     1.0  0.69849  0.77489  0.91820  1.0000
  H   H2298     1.0  0.67576  0.75245  0.94192  1.0000
  H   H2299     1.0  0.68506  0.71202  0.96216  1.0000
  H   H2300     1.0  0.66785  0.75934  0.67090  1.0000
  C   C2871     1.0  0.73576  0.92271  0.67096  1.0000
  C   C2872     1.0  0.74374  0.62443  0.74521  1.0000
  C   C2873     1.0  0.54416  0.69858  0.69961  1.0000
  H   H2301     1.0  0.63898  0.90600  0.68119  1.0000
  H   H2302     1.0  0.69675  0.85750  0.68019  1.0000
  H   H2303     1.0  0.74191  0.50439  0.97481  1.0000
  H   H2304     1.0  0.71363  0.66584  0.85057  1.0000
  H   H2305     1.0  0.54794  0.75055  0.73374  1.0000
  C   C2874     1.0  0.72371  0.62595  0.95673  1.0000
  H   H2306     1.0  0.59297  0.64464  0.68523  1.0000
  C   C2875     1.0  0.75237  0.74839  0.77860  1.0000
  C   C2876     1.0  0.73953  0.91640  0.72643  1.0000
  C   C2877     1.0  0.63244  0.90533  0.66610  1.0000
  C   C2878     1.0  0.66905  0.55662  0.67390  1.0000
  C   C2879     1.0  0.72036  0.94943  0.74546  1.0000
  H   H2307     1.0  0.64996  0.95586  0.67368  1.0000
  C   C2880     1.0  0.58093  0.51545  0.69463  1.0000
  C   C2881     1.0  0.74430  0.84980  0.80650  1.0000
  C   C2882     1.0  0.74610  0.71195  0.98579  1.0000
  C   C2883     1.0  0.64637  0.73588  0.71353  1.0000
  P   P94       1.0  0.72409  0.95870  0.70235  1.0000
  C   C2884     1.0  0.55211  0.86478  0.98809  1.0000
  H   H2308     1.0  0.73078  0.63124  0.73835  1.0000
  C   C2885     1.0  0.51517  0.86352  0.90140  1.0000
  H   H2309     1.0  0.54444  0.91857  0.92692  1.0000
  H   H2310     1.0  0.70682  0.88368  0.82757  1.0000
  H   H2311     1.0  0.62055  0.61767  0.69573  1.0000
  C   C2886     1.0  0.60968  0.57963  0.68572  1.0000
  C   C2887     1.0  0.66797  0.94787  0.69973  1.0000
  P   P95       1.0  0.59463  0.53036  0.67366  1.0000
  H   H2312     1.0  0.52760  0.84781  0.72362  1.0000
  C   C2888     1.0  0.73267  0.49209  0.98430  1.0000
  H   H2313     1.0  0.60239  0.76052  0.70320  1.0000
  C   C2889     1.0  0.61166  0.82774  0.70476  1.0000
  C   C2890     1.0  0.59352  0.62304  0.68267  1.0000
  C   C2891     1.0  0.53146  0.78840  0.76340  1.0000
  C   C2892     1.0  0.52890  0.83103  0.73455  1.0000
  C   C2893     1.0  0.68809  0.82084  0.69543  1.0000
  C   C2894     1.0  0.51935  0.80731  0.73114  1.0000
  C   C2895     1.0  0.74335  0.90303  0.74535  1.0000
  H   H2314     1.0  0.55263  0.68577  0.68923  1.0000
  H   H2315     1.0  0.74184  0.65358  0.77001  1.0000
  C   C2896     1.0  0.74356  0.68833  0.97417  1.0000
  H   H2316     1.0  0.75767  0.65405  0.95910  1.0000
  C   C2897     1.0  0.62730  0.67914  0.66513  1.0000
  S   S384      1.0  0.71425  0.58795  0.68012  1.0000
  C   C2898     1.0  0.74274  0.63261  0.81604  1.0000
  C   C2899     1.0  0.51210  0.95893  0.93549  1.0000
  C   C2900     1.0  0.65366  0.49199  0.67493  1.0000
  H   H2317     1.0  0.72846  0.80107  0.67643  1.0000
  C   C2901     1.0  0.52500  0.69537  0.70086  1.0000
  H   H2318     1.0  0.52095  0.83759  0.67542  1.0000
  H   H2319     1.0  0.71581  0.52976  0.68136  1.0000
  C   C2902     1.0  0.61304  0.90448  0.66524  1.0000
  C   C2903     1.0  0.75567  0.65289  0.81222  1.0000
  C   C2904     1.0  0.75005  0.63703  0.76321  1.0000
  C   C2905     1.0  0.66411  0.95559  0.67909  1.0000
  P   P96       1.0  0.51308  0.90885  0.95543  1.0000
  C   C2906     1.0  0.57429  0.47712  0.71744  1.0000
  H   H2320     1.0  0.64010  0.83729  0.67165  1.0000
  S   S385      1.0  0.51528  0.92714  0.68134  1.0000
  C   C2907     1.0  0.75308  0.67802  0.82216  1.0000
  C   C2908     1.0  0.52200  0.73258  0.72569  1.0000
  H   H2321     1.0  0.66100  0.64842  0.99252  1.0000
  C   C2909     1.0  0.75393  0.96834  0.98980  1.0000
  H   H2322     1.0  0.57288  0.82252  0.67187  1.0000
  H   H2323     1.0  0.59693  0.47773  0.69513  1.0000
  H   H2324     1.0  0.75806  0.83218  0.68929  1.0000
  C   C2910     1.0  0.75420  0.60336  0.73590  1.0000
  H   H2325     1.0  0.74926  0.59375  0.72186  1.0000
  C   C2911     1.0  0.71391  0.53562  0.66514  1.0000
  H   H2326     1.0  0.66613  0.86795  0.66553  1.0000
  S   S386      1.0  0.75460  0.54347  0.92878  1.0000
  C   C2912     1.0  0.58530  0.48922  0.70187  1.0000
  C   C2913     1.0  0.67410  0.65704  0.99648  1.0000
  H   H2327     1.0  0.66751  0.48297  0.67517  1.0000
  H   H2328     1.0  0.51867  0.68022  0.69130  1.0000
  C   C2914     1.0  0.55870  0.49098  0.72577  1.0000
  C   C2915     1.0  0.51397  0.71211  0.71398  1.0000
  H   H2329     1.0  0.51095  0.80602  0.71733  1.0000
  C   C2916     1.0  0.52086  0.89748  0.99729  1.0000
  H   H2330     1.0  0.60876  0.77228  0.66416  1.0000
  Fe  Fe193     1.0  0.95568  0.30244  0.32272  1.0000
  C   C2917     1.0  0.96048  0.97904  0.24381  1.0000
  H   H2331     1.0  0.76067  0.01977  0.02371  1.0000
  H   H2332     1.0  0.85698  0.13201  0.02281  1.0000
  H   H2333     1.0  0.76215  0.00542  0.25014  1.0000
  C   C2918     1.0  0.00632  0.36268  0.27573  1.0000
  S   S387      1.0  0.96194  0.31419  0.28820  1.0000
  H   H2334     1.0  0.88156  0.43556  0.24716  1.0000
  C   C2919     1.0  0.82251  0.06974  0.23879  1.0000
  H   H2335     1.0  0.90256  0.06824  0.31086  1.0000
  C   C2920     1.0  0.97713  0.34115  0.25413  1.0000
  C   C2921     1.0  0.97848  0.33577  0.27582  1.0000
  C   C2922     1.0  0.99307  0.34697  0.28662  1.0000
  C   C2923     1.0  0.78356  0.15019  0.01509  1.0000
  C   C2924     1.0  0.76162  0.99130  0.99839  1.0000
  H   H2336     1.0  0.76058  0.42218  0.26374  1.0000
  C   C2925     1.0  0.80947  0.97617  0.29061  1.0000
  H   H2337     1.0  0.96558  0.33342  0.24577  1.0000
  C   C2926     1.0  0.88713  0.44680  0.29950  1.0000
  H   H2338     1.0  0.94443  0.36176  0.06719  1.0000
  C   C2927     1.0  0.88780  0.43464  0.26247  1.0000
  C   C2928     1.0  0.76515  0.21072  0.01494  1.0000
  H   H2339     1.0  0.96868  0.28042  0.18199  1.0000
  H   H2340     1.0  0.77399  0.45947  0.03259  1.0000
  H   H2341     1.0  0.98011  0.23278  0.18269  1.0000
  H   H2342     1.0  0.83404  0.05947  0.26888  1.0000
  C   C2929     1.0  0.93156  0.34204  0.01875  1.0000
  C   C2930     1.0  0.78113  0.02481  0.09151  1.0000
  C   C2931     1.0  0.80546  0.11508  0.00346  1.0000
  C   C2932     1.0  0.78068  0.12322  0.20588  1.0000
  C   C2933     1.0  0.76247  0.09667  0.18245  1.0000
  H   H2343     1.0  0.81588  0.99545  0.28776  1.0000
  H   H2344     1.0  0.79179  0.97971  0.26394  1.0000
  H   H2345     1.0  0.87168  0.21167  0.33044  1.0000
  H   H2346     1.0  0.91133  0.41014  0.25183  1.0000
  H   H2347     1.0  0.76815  0.45567  0.29872  1.0000
  H   H2348     1.0  0.80329  0.05367  0.28648  1.0000
  H   H2349     1.0  0.83591  0.07205  0.23106  1.0000
  C   C2934     1.0  0.79312  0.12571  0.01871  1.0000
  C   C2935     1.0  0.93179  0.35686  0.03739  1.0000
  C   C2936     1.0  0.99296  0.17612  0.25015  1.0000
  P   P97       1.0  0.98702  0.23054  0.26006  1.0000
  C   C2937     1.0  0.77449  0.23206  0.02416  1.0000
  C   C2938     1.0  0.98051  0.24594  0.23534  1.0000
  C   C2939     1.0  0.98236  0.23142  0.21648  1.0000
  C   C2940     1.0  0.97823  0.24388  0.19730  1.0000
  S   S388      1.0  0.93853  0.26543  0.32812  1.0000
  C   C2941     1.0  0.96967  0.28526  0.21559  1.0000
  C   C2942     1.0  0.97397  0.27290  0.23476  1.0000
  H   H2350     1.0  0.81210  0.09545  0.00591  1.0000
  C   C2943     1.0  0.80900  0.42085  0.30365  1.0000
  H   H2351     1.0  0.76918  0.06516  0.09349  1.0000
  C   C2944     1.0  0.97235  0.36421  0.09617  1.0000
  H   H2352     1.0  0.92337  0.19961  0.30817  1.0000
  C   C2945     1.0  0.96673  0.22087  0.27523  1.0000
  C   C2946     1.0  0.94930  0.23312  0.27160  1.0000
  C   C2947     1.0  0.93369  0.22522  0.28328  1.0000
  C   C2948     1.0  0.93538  0.20533  0.29885  1.0000
  C   C2949     1.0  0.95270  0.19341  0.30284  1.0000
  C   C2950     1.0  0.96830  0.20100  0.29103  1.0000
  C   C2951     1.0  0.80226  0.39504  0.30755  1.0000
  H   H2353     1.0  0.92183  0.34748  0.00661  1.0000
  C   C2952     1.0  0.79662  0.44262  0.30059  1.0000
  C   C2953     1.0  0.97030  0.37688  0.11571  1.0000
  H   H2354     1.0  0.97800  0.17475  0.25032  1.0000
  H   H2355     1.0  0.98703  0.21054  0.21648  1.0000
  H   H2356     1.0  0.79608  0.46482  0.06151  1.0000
  H   H2357     1.0  0.95291  0.22491  0.06613  1.0000
  H   H2358     1.0  0.96473  0.30612  0.21522  1.0000
  H   H2359     1.0  0.97226  0.28432  0.24920  1.0000
  H   H2360     1.0  0.99166  0.23816  0.30571  1.0000
  H   H2361     1.0  0.94395  0.30870  0.00124  1.0000
  H   H2362     1.0  0.78993  0.16132  0.19340  1.0000
  H   H2363     1.0  0.94769  0.24903  0.26003  1.0000
  H   H2364     1.0  0.92035  0.23507  0.28065  1.0000
  H   H2365     1.0  0.78688  0.24001  0.01687  1.0000
  H   H2366     1.0  0.96333  0.37187  0.14856  1.0000
  H   H2367     1.0  0.98165  0.19176  0.29458  1.0000
  C   C2954     1.0  0.00387  0.15328  0.24483  1.0000
  C   C2955     1.0  0.77927  0.99880  0.08349  1.0000
  H   H2368     1.0  0.91012  0.43039  0.31715  1.0000
  H   H2369     1.0  0.00826  0.33373  0.16755  1.0000
  H   H2370     1.0  0.81183  0.37814  0.31009  1.0000
  H   H2371     1.0  0.82379  0.42399  0.30307  1.0000
  C   C2956     1.0  0.99995  0.25419  0.27515  1.0000
  H   H2372     1.0  0.84879  0.08514  0.01372  1.0000
  H   H2373     1.0  0.91319  0.37716  0.32391  1.0000
  H   H2374     1.0  0.92217  0.37381  0.03973  1.0000
  H   H2375     1.0  0.95017  0.27368  0.05882  1.0000
  C   C2957     1.0  0.97937  0.21868  0.00382  1.0000
  H   H2376     1.0  0.78507  0.98553  0.19168  1.0000
  C   C2958     1.0  0.77060  0.41280  0.30536  1.0000
  C   C2959     1.0  0.99694  0.32984  0.06052  1.0000
  C   C2960     1.0  0.95664  0.31322  0.03123  1.0000
  C   C2961     1.0  0.95708  0.32800  0.05000  1.0000
  C   C2962     1.0  0.94451  0.34993  0.05295  1.0000
  P   P98       1.0  0.97418  0.31949  0.06954  1.0000
  H   H2377     1.0  0.79296  0.02939  0.10092  1.0000
  C   C2963     1.0  0.96884  0.33654  0.09416  1.0000
  C   C2964     1.0  0.96257  0.32202  0.11188  1.0000
  H   H2378     1.0  0.78696  0.12624  0.22096  1.0000
  H   H2379     1.0  0.93975  0.97564  0.26816  1.0000
  H   H2380     1.0  0.98172  0.17803  0.01639  1.0000
  C   C2965     1.0  0.99710  0.20546  0.03509  1.0000
  C   C2966     1.0  0.85370  0.09882  0.00158  1.0000
  H   H2381     1.0  0.00001  0.27295  0.02451  1.0000
  H   H2382     1.0  0.77354  0.15739  0.02681  1.0000
  C   C2967     1.0  0.90454  0.42029  0.26509  1.0000
  C   C2968     1.0  0.77414  0.13988  0.17088  1.0000
  C   C2969     1.0  0.97547  0.28351  0.07468  1.0000
  C   C2970     1.0  0.96181  0.26613  0.06770  1.0000
  C   C2971     1.0  0.96305  0.23844  0.07219  1.0000
  C   C2972     1.0  0.97746  0.22806  0.08436  1.0000
  C   C2973     1.0  0.99064  0.24537  0.09207  1.0000
  C   C2974     1.0  0.98981  0.27290  0.08703  1.0000
  Fe  Fe194     1.0  0.77074  0.02189  0.32901  1.0000
  H   H2383     1.0  0.00404  0.18902  0.18963  1.0000
  C   C2975     1.0  0.77745  0.02386  0.20591  1.0000
  H   H2384     1.0  0.96612  0.29618  0.02851  1.0000
  C   C2976     1.0  0.99044  0.35664  0.24319  1.0000
  H   H2385     1.0  0.77830  0.37085  0.31157  1.0000
  H   H2386     1.0  0.95610  0.32336  0.14509  1.0000
  C   C2977     1.0  0.00131  0.20065  0.25487  1.0000
  C   C2978     1.0  0.00208  0.32909  0.03909  1.0000
  H   H2387     1.0  0.79040  0.11439  0.03301  1.0000
  C   C2979     1.0  0.98570  0.19879  0.01826  1.0000
  C   C2980     1.0  0.96448  0.36215  0.13334  1.0000
  C   C2981     1.0  0.97184  0.27078  0.19687  1.0000
  C   C2982     1.0  0.87906  0.44771  0.27961  1.0000
  H   H2388     1.0  0.77502  0.25989  0.05016  1.0000
  S   S389      1.0  0.00525  0.17273  0.11473  1.0000
  P   P99       1.0  0.87522  0.46244  0.32185  1.0000
  H   H2389     1.0  0.97849  0.20654  0.08762  1.0000
  H   H2390     1.0  0.77523  0.15545  0.15888  1.0000
  C   C2983     1.0  0.76429  0.11660  0.16694  1.0000
  C   C2984     1.0  0.76295  0.04248  0.21084  1.0000
  C   C2985     1.0  0.78237  0.14317  0.19034  1.0000
  C   C2986     1.0  0.85832  0.12520  0.00668  1.0000
  H   H2391     1.0  0.89312  0.98198  0.30651  1.0000
  C   C2987     1.0  0.91251  0.41889  0.28487  1.0000
  C   C2988     1.0  0.99586  0.25230  0.02271  1.0000
  P   P100      1.0  0.76782  0.07469  0.22256  1.0000
  S   S390      1.0  0.76321  0.01827  0.29410  1.0000
  C   C2989     1.0  0.78884  0.07075  0.23737  1.0000
  C   C2990     1.0  0.78798  0.06352  0.25874  1.0000
  C   C2991     1.0  0.80421  0.05945  0.27001  1.0000
  C   C2992     1.0  0.90707  0.97940  0.31227  1.0000
  C   C2993     1.0  0.77386  0.99981  0.19547  1.0000
  C   C2994     1.0  0.80626  0.07368  0.22744  1.0000
  C   C2995     1.0  0.00519  0.36752  0.25393  1.0000
  H   H2392     1.0  0.99267  0.32234  0.02739  1.0000
  H   H2393     1.0  0.97372  0.39797  0.11733  1.0000
  H   H2394     1.0  0.98920  0.36038  0.22652  1.0000
  H   H2395     1.0  0.78968  0.98320  0.08664  1.0000
  H   H2396     1.0  0.95275  0.99450  0.23533  1.0000
  H   H2397     1.0  0.00359  0.28455  0.17325  1.0000
  H   H2398     1.0  0.99735  0.13445  0.24113  1.0000
  H   H2399     1.0  0.95414  0.17878  0.31551  1.0000
  C   C2996     1.0  0.90380  0.43195  0.30200  1.0000
  C   C2997     1.0  0.90725  0.07594  0.32567  1.0000
  C   C2998     1.0  0.99974  0.25292  0.29723  1.0000
  C   C2999     1.0  0.78315  0.39098  0.30838  1.0000
  C   C3000     1.0  0.96047  0.33481  0.13138  1.0000
  H   H2400     1.0  0.79158  0.02784  0.20994  1.0000
  C   C3001     1.0  0.77068  0.09981  0.20208  1.0000
  H   H2401     1.0  0.77484  0.06077  0.26683  1.0000
  H   H2402     1.0  0.92546  0.40761  0.28693  1.0000
  C   C3002     1.0  0.82148  0.06263  0.26008  1.0000
  H   H2403     1.0  0.99427  0.34329  0.30331  1.0000
  H   H2404     1.0  0.80732  0.07868  0.21087  1.0000
  H   H2405     1.0  0.95971  0.30071  0.11088  1.0000
  C   C3003     1.0  0.77751  0.43861  0.30135  1.0000
  C   C3004     1.0  0.76775  0.04494  0.08735  1.0000
  C   C3005     1.0  0.76780  0.24345  0.04306  1.0000
  H   H2406     1.0  0.98336  0.97795  0.22137  1.0000
  H   H2407     1.0  0.80176  0.46268  0.29755  1.0000
  H   H2408     1.0  0.00652  0.33906  0.09172  1.0000
  H   H2409     1.0  0.86601  0.45844  0.27725  1.0000
  S   S391      1.0  0.00469  0.17926  0.05275  1.0000
  H   H2410     1.0  0.76359  0.07403  0.04040  1.0000
  H   H2411     1.0  0.97736  0.37576  0.08278  1.0000
  H   H2412     1.0  0.00018  0.28599  0.09306  1.0000
  C   C3006     1.0  0.86079  0.41145  0.32984  1.0000
  H   H2413     1.0  0.93299  0.05268  0.32463  1.0000
  C   C3007     1.0  0.91250  0.99427  0.32958  1.0000
  C   C3008     1.0  0.76394  0.99284  0.07147  1.0000
  C   C3009     1.0  0.94397  0.32020  0.01571  1.0000
  H   H2414     1.0  0.87289  0.40319  0.32155  1.0000
  C   C3010     1.0  0.98441  0.24565  0.00593  1.0000
  C   C3011     1.0  0.00216  0.23244  0.03716  1.0000
  H   H2415     1.0  0.00154  0.23741  0.10192  1.0000
  C   C3012     1.0  0.85822  0.09324  0.36734  1.0000
  C   C3013     1.0  0.99833  0.45922  0.53709  1.0000
  Fe  Fe195     1.0  0.95381  0.01499  0.45407  1.0000
  S   S392      1.0  0.97151  0.02694  0.42577  1.0000
  S   S393      1.0  0.96066  0.00636  0.48884  1.0000
  Fe  Fe196     1.0  0.91762  0.02506  0.42924  1.0000
  S   S394      1.0  0.93280  0.03635  0.39967  1.0000
  S   S395      1.0  0.88630  0.02877  0.43250  1.0000
  Fe  Fe197     1.0  0.95189  0.00088  0.40770  1.0000
  H   H2416     1.0  0.90175  0.08132  0.43739  1.0000
  Fe  Fe198     1.0  0.95068  0.06154  0.41994  1.0000
  S   S396      1.0  0.95174  0.10820  0.41671  1.0000
  S   S397      1.0  0.93515  0.98797  0.43599  1.0000
  S   S398      1.0  0.93459  0.05111  0.44952  1.0000
  S   S399      1.0  0.97509  0.29103  0.34884  1.0000
  Fe  Fe199     1.0  0.92129  0.28993  0.35120  1.0000
  S   S400      1.0  0.93838  0.27798  0.37876  1.0000
  S   S401      1.0  0.88992  0.28925  0.35099  1.0000
  Fe  Fe200     1.0  0.95475  0.31489  0.36969  1.0000
  S   S402      1.0  0.96004  0.34589  0.39515  1.0000
  Fe  Fe201     1.0  0.95670  0.25512  0.35544  1.0000
  S   S403      1.0  0.96646  0.21024  0.35586  1.0000
  S   S404      1.0  0.93649  0.32782  0.34337  1.0000
  H   H2417     1.0  0.76991  0.28052  0.50210  1.0000
  C   C3014     1.0  0.76434  0.41581  0.46121  1.0000
  Fe  Fe202     1.0  0.80561  0.29037  0.42673  1.0000
  S   S405      1.0  0.79533  0.28713  0.39413  1.0000
  S   S406      1.0  0.83668  0.28616  0.43237  1.0000
  Fe  Fe203     1.0  0.76631  0.30108  0.44484  1.0000
  Fe  Fe204     1.0  0.77279  0.26156  0.40749  1.0000
  Fe  Fe205     1.0  0.77764  0.32374  0.40196  1.0000
  H   H2418     1.0  0.94389  0.07081  0.35835  1.0000
  S   S407      1.0  0.78391  0.26269  0.44025  1.0000
  S   S408      1.0  0.78909  0.32859  0.43418  1.0000
  Fe  Fe206     1.0  0.76810  0.99871  0.37332  1.0000
  H   H2419     1.0  0.75896  0.36455  0.63718  1.0000
  H   H2420     1.0  0.92467  0.10369  0.37839  1.0000
  Fe  Fe207     1.0  0.77536  0.05961  0.36766  1.0000
  C   C3015     1.0  0.76430  0.40053  0.39707  1.0000
  Fe  Fe208     1.0  0.80542  0.01678  0.35582  1.0000
  S   S409      1.0  0.83628  0.00704  0.35380  1.0000
  S   S410      1.0  0.78961  0.02588  0.38554  1.0000
  C   C3016     1.0  0.89618  0.09469  0.33702  1.0000
  H   H2421     1.0  0.75883  0.38664  0.40865  1.0000
  H   H2422     1.0  0.77157  0.37298  0.45978  1.0000
  C   C3017     1.0  0.76108  0.38848  0.45716  1.0000
  C   C3018     1.0  0.90623  0.12397  0.43986  1.0000
  C   C3019     1.0  0.87884  0.17489  0.34718  1.0000
  C   C3020     1.0  0.89877  0.15085  0.40913  1.0000
  C   C3021     1.0  0.76756  0.44677  0.38387  1.0000
  H   H2423     1.0  0.85341  0.15998  0.37983  1.0000
  H   H2424     1.0  0.91162  0.12239  0.45558  1.0000
  H   H2425     1.0  0.82163  0.42565  0.39754  1.0000
  C   C3022     1.0  0.90502  0.14906  0.42973  1.0000
  H   H2426     1.0  0.90939  0.16704  0.43764  1.0000
  C   C3023     1.0  0.87592  0.28877  0.37417  1.0000
  C   C3024     1.0  0.88290  0.28201  0.39395  1.0000
  C   C3025     1.0  0.87081  0.28095  0.41172  1.0000
  C   C3026     1.0  0.85174  0.28686  0.40985  1.0000
  C   C3027     1.0  0.84506  0.29430  0.39014  1.0000
  C   C3028     1.0  0.85698  0.29495  0.37244  1.0000
  H   H2427     1.0  0.89751  0.27730  0.39551  1.0000
  H   H2428     1.0  0.87626  0.27555  0.42690  1.0000
  H   H2429     1.0  0.83076  0.30011  0.38841  1.0000
  H   H2430     1.0  0.85146  0.30048  0.35730  1.0000
  C   C3029     1.0  0.84999  0.01291  0.37590  1.0000
  C   C3030     1.0  0.86936  0.01084  0.37373  1.0000
  C   C3031     1.0  0.88072  0.01567  0.39092  1.0000
  C   C3032     1.0  0.87271  0.02257  0.41045  1.0000
  C   C3033     1.0  0.85335  0.02455  0.41264  1.0000
  C   C3034     1.0  0.84202  0.01974  0.39546  1.0000
  H   H2431     1.0  0.87557  0.00543  0.35868  1.0000
  H   H2432     1.0  0.89563  0.01389  0.38910  1.0000
  H   H2433     1.0  0.84714  0.02987  0.42771  1.0000
  H   H2434     1.0  0.82715  0.02123  0.39743  1.0000
  C   C3035     1.0  0.95484  0.13599  0.39886  1.0000
  C   C3036     1.0  0.95016  0.16243  0.40574  1.0000
  C   C3037     1.0  0.95301  0.18524  0.39265  1.0000
  C   C3038     1.0  0.96098  0.18205  0.37251  1.0000
  C   C3039     1.0  0.96539  0.15559  0.36549  1.0000
  C   C3040     1.0  0.96220  0.13273  0.37845  1.0000
  H   H2435     1.0  0.94457  0.16531  0.42150  1.0000
  H   H2436     1.0  0.94958  0.20534  0.39839  1.0000
  H   H2437     1.0  0.97161  0.15275  0.35001  1.0000
  H   H2438     1.0  0.96597  0.11267  0.37288  1.0000
  C   C3041     1.0  0.96387  0.43790  0.38397  1.0000
  C   C3042     1.0  0.96189  0.42723  0.40426  1.0000
  C   C3043     1.0  0.96011  0.39919  0.40733  1.0000
  C   C3044     1.0  0.96045  0.38133  0.39021  1.0000
  C   C3045     1.0  0.96205  0.39201  0.36985  1.0000
  C   C3046     1.0  0.96381  0.42014  0.36678  1.0000
  H   H2439     1.0  0.96249  0.44047  0.41764  1.0000
  H   H2440     1.0  0.95871  0.39127  0.42311  1.0000
  H   H2441     1.0  0.96241  0.37855  0.35649  1.0000
  H   H2442     1.0  0.96546  0.42812  0.35100  1.0000
  H   H2443     1.0  0.99836  0.32188  0.40736  1.0000
  C   C3047     1.0  0.89898  0.21309  0.34315  1.0000
  S   S411      1.0  0.79262  0.05171  0.33814  1.0000
  H   H2444     1.0  0.82032  0.14874  0.37886  1.0000
  C   C3048     1.0  0.89425  0.12733  0.39828  1.0000
  C   C3049     1.0  0.83094  0.13336  0.37538  1.0000
  C   C3050     1.0  0.92439  0.06720  0.33338  1.0000
  C   C3051     1.0  0.89215  0.16129  0.35943  1.0000
  C   C3052     1.0  0.97703  0.98724  0.50412  1.0000
  H   H2445     1.0  0.86585  0.16571  0.34369  1.0000
  H   H2446     1.0  0.76334  0.00511  0.42964  1.0000
  H   H2447     1.0  0.92035  0.16238  0.37040  1.0000
  H   H2448     1.0  0.79550  0.40106  0.51299  1.0000
  C   C3053     1.0  0.79980  0.44520  0.45350  1.0000
  H   H2449     1.0  0.98712  0.36389  0.42423  1.0000
  H   H2450     1.0  0.97506  0.35318  0.46180  1.0000
  C   C3054     1.0  0.77032  0.19005  0.38719  1.0000
  H   H2451     1.0  0.89160  0.08383  0.40079  1.0000
  H   H2452     1.0  0.92444  0.39611  0.47808  1.0000
  C   C3055     1.0  0.97714  0.39682  0.46369  1.0000
  H   H2453     1.0  0.80258  0.29457  0.50108  1.0000
  C   C3056     1.0  0.82199  0.35128  0.48988  1.0000
  H   H2454     1.0  0.81125  0.10214  0.37049  1.0000
  C   C3057     1.0  0.75997  0.33609  0.61163  1.0000
  C   C3058     1.0  0.76218  0.36150  0.62061  1.0000
  C   C3059     1.0  0.77477  0.39055  0.37992  1.0000
  C   C3060     1.0  0.89117  0.46977  0.34256  1.0000
  C   C3061     1.0  0.77395  0.29746  0.55368  1.0000
  C   C3062     1.0  0.76346  0.33213  0.59001  1.0000
  C   C3063     1.0  0.77289  0.14764  0.40673  1.0000
  S   S412      1.0  0.76701  0.22593  0.38572  1.0000
  H   H2455     1.0  0.86850  0.07714  0.36491  1.0000
  C   C3064     1.0  0.77074  0.37970  0.58653  1.0000
  H   H2456     1.0  0.86945  0.19871  0.41022  1.0000
  C   C3065     1.0  0.79251  0.30539  0.55297  1.0000
  C   C3066     1.0  0.80287  0.30405  0.53413  1.0000
  C   C3067     1.0  0.79474  0.29505  0.51581  1.0000
  S   S413      1.0  0.77328  0.09635  0.38982  1.0000
  C   C3068     1.0  0.76590  0.28845  0.53517  1.0000
  C   C3069     1.0  0.76852  0.27337  0.59642  1.0000
  C   C3070     1.0  0.78565  0.25958  0.59342  1.0000
  C   C3071     1.0  0.79165  0.24016  0.60803  1.0000
  C   C3072     1.0  0.78065  0.23441  0.62577  1.0000
  C   C3073     1.0  0.76356  0.24788  0.62881  1.0000
  C   C3074     1.0  0.00577  0.39262  0.50082  1.0000
  H   H2457     1.0  0.82510  0.43947  0.47084  1.0000
  C   C3075     1.0  0.96733  0.42099  0.46849  1.0000
  H   H2458     1.0  0.90288  0.00848  0.33720  1.0000
  H   H2459     1.0  0.97420  0.44017  0.46818  1.0000
  C   C3076     1.0  0.93035  0.99060  0.33726  1.0000
  H   H2460     1.0  0.00637  0.20238  0.61986  1.0000
  C   C3077     1.0  0.84248  0.44956  0.34340  1.0000
  C   C3078     1.0  0.77196  0.17622  0.40632  1.0000
  H   H2461     1.0  0.83039  0.33359  0.49386  1.0000
  H   H2462     1.0  0.94159  0.35313  0.46990  1.0000
  H   H2463     1.0  0.79892  0.31270  0.56701  1.0000
  H   H2464     1.0  0.81717  0.31018  0.53370  1.0000
  C   C3079     1.0  0.83944  0.08698  0.36692  1.0000
  H   H2465     1.0  0.82860  0.23416  0.45156  1.0000
  C   C3080     1.0  0.82580  0.10707  0.37070  1.0000
  H   H2466     1.0  0.79448  0.26364  0.57991  1.0000
  C   C3081     1.0  0.91175  0.41483  0.42452  1.0000
  H   H2467     1.0  0.78533  0.21946  0.63713  1.0000
  C   C3082     1.0  0.78003  0.44592  0.49521  1.0000
  H   H2468     1.0  0.77139  0.13502  0.35438  1.0000
  H   H2469     1.0  0.82221  0.39003  0.35606  1.0000
  C   C3083     1.0  0.90206  0.10440  0.35639  1.0000
  C   C3084     1.0  0.00742  0.45210  0.44827  1.0000
  H   H2470     1.0  0.80710  0.15163  0.43074  1.0000
  H   H2471     1.0  0.81203  0.04540  0.44907  1.0000
  H   H2472     1.0  0.92592  0.20832  0.35672  1.0000
  H   H2473     1.0  0.88302  0.10150  0.33077  1.0000
  C   C3085     1.0  0.78701  0.97924  0.43625  1.0000
  H   H2474     1.0  0.80104  0.10459  0.42067  1.0000
  H   H2475     1.0  0.82693  0.07118  0.41652  1.0000
  C   C3086     1.0  0.77752  0.00420  0.43495  1.0000
  S   S414      1.0  0.77957  0.35567  0.37635  1.0000
  C   C3087     1.0  0.77164  0.14630  0.36888  1.0000
  H   H2476     1.0  0.86232  0.14500  0.46958  1.0000
  H   H2477     1.0  0.78049  0.98312  0.51240  1.0000
  C   C3088     1.0  0.77819  0.43665  0.36693  1.0000
  C   C3089     1.0  0.90947  0.17304  0.36196  1.0000
  C   C3090     1.0  0.81313  0.36671  0.50570  1.0000
  H   H2478     1.0  0.78938  0.40110  0.35137  1.0000
  H   H2479     1.0  0.85915  0.08456  0.42286  1.0000
  C   C3091     1.0  0.82946  0.43179  0.35171  1.0000
  H   H2480     1.0  0.80491  0.22967  0.60567  1.0000
  H   H2481     1.0  0.81732  0.43971  0.36014  1.0000
  C   C3092     1.0  0.94881  0.37207  0.46968  1.0000
  C   C3093     1.0  0.82128  0.22114  0.38966  1.0000
  C   C3094     1.0  0.91949  0.09597  0.36380  1.0000
  H   H2482     1.0  0.96427  0.99998  0.53352  1.0000
  C   C3095     1.0  0.79994  0.39679  0.47934  1.0000
  P   P101      1.0  0.78596  0.42611  0.47210  1.0000
  H   H2483     1.0  0.80669  0.25212  0.47856  1.0000
  H   H2484     1.0  0.80970  0.20144  0.41678  1.0000
  C   C3096     1.0  0.99997  0.35460  0.42932  1.0000
  C   C3097     1.0  0.80550  0.97788  0.44256  1.0000
  H   H2485     1.0  0.80784  0.22730  0.38373  1.0000
  C   C3098     1.0  0.82241  0.20647  0.40845  1.0000
  H   H2486     1.0  0.85595  0.42603  0.39716  1.0000
  C   C3099     1.0  0.77028  0.17487  0.36850  1.0000
  C   C3100     1.0  0.93914  0.39625  0.47427  1.0000
  C   C3101     1.0  0.77633  0.28708  0.51639  1.0000
  H   H2487     1.0  0.82670  0.34652  0.45651  1.0000
  H   H2488     1.0  0.81467  0.36109  0.52204  1.0000
  H   H2489     1.0  0.00430  0.40302  0.41111  1.0000
  C   C3102     1.0  0.85815  0.43952  0.33217  1.0000
  C   C3103     1.0  0.81441  0.00192  0.44746  1.0000
  C   C3104     1.0  0.88218  0.20085  0.33933  1.0000
  H   H2490     1.0  0.86555  0.13164  0.43252  1.0000
  C   C3105     1.0  0.80901  0.38132  0.46357  1.0000
  H   H2491     1.0  0.78338  0.45018  0.35502  1.0000
  H   H2492     1.0  0.90735  0.19545  0.48520  1.0000
  H   H2493     1.0  0.80736  0.38664  0.44718  1.0000
  C   C3106     1.0  0.91376  0.39899  0.35311  1.0000
  H   H2494     1.0  0.81663  0.15290  0.47172  1.0000
  C   C3107     1.0  0.80219  0.38943  0.50048  1.0000
  C   C3108     1.0  0.81997  0.35863  0.46882  1.0000
  H   H2495     1.0  0.94106  0.43942  0.47772  1.0000
  C   C3109     1.0  0.77268  0.13244  0.38805  1.0000
  H   H2496     1.0  0.86575  0.22545  0.44335  1.0000
  H   H2497     1.0  0.97166  0.44267  0.53095  1.0000
  C   C3110     1.0  0.86351  0.11993  0.37107  1.0000
  H   H2498     1.0  0.79403  0.17122  0.49798  1.0000
  H   H2499     1.0  0.92496  0.41185  0.34806  1.0000
  C   C3111     1.0  0.78654  0.02805  0.43950  1.0000
  H   H2500     1.0  0.77403  0.39689  0.57663  1.0000
  H   H2501     1.0  0.89100  0.15214  0.48885  1.0000
  H   H2502     1.0  0.89794  0.17053  0.40174  1.0000
  C   C3112     1.0  0.89511  0.10228  0.40874  1.0000
  H   H2503     1.0  0.76893  0.18531  0.35361  1.0000
  C   C3113     1.0  0.90092  0.10072  0.42950  1.0000
  C   C3114     1.0  0.81880  0.44821  0.45700  1.0000
  H   H2504     1.0  0.83540  0.06645  0.36379  1.0000
  C   C3115     1.0  0.83743  0.22825  0.37870  1.0000
  H   H2505     1.0  0.76998  0.35248  0.56058  1.0000
  H   H2506     1.0  0.91197  0.41651  0.38353  1.0000
  H   H2507     1.0  0.92138  0.40001  0.41760  1.0000
  H   H2508     1.0  0.93446  0.00165  0.35102  1.0000
  C   C3116     1.0  0.91872  0.43667  0.43529  1.0000
  C   C3117     1.0  0.89258  0.41242  0.42231  1.0000
  C   C3118     1.0  0.88048  0.43113  0.43253  1.0000
  P   P102      1.0  0.88417  0.38425  0.40765  1.0000
  C   C3119     1.0  0.85916  0.38400  0.40657  1.0000
  C   C3120     1.0  0.89261  0.38384  0.38072  1.0000
  C   C3121     1.0  0.90641  0.40136  0.37352  1.0000
  H   H2509     1.0  0.89452  0.23205  0.46245  1.0000
  C   C3122     1.0  0.90714  0.37952  0.33956  1.0000
  C   C3123     1.0  0.89330  0.36219  0.34651  1.0000
  C   C3124     1.0  0.88611  0.36424  0.36703  1.0000
  C   C3125     1.0  0.84975  0.35985  0.40987  1.0000
  C   C3126     1.0  0.83045  0.35953  0.40899  1.0000
  C   C3127     1.0  0.82034  0.38335  0.40495  1.0000
  C   C3128     1.0  0.82957  0.40737  0.40109  1.0000
  C   C3129     1.0  0.84896  0.40754  0.40118  1.0000
  C   C3130     1.0  0.89347  0.35474  0.42096  1.0000
  C   C3131     1.0  0.90966  0.34145  0.41322  1.0000
  C   C3132     1.0  0.91746  0.31963  0.42426  1.0000
  C   C3133     1.0  0.90910  0.31070  0.44296  1.0000
  C   C3134     1.0  0.89310  0.32397  0.45088  1.0000
  C   C3135     1.0  0.88546  0.34617  0.44009  1.0000
  C   C3136     1.0  0.77312  0.04568  0.49148  1.0000
  C   C3137     1.0  0.78152  0.40870  0.36481  1.0000
  H   H2510     1.0  0.83652  0.24031  0.36447  1.0000
  S   S415      1.0  0.78506  0.98671  0.34483  1.0000
  H   H2511     1.0  0.86569  0.42889  0.43250  1.0000
  P   P103      1.0  0.88776  0.12852  0.37107  1.0000
  H   H2512     1.0  0.77162  0.34574  0.49262  1.0000
  C   C3138     1.0  0.90666  0.45594  0.44450  1.0000
  H   H2513     1.0  0.88862  0.34643  0.33627  1.0000
  H   H2514     1.0  0.87587  0.34995  0.37237  1.0000
  H   H2515     1.0  0.85728  0.34108  0.41275  1.0000
  H   H2516     1.0  0.82337  0.34068  0.41124  1.0000
  H   H2517     1.0  0.80536  0.38304  0.40452  1.0000
  H   H2518     1.0  0.86726  0.22618  0.37794  1.0000
  H   H2519     1.0  0.00032  0.27846  0.63107  1.0000
  H   H2520     1.0  0.91653  0.34803  0.39883  1.0000
  H   H2521     1.0  0.93007  0.30975  0.41825  1.0000
  H   H2522     1.0  0.91508  0.29354  0.45128  1.0000
  H   H2523     1.0  0.88657  0.31702  0.46534  1.0000
  H   H2524     1.0  0.87323  0.35652  0.44658  1.0000
  C   C3139     1.0  0.98192  0.45689  0.52567  1.0000
  C   C3140     1.0  0.80497  0.02690  0.44577  1.0000
  C   C3141     1.0  0.88563  0.16791  0.47858  1.0000
  C   C3142     1.0  0.89480  0.19234  0.47659  1.0000
  C   C3143     1.0  0.88765  0.21288  0.46370  1.0000
  C   C3144     1.0  0.87148  0.20885  0.45257  1.0000
  C   C3145     1.0  0.86270  0.18382  0.45362  1.0000
  C   C3146     1.0  0.86950  0.16378  0.46737  1.0000
  P   P104      1.0  0.84103  0.17946  0.44054  1.0000
  C   C3147     1.0  0.83673  0.14487  0.43341  1.0000
  C   C3148     1.0  0.82381  0.19219  0.45919  1.0000
  C   C3149     1.0  0.82110  0.22020  0.46156  1.0000
  C   C3150     1.0  0.80874  0.23045  0.47696  1.0000
  C   C3151     1.0  0.79881  0.21284  0.48992  1.0000
  C   C3152     1.0  0.80161  0.18489  0.48783  1.0000
  C   C3153     1.0  0.81426  0.17456  0.47271  1.0000
  C   C3154     1.0  0.85138  0.12589  0.43060  1.0000
  C   C3155     1.0  0.84782  0.09923  0.42494  1.0000
  C   C3156     1.0  0.82966  0.09155  0.42156  1.0000
  C   C3157     1.0  0.81505  0.11045  0.42386  1.0000
  C   C3158     1.0  0.81856  0.13708  0.42956  1.0000
  C   C3159     1.0  0.83977  0.19864  0.41635  1.0000
  C   C3160     1.0  0.85593  0.20513  0.40487  1.0000
  C   C3161     1.0  0.85475  0.22025  0.38630  1.0000
  C   C3162     1.0  0.83218  0.40386  0.34934  1.0000
  P   P105      1.0  0.00170  0.39760  0.45745  1.0000
  H   H2525     1.0  0.90143  0.23341  0.33739  1.0000
  C   C3163     1.0  0.76045  0.42854  0.39883  1.0000
  H   H2526     1.0  0.89421  0.46829  0.39606  1.0000
  C   C3164     1.0  0.94847  0.42064  0.47397  1.0000
  H   H2527     1.0  0.76926  0.40298  0.61505  1.0000
  C   C3165     1.0  0.96780  0.37225  0.46478  1.0000
  C   C3166     1.0  0.91273  0.19901  0.35415  1.0000
  C   C3167     1.0  0.97535  0.98792  0.52624  1.0000
  C   C3168     1.0  0.88755  0.45308  0.44325  1.0000
  H   H2528     1.0  0.77932  0.04741  0.43763  1.0000
  H   H2529     1.0  0.82864  0.00161  0.45241  1.0000
  H   H2530     1.0  0.79761  0.02083  0.49640  1.0000
  C   C3169     1.0  0.93054  0.07735  0.35237  1.0000
  C   C3170     1.0  0.00638  0.33072  0.41968  1.0000
  C   C3171     1.0  0.76843  0.35436  0.57747  1.0000
  C   C3172     1.0  0.84971  0.13966  0.37585  1.0000
  H   H2531     1.0  0.93353  0.43866  0.43632  1.0000
  C   C3173     1.0  0.76787  0.38318  0.60813  1.0000
  C   C3174     1.0  0.76511  0.43836  0.50835  1.0000
  H   H2532     1.0  0.99263  0.38258  0.50117  1.0000
  H   H2533     1.0  0.77339  0.13722  0.42168  1.0000
  H   H2534     1.0  0.78897  0.22089  0.50154  1.0000
  C   C3175     1.0  0.79011  0.46877  0.50034  1.0000
  S   S416      1.0  0.00163  0.43855  0.56001  1.0000
  C   C3176     1.0  0.79202  0.45696  0.43550  1.0000
  H   H2535     1.0  0.76703  0.37760  0.52255  1.0000
  H   H2536     1.0  0.77746  0.45524  0.43233  1.0000
  C   C3177     1.0  0.76046  0.45326  0.52640  1.0000
  P   P106      1.0  0.76071  0.29932  0.57816  1.0000
  H   H2537     1.0  0.98624  0.97398  0.55603  1.0000
  H   H2538     1.0  0.00790  0.44225  0.38784  1.0000
  H   H2539     1.0  0.78065  0.06207  0.48420  1.0000
  C   C3178     1.0  0.84787  0.39371  0.33848  1.0000
  H   H2540     1.0  0.85008  0.37203  0.33687  1.0000
  H   H2541     1.0  0.87832  0.46816  0.45048  1.0000
  H   H2542     1.0  0.77177  0.18751  0.42084  1.0000
  C   C3179     1.0  0.98783  0.97319  0.53910  1.0000
  C   C3180     1.0  0.88581  0.46640  0.36379  1.0000
  H   H2543     1.0  0.87190  0.46079  0.36820  1.0000
  C   C3181     1.0  0.00615  0.42258  0.41811  1.0000
  H   H2544     1.0  0.76314  0.99461  0.55389  1.0000
  C   C3182     1.0  0.78267  0.02246  0.49838  1.0000
  C   C3183     1.0  0.82976  0.46277  0.44277  1.0000
  H   H2545     1.0  0.84429  0.46549  0.44573  1.0000
  H   H2546     1.0  0.96572  0.47122  0.49934  1.0000
  H   H2547     1.0  0.88206  0.97308  0.43893  1.0000
  C   C3184     1.0  0.00568  0.42599  0.44003  1.0000
  H   H2548     1.0  0.00660  0.45561  0.46506  1.0000
  C   C3185     1.0  0.77292  0.00116  0.50750  1.0000
  C   C3186     1.0  0.80310  0.47128  0.42121  1.0000
  H   H2549     1.0  0.84039  0.47114  0.34589  1.0000
  C   C3187     1.0  0.89845  0.47052  0.37972  1.0000
  C   C3188     1.0  0.76372  0.97271  0.55460  1.0000
  Fe  Fe209     1.0  0.92325  0.28238  0.93561  1.0000
  S   S417      1.0  0.93655  0.28784  0.90387  1.0000
  S   S418      1.0  0.89181  0.28311  0.93961  1.0000
  Fe  Fe210     1.0  0.96083  0.27483  0.95725  1.0000
  S   S419      1.0  0.97628  0.28033  0.92624  1.0000
  C   C3189     1.0  0.98656  0.99823  0.71453  1.0000
  Fe  Fe211     1.0  0.95612  0.31509  0.91981  1.0000
  S   S420      1.0  0.96530  0.35363  0.90243  1.0000
  Fe  Fe212     1.0  0.95503  0.25282  0.91309  1.0000
  S   S421      1.0  0.95863  0.22143  0.88722  1.0000
  S   S422      1.0  0.94190  0.31147  0.95154  1.0000
  S   S423      1.0  0.94065  0.24553  0.94414  1.0000
  Fe  Fe213     1.0  0.95869  0.06571  0.87367  1.0000
  S   S424      1.0  0.94299  0.08248  0.84632  1.0000
  S   S425      1.0  0.96631  0.09400  0.89993  1.0000
  Fe  Fe214     1.0  0.95632  0.00651  0.85940  1.0000
  S   S426      1.0  0.94044  0.02011  0.83094  1.0000
  C   C3190     1.0  0.90650  0.17990  0.96534  1.0000
  Fe  Fe215     1.0  0.96076  0.05369  0.82686  1.0000
  S   S427      1.0  0.97043  0.06177  0.79280  1.0000
  Fe  Fe216     1.0  0.92432  0.04786  0.85270  1.0000
  S   S428      1.0  0.89328  0.05402  0.85024  1.0000
  S   S429      1.0  0.97790  0.03853  0.85396  1.0000
  S   S430      1.0  0.93872  0.03251  0.88141  1.0000
  C   C3191     1.0  0.80742  0.21987  0.98295  1.0000
  C   C3192     1.0  0.81962  0.23660  0.97191  1.0000
  Fe  Fe217     1.0  0.81204  0.28354  0.85802  1.0000
  S   S431      1.0  0.79422  0.29668  0.88556  1.0000
  S   S432      1.0  0.84340  0.28471  0.85731  1.0000
  Fe  Fe218     1.0  0.77852  0.27036  0.83043  1.0000
  Fe  Fe219     1.0  0.77679  0.31900  0.86184  1.0000
  Fe  Fe220     1.0  0.77778  0.25990  0.87774  1.0000
  C   C3193     1.0  0.91942  0.26893  0.83561  1.0000
  S   S433      1.0  0.79567  0.30749  0.83436  1.0000
  S   S434      1.0  0.79690  0.24551  0.85176  1.0000
  Fe  Fe221     1.0  0.81510  0.04900  0.93434  1.0000
  S   S435      1.0  0.79950  0.03675  0.90612  1.0000
  S   S436      1.0  0.84631  0.05028  0.93553  1.0000
  Fe  Fe222     1.0  0.77959  0.05696  0.96200  1.0000
  Fe  Fe223     1.0  0.78264  0.01093  0.92818  1.0000
  Fe  Fe224     1.0  0.78018  0.07155  0.91566  1.0000
  C   C3194     1.0  0.96074  0.14071  0.87653  1.0000
  S   S437      1.0  0.79951  0.02182  0.95614  1.0000
  S   S438      1.0  0.79703  0.08520  0.94257  1.0000
  C   C3195     1.0  0.78275  0.41168  0.91172  1.0000
  H   H2550     1.0  0.93112  0.19755  0.97729  1.0000
  H   H2551     1.0  0.93532  0.13893  0.83080  1.0000
  H   H2552     1.0  0.00457  0.16936  0.82560  1.0000
  C   C3196     1.0  0.96688  0.24193  0.75173  1.0000
  C   C3197     1.0  0.90336  0.99069  0.94053  1.0000
  H   H2553     1.0  0.80130  0.16408  0.96617  1.0000
  H   H2554     1.0  0.86063  0.36288  0.87213  1.0000
  C   C3198     1.0  0.82925  0.45320  0.93002  1.0000
  C   C3199     1.0  0.78034  0.38900  0.89863  1.0000
  C   C3200     1.0  0.88034  0.05328  0.87401  1.0000
  C   C3201     1.0  0.88895  0.05516  0.89338  1.0000
  C   C3202     1.0  0.87838  0.05401  0.91215  1.0000
  C   C3203     1.0  0.85913  0.05117  0.91168  1.0000
  C   C3204     1.0  0.85050  0.04959  0.89230  1.0000
  C   C3205     1.0  0.86107  0.05068  0.87352  1.0000
  H   H2555     1.0  0.90374  0.05752  0.89391  1.0000
  H   H2556     1.0  0.88513  0.05553  0.92705  1.0000
  H   H2557     1.0  0.83568  0.04784  0.89170  1.0000
  H   H2558     1.0  0.85430  0.04951  0.85857  1.0000
  C   C3206     1.0  0.98429  0.08711  0.78085  1.0000
  H   H2559     1.0  0.89310  0.08563  0.81146  1.0000
  H   H2560     1.0  0.95883  0.17753  0.85842  1.0000
  S   S439      1.0  0.76144  0.04473  0.93540  1.0000
  H   H2561     1.0  0.87998  0.99957  0.96165  1.0000
  C   C3207     1.0  0.99237  0.10747  0.79246  1.0000
  C   C3208     1.0  0.77581  0.18045  0.81815  1.0000
  C   C3209     1.0  0.99235  0.25678  0.86410  1.0000
  P   P107      1.0  0.77357  0.19531  0.99068  1.0000
  C   C3210     1.0  0.87806  0.28585  0.91691  1.0000
  C   C3211     1.0  0.85895  0.28132  0.91856  1.0000
  C   C3212     1.0  0.84792  0.28175  0.90053  1.0000
  C   C3213     1.0  0.85602  0.28650  0.88070  1.0000
  C   C3214     1.0  0.87496  0.29183  0.87916  1.0000
  C   C3215     1.0  0.88588  0.29167  0.89714  1.0000
  H   H2562     1.0  0.85278  0.27712  0.93380  1.0000
  H   H2563     1.0  0.83327  0.27787  0.90192  1.0000
  H   H2564     1.0  0.88125  0.29598  0.86394  1.0000
  H   H2565     1.0  0.90032  0.29605  0.89557  1.0000
  C   C3216     1.0  0.95934  0.18607  0.89153  1.0000
  C   C3217     1.0  0.95934  0.16893  0.87404  1.0000
  H   H2566     1.0  0.98547  0.02094  0.76094  1.0000
  C   C3218     1.0  0.96268  0.12933  0.89655  1.0000
  C   C3219     1.0  0.96249  0.14646  0.91411  1.0000
  C   C3220     1.0  0.96060  0.17474  0.91166  1.0000
  C   C3221     1.0  0.98683  0.08712  0.75883  1.0000
  H   H2567     1.0  0.76218  0.46060  0.88200  1.0000
  H   H2568     1.0  0.96396  0.13782  0.92966  1.0000
  H   H2569     1.0  0.96056  0.18774  0.92527  1.0000
  C   C3222     1.0  0.96368  0.38785  0.89301  1.0000
  C   C3223     1.0  0.94930  0.40651  0.89861  1.0000
  C   C3224     1.0  0.94917  0.43338  0.89034  1.0000
  C   C3225     1.0  0.96333  0.44164  0.87627  1.0000
  C   C3226     1.0  0.97747  0.42281  0.87082  1.0000
  C   C3227     1.0  0.97768  0.39641  0.87909  1.0000
  H   H2570     1.0  0.93842  0.40036  0.90943  1.0000
  H   H2571     1.0  0.93826  0.44765  0.89496  1.0000
  H   H2572     1.0  0.92154  0.46763  0.86335  1.0000
  C   C3228     1.0  0.77623  0.43780  0.90599  1.0000
  H   H2573     1.0  0.89262  0.04174  0.97491  1.0000
  C   C3229     1.0  0.93513  0.25539  0.84317  1.0000
  H   H2574     1.0  0.92314  0.05751  0.96161  1.0000
  C   C3230     1.0  0.89766  0.14804  0.78952  1.0000
  C   C3231     1.0  0.99994  0.45295  0.69488  1.0000
  H   H2575     1.0  0.99049  0.10781  0.80937  1.0000
  C   C3232     1.0  0.88079  0.12247  0.82402  1.0000
  C   C3233     1.0  0.87859  0.15063  0.82152  1.0000
  C   C3234     1.0  0.88711  0.16328  0.80414  1.0000
  P   P108      1.0  0.86544  0.17108  0.84035  1.0000
  C   C3235     1.0  0.84923  0.19160  0.82545  1.0000
  C   C3236     1.0  0.85329  0.15015  0.85923  1.0000
  C   C3237     1.0  0.83384  0.14908  0.85994  1.0000
  C   C3238     1.0  0.82495  0.13243  0.87467  1.0000
  C   C3239     1.0  0.83530  0.11731  0.88907  1.0000
  C   C3240     1.0  0.85459  0.11888  0.88881  1.0000
  C   C3241     1.0  0.86354  0.13502  0.87387  1.0000
  C   C3242     1.0  0.84763  0.21977  0.82813  1.0000
  C   C3243     1.0  0.83495  0.23509  0.81639  1.0000
  C   C3244     1.0  0.82387  0.22256  0.80183  1.0000
  C   C3245     1.0  0.82565  0.19466  0.79873  1.0000
  C   C3246     1.0  0.83828  0.17922  0.81046  1.0000
  C   C3247     1.0  0.88088  0.19110  0.85548  1.0000
  C   C3248     1.0  0.90019  0.18923  0.85217  1.0000
  C   C3249     1.0  0.91193  0.20381  0.86483  1.0000
  C   C3250     1.0  0.90454  0.22036  0.88081  1.0000
  C   C3251     1.0  0.88538  0.22223  0.88422  1.0000
  C   C3252     1.0  0.87359  0.20752  0.87176  1.0000
  C   C3253     1.0  0.95188  0.13729  0.78038  1.0000
  C   C3254     1.0  0.93795  0.21812  0.75321  1.0000
  H   H2576     1.0  0.87448  0.11189  0.83715  1.0000
  H   H2577     1.0  0.88569  0.18499  0.80202  1.0000
  H   H2578     1.0  0.82544  0.16094  0.84927  1.0000
  H   H2579     1.0  0.80999  0.13115  0.87494  1.0000
  H   H2580     1.0  0.82838  0.10434  0.90040  1.0000
  H   H2581     1.0  0.86267  0.10720  0.89996  1.0000
  H   H2582     1.0  0.87851  0.13526  0.87341  1.0000
  H   H2583     1.0  0.85602  0.23020  0.83918  1.0000
  H   H2584     1.0  0.83358  0.25676  0.81877  1.0000
  H   H2585     1.0  0.81387  0.23452  0.79302  1.0000
  H   H2586     1.0  0.81716  0.18510  0.78725  1.0000
  H   H2587     1.0  0.83946  0.15758  0.80796  1.0000
  H   H2588     1.0  0.90633  0.17621  0.84018  1.0000
  H   H2589     1.0  0.92681  0.20215  0.86244  1.0000
  H   H2590     1.0  0.91369  0.23164  0.89062  1.0000
  H   H2591     1.0  0.87966  0.23506  0.89660  1.0000
  H   H2592     1.0  0.85875  0.20906  0.87471  1.0000
  C   C3255     1.0  0.90850  0.14103  0.89847  1.0000
  C   C3256     1.0  0.91674  0.11603  0.90332  1.0000
  C   C3257     1.0  0.91254  0.10347  0.92244  1.0000
  C   C3258     1.0  0.89969  0.11552  0.93653  1.0000
  C   C3259     1.0  0.89053  0.14003  0.93127  1.0000
  C   C3260     1.0  0.89538  0.15297  0.91231  1.0000
  P   P109      1.0  0.87474  0.15695  0.94974  1.0000
  C   C3261     1.0  0.86650  0.13413  0.97003  1.0000
  C   C3262     1.0  0.88742  0.18346  0.96196  1.0000
  C   C3263     1.0  0.87830  0.20744  0.96873  1.0000
  H   H2593     1.0  0.97926  0.24903  0.75896  1.0000
  H   H2594     1.0  0.99940  0.12864  0.84763  1.0000
  C   C3264     1.0  0.78299  0.23262  0.95906  1.0000
  C   C3265     1.0  0.99919  0.22018  0.94541  1.0000
  C   C3266     1.0  0.80861  0.12924  0.98474  1.0000
  C   C3267     1.0  0.99232  0.00369  0.76830  1.0000
  H   H2595     1.0  0.98695  0.97827  0.72163  1.0000
  H   H2596     1.0  0.98944  0.21528  0.91411  1.0000
  C   C3268     1.0  0.86153  0.10770  0.96502  1.0000
  C   C3269     1.0  0.85502  0.17067  0.93565  1.0000
  C   C3270     1.0  0.83868  0.15599  0.93425  1.0000
  C   C3271     1.0  0.82333  0.16699  0.92388  1.0000
  C   C3272     1.0  0.82413  0.19266  0.91472  1.0000
  C   C3273     1.0  0.84038  0.20723  0.91575  1.0000
  C   C3274     1.0  0.85581  0.19626  0.92600  1.0000
  H   H2597     1.0  0.91240  0.15113  0.88398  1.0000
  H   H2598     1.0  0.92666  0.10656  0.89243  1.0000
  H   H2599     1.0  0.91947  0.08446  0.92630  1.0000
  H   H2600     1.0  0.89719  0.10578  0.95153  1.0000
  H   H2601     1.0  0.88925  0.17244  0.90830  1.0000
  H   H2602     1.0  0.86355  0.21049  0.96672  1.0000
  H   H2603     1.0  0.00398  0.41358  0.73857  1.0000
  H   H2604     1.0  0.88139  0.24695  0.98223  1.0000
  C   C3275     1.0  0.77292  0.14907  0.91478  1.0000
  H   H2605     1.0  0.98065  0.07153  0.74964  1.0000
  C   C3276     1.0  0.86230  0.46730  0.90947  1.0000
  H   H2606     1.0  0.90268  0.44141  0.88867  1.0000
  H   H2607     1.0  0.91386  0.16152  0.96051  1.0000
  C   C3277     1.0  0.97197  0.03049  0.69092  1.0000
  H   H2608     1.0  0.86246  0.10064  0.94891  1.0000
  H   H2609     1.0  0.83768  0.13594  0.94091  1.0000
  H   H2610     1.0  0.81085  0.15546  0.92272  1.0000
  H   H2611     1.0  0.81219  0.20121  0.90673  1.0000
  H   H2612     1.0  0.84100  0.22705  0.90849  1.0000
  H   H2613     1.0  0.86828  0.20790  0.92653  1.0000
  C   C3278     1.0  0.85480  0.44188  0.90571  1.0000
  H   H2614     1.0  0.94205  0.10665  0.80167  1.0000
  P   P110      1.0  0.86553  0.41892  0.88665  1.0000
  C   C3279     1.0  0.87971  0.39338  0.89957  1.0000
  C   C3280     1.0  0.84704  0.40261  0.87329  1.0000
  C   C3281     1.0  0.83080  0.41743  0.86833  1.0000
  C   C3282     1.0  0.81602  0.40464  0.85910  1.0000
  C   C3283     1.0  0.89628  0.38346  0.88998  1.0000
  C   C3284     1.0  0.90692  0.36320  0.89977  1.0000
  C   C3285     1.0  0.90087  0.35214  0.91886  1.0000
  C   C3286     1.0  0.88417  0.36128  0.92820  1.0000
  C   C3287     1.0  0.87365  0.38191  0.91867  1.0000
  C   C3288     1.0  0.87936  0.43804  0.86803  1.0000
  C   C3289     1.0  0.89972  0.12005  0.79209  1.0000
  H   H2615     1.0  0.77527  0.14710  0.86154  1.0000
  C   C3290     1.0  0.76465  0.41806  0.87381  1.0000
  C   C3291     1.0  0.95372  0.22720  0.76332  1.0000
  C   C3292     1.0  0.77441  0.15548  0.87716  1.0000
  C   C3293     1.0  0.83836  0.43480  0.91644  1.0000
  H   H2616     1.0  0.82940  0.43879  0.87195  1.0000
  H   H2617     1.0  0.80335  0.41599  0.85581  1.0000
  H   H2618     1.0  0.90100  0.39107  0.87487  1.0000
  H   H2619     1.0  0.91987  0.35593  0.89252  1.0000
  H   H2620     1.0  0.90896  0.33613  0.92625  1.0000
  H   H2621     1.0  0.87932  0.35203  0.94271  1.0000
  H   H2622     1.0  0.86067  0.38850  0.92605  1.0000
  H   H2623     1.0  0.81621  0.44800  0.93760  1.0000
  C   C3294     1.0  0.77396  0.18375  0.87975  1.0000
  H   H2624     1.0  0.94073  0.03109  0.93437  1.0000
  H   H2625     1.0  0.92772  0.20653  0.76180  1.0000
  H   H2626     1.0  0.90797  0.10819  0.78085  1.0000
  C   C3295     1.0  0.95229  0.18302  0.79416  1.0000
  C   C3296     1.0  0.83861  0.97773  0.92815  1.0000
  S   S440      1.0  0.77169  0.06384  0.99677  1.0000
  C   C3297     1.0  0.99924  0.04277  0.70977  1.0000
  C   C3298     1.0  0.89336  0.00594  0.95575  1.0000
  C   C3299     1.0  0.79915  0.15379  0.98106  1.0000
  C   C3300     1.0  0.88828  0.22796  0.97792  1.0000
  S   S441      1.0  0.77872  0.46533  0.92401  1.0000
  C   C3301     1.0  0.92756  0.02398  0.94047  1.0000
  H   H2627     1.0  0.92341  0.21620  0.72405  1.0000
  H   H2628     1.0  0.83448  0.34084  0.85574  1.0000
  H   H2629     1.0  0.90437  0.15790  0.77627  1.0000
  H   H2630     1.0  0.83448  0.00190  0.87090  1.0000
  C   C3302     1.0  0.85524  0.09013  0.98077  1.0000
  H   H2631     1.0  0.98884  0.38244  0.87458  1.0000
  H   H2632     1.0  0.90237  0.00042  0.86011  1.0000
  H   H2633     1.0  0.77419  0.19695  0.86617  1.0000
  C   C3303     1.0  0.88317  0.46028  0.83409  1.0000
  H   H2634     1.0  0.79054  0.26063  0.93447  1.0000
  C   C3304     1.0  0.77232  0.17740  0.91736  1.0000
  H   H2635     1.0  0.76296  0.14682  0.96726  1.0000
  C   C3305     1.0  0.91762  0.03890  0.95576  1.0000
  C   C3306     1.0  0.77101  0.39190  0.87964  1.0000
  P   P111      1.0  0.95750  0.21834  0.79053  1.0000
  H   H2636     1.0  0.78963  0.40889  0.92653  1.0000
  C   C3307     1.0  0.89767  0.98181  0.89038  1.0000
  C   C3308     1.0  0.78314  0.15455  0.81397  1.0000
  C   C3309     1.0  0.92691  0.25244  0.80056  1.0000
  C   C3310     1.0  0.94097  0.14616  0.81595  1.0000
  C   C3311     1.0  0.98455  0.99297  0.78676  1.0000
  C   C3312     1.0  0.78897  0.21777  0.97664  1.0000
  H   H2637     1.0  0.94175  0.18707  0.82623  1.0000
  H   H2638     1.0  0.77103  0.42347  0.71482  1.0000
  C   C3313     1.0  0.81735  0.37705  0.85459  1.0000
  C   C3314     1.0  0.96439  0.24715  0.73034  1.0000
  C   C3315     1.0  0.81351  0.25132  0.95448  1.0000
  C   C3316     1.0  0.83353  0.36226  0.85917  1.0000
  H   H2639     1.0  0.96136  0.12791  0.86285  1.0000
  H   H2640     1.0  0.98491  0.06916  0.68816  1.0000
  H   H2641     1.0  0.93825  0.25654  0.85973  1.0000
  H   H2642     1.0  0.78422  0.19807  0.81554  1.0000
  C   C3317     1.0  0.97255  0.00497  0.70046  1.0000
  C   C3318     1.0  0.00274  0.43172  0.72903  1.0000
  C   C3319     1.0  0.78661  0.16453  0.99628  1.0000
  C   C3320     1.0  0.89134  0.10733  0.80935  1.0000
  C   C3321     1.0  0.94666  0.24010  0.82955  1.0000
  H   H2643     1.0  0.95487  0.12311  0.76774  1.0000
  C   C3322     1.0  0.84835  0.37491  0.86848  1.0000
  H   H2644     1.0  0.80575  0.36708  0.84776  1.0000
  C   C3323     1.0  0.94465  0.12800  0.79955  1.0000
  C   C3324     1.0  0.90376  0.98212  0.86938  1.0000
  H   H2645     1.0  0.83218  0.41540  0.91384  1.0000
  C   C3325     1.0  0.98234  0.28050  0.85913  1.0000
  C   C3326     1.0  0.77214  0.13199  0.81705  1.0000
  S   S442      1.0  0.76655  0.36378  0.86283  1.0000
  H   H2646     1.0  0.77158  0.23102  0.75587  1.0000
  S   S443      1.0  0.77386  0.25278  0.79745  1.0000
  H   H2647     1.0  0.96212  0.17107  0.76295  1.0000
  H   H2648     1.0  0.86540  0.98214  0.86157  1.0000
  C   C3327     1.0  0.93547  0.22352  0.73184  1.0000
  S   S444      1.0  0.77042  0.23027  0.90388  1.0000
  C   C3328     1.0  0.94873  0.23792  0.72039  1.0000
  C   C3329     1.0  0.00239  0.45720  0.73854  1.0000
  H   H2649     1.0  0.77246  0.13586  0.92835  1.0000
  C   C3330     1.0  0.94470  0.17357  0.81327  1.0000
  C   C3331     1.0  0.77259  0.19486  0.89989  1.0000
  H   H2650     1.0  0.85881  0.43935  0.84366  1.0000
  C   C3332     1.0  0.91634  0.20024  0.97495  1.0000
  C   C3333     1.0  0.90728  0.22436  0.98105  1.0000
  H   H2651     1.0  0.98849  0.42874  0.86008  1.0000
  C   C3334     1.0  0.86468  0.14281  0.99099  1.0000
  C   C3335     1.0  0.77368  0.13797  0.89461  1.0000
  H   H2652     1.0  0.79733  0.15194  0.80832  1.0000
  C   C3336     1.0  0.76736  0.44083  0.88672  1.0000
  H   H2653     1.0  0.90308  0.27801  0.80851  1.0000
  H   H2654     1.0  0.81236  0.20853  0.99641  1.0000
  H   H2655     1.0  0.96137  0.03551  0.67966  1.0000
  H   H2656     1.0  0.96233  0.99024  0.69666  1.0000
  C   C3337     1.0  0.90050  0.02994  0.96334  1.0000
  H   H2657     1.0  0.91043  0.28051  0.84631  1.0000
  H   H2658     1.0  0.89179  0.00017  0.89717  1.0000
  S   S445      1.0  0.77278  0.10255  0.89043  1.0000
  C   C3338     1.0  0.91530  0.26745  0.81432  1.0000
  H   H2659     1.0  0.95856  0.22928  0.83589  1.0000
  H   H2660     1.0  0.77781  0.11191  0.81378  1.0000
  C   C3339     1.0  0.89711  0.44639  0.87342  1.0000
  H   H2661     1.0  0.97186  0.00192  0.79343  1.0000
  H   H2662     1.0  0.97061  0.27977  0.84892  1.0000
  H   H2663     1.0  0.77160  0.18591  0.93293  1.0000
  C   C3340     1.0  0.95592  0.16457  0.77775  1.0000
  C   C3341     1.0  0.98522  0.04944  0.69571  1.0000
  H   H2664     1.0  0.76902  0.23120  0.95346  1.0000
  H   H2665     1.0  0.97884  0.32334  0.86468  1.0000
  H   H2666     1.0  0.85145  0.06974  0.97679  1.0000
  C   C3342     1.0  0.98171  0.22285  0.79594  1.0000
  H   H2667     1.0  0.82960  0.99096  0.91910  1.0000
  S   S446      1.0  0.75834  0.28313  0.85635  1.0000
  H   H2668     1.0  0.81801  0.12076  0.97286  1.0000
  H   H2669     1.0  0.00219  0.40989  0.69977  1.0000
  H   H2670     1.0  0.00327  0.45826  0.75544  1.0000
  H   H2671     1.0  0.97764  0.26233  0.81028  1.0000
  C   C3343     1.0  0.94270  0.23857  0.80806  1.0000
  H   H2672     1.0  0.97480  0.25799  0.72134  1.0000
  C   C3344     1.0  0.87245  0.44522  0.84824  1.0000
  H   H2673     1.0  0.83380  0.23823  0.97684  1.0000
  C   C3345     1.0  0.85762  0.97616  0.92339  1.0000
  C   C3346     1.0  0.99717  0.10729  0.74849  1.0000
  C   C3347     1.0  0.98757  0.24674  0.80530  1.0000
  H   H2674     1.0  0.78540  0.36918  0.90343  1.0000
  H   H2675     1.0  0.99109  0.18610  0.78002  1.0000
  H   H2676     1.0  0.91506  0.24045  0.98789  1.0000
  C   C3348     1.0  0.79523  0.24935  0.94811  1.0000
  C   C3349     1.0  0.92050  0.99993  0.93290  1.0000
  H   H2677     1.0  0.92345  0.25177  0.78414  1.0000
  H   H2678     1.0  0.94701  0.24172  0.70374  1.0000
  H   H2679     1.0  0.82288  0.26427  0.94585  1.0000
  S   S447      1.0  0.97698  0.27187  0.98820  1.0000
  H   H2680     1.0  0.98593  0.21574  0.95281  1.0000
  C   C3350     1.0  0.98695  0.30510  0.86802  1.0000
  C   C3351     1.0  0.90084  0.46826  0.83952  1.0000
  C   C3352     1.0  0.83717  0.98037  0.87281  1.0000
  C   C3353     1.0  0.90782  0.46133  0.85917  1.0000
  H   H2681     1.0  0.92843  0.98857  0.92107  1.0000
  C   C3354     1.0  0.00514  0.12775  0.76008  1.0000
  H   H2682     1.0  0.76046  0.29938  0.68114  1.0000
  C   C3355     1.0  0.00029  0.01685  0.71892  1.0000
  H   H2683     1.0  0.86296  0.98839  0.91064  1.0000
  S   S448      1.0  0.00827  0.16391  0.68540  1.0000
  H   H2684     1.0  0.77284  0.00130  0.99016  1.0000
  H   H2685     1.0  0.99930  0.45137  0.67792  1.0000
  C   C3356     1.0  0.00164  0.42960  0.70720  1.0000
  H   H2686     1.0  0.99895  0.10701  0.73156  1.0000
  H   H2687     1.0  0.97060  0.21308  0.99109  1.0000
  H   H2688     1.0  0.98794  0.23787  0.85775  1.0000
  H   H2689     1.0  0.00296  0.13086  0.88618  1.0000
  C   C3357     1.0  0.00122  0.21991  0.92351  1.0000
  H   H2690     1.0  0.75926  0.97891  0.68406  1.0000
  H   H2691     1.0  0.86816  0.16313  0.99535  1.0000
  C   C3358     1.0  0.00525  0.14872  0.87658  1.0000
  C   C3359     1.0  0.00323  0.14745  0.85483  1.0000
  C   C3360     1.0  0.00271  0.12762  0.78212  1.0000
  C   C3361     1.0  0.99509  0.20400  0.78831  1.0000
  H   H2692     1.0  0.75886  0.30599  0.79624  1.0000
  H   H2693     1.0  0.76224  0.34798  0.81667  1.0000
  C   C3362     1.0  0.00161  0.30606  0.88190  1.0000
  H   H2694     1.0  0.76101  0.38521  0.73681  1.0000
  H   H2695     1.0  0.87775  0.46590  0.81890  1.0000
  C   C3363     1.0  0.00601  0.17046  0.84246  1.0000
  H   H2696     1.0  0.00468  0.32507  0.88933  1.0000
  C   C3364     1.0  0.00647  0.25112  0.80775  1.0000
  C   C3365     1.0  0.00718  0.25757  0.87795  1.0000
  H   H2697     1.0  0.75919  0.03203  0.73396  1.0000
  H   H2698     1.0  0.85125  0.64984  0.02187  1.0000
  C   C3366     1.0  0.76797  0.57966  0.27848  1.0000
  H   H2699     1.0  0.76284  0.56686  0.24715  1.0000
  H   H2700     1.0  0.76500  0.94681  0.32391  1.0000
  C   C3367     1.0  0.91777  0.87044  0.29992  1.0000
  H   H2701     1.0  0.98823  0.92310  0.27340  1.0000
  S   S449      1.0  0.96951  0.80835  0.27569  1.0000
  C   C3368     1.0  0.95315  0.96823  0.26250  1.0000
  C   C3369     1.0  0.00511  0.87041  0.26615  1.0000
  H   H2702     1.0  0.87188  0.56061  0.30616  1.0000
  C   C3370     1.0  0.98563  0.83449  0.24204  1.0000
  C   C3371     1.0  0.98378  0.83331  0.26410  1.0000
  C   C3372     1.0  0.99345  0.85157  0.27611  1.0000
  C   C3373     1.0  0.81759  0.77382  0.32084  1.0000
  H   H2703     1.0  0.82028  0.68863  0.32882  1.0000
  C   C3374     1.0  0.76090  0.90358  0.32305  1.0000
  C   C3375     1.0  0.97478  0.73749  0.00594  1.0000
  H   H2704     1.0  0.77902  0.83459  0.24379  1.0000
  H   H2705     1.0  0.96469  0.88186  0.31812  1.0000
  H   H2706     1.0  0.96629  0.76867  0.09825  1.0000
  H   H2707     1.0  0.99204  0.85106  0.29306  1.0000
  C   C3376     1.0  0.80128  0.62926  0.01199  1.0000
  H   H2708     1.0  0.91360  0.48159  0.32151  1.0000
  H   H2709     1.0  0.79925  0.65099  0.01308  1.0000
  C   C3377     1.0  0.97266  0.72859  0.02691  1.0000
  C   C3378     1.0  0.77895  0.47932  0.03635  1.0000
  C   C3379     1.0  0.76202  0.49844  0.27159  1.0000
  H   H2710     1.0  0.95930  0.73099  0.03482  1.0000
  C   C3380     1.0  0.00551  0.79395  0.06064  1.0000
  H   H2711     1.0  0.81836  0.88199  0.29279  1.0000
  C   C3381     1.0  0.92498  0.67949  0.01709  1.0000
  C   C3382     1.0  0.76479  0.48587  0.25190  1.0000
  S   S450      1.0  0.78153  0.51138  0.28475  1.0000
  H   H2712     1.0  0.92421  0.69759  0.02666  1.0000
  C   C3383     1.0  0.77194  0.85089  0.25230  1.0000
  H   H2713     1.0  0.84690  0.60049  0.01800  1.0000
  C   C3384     1.0  0.79589  0.96726  0.27718  1.0000
  C   C3385     1.0  0.85150  0.61247  0.00464  1.0000
  C   C3386     1.0  0.77042  0.88226  0.28163  1.0000
  H   H2714     1.0  0.80889  0.92515  0.32649  1.0000
  H   H2715     1.0  0.77365  0.54500  0.02133  1.0000
  C   C3387     1.0  0.81435  0.96064  0.30812  1.0000
  C   C3388     1.0  0.79145  0.48236  0.05258  1.0000
  C   C3389     1.0  0.97517  0.62828  0.02855  1.0000
  H   H2716     1.0  0.91681  0.83579  0.27963  1.0000
  C   C3390     1.0  0.86482  0.54163  0.30541  1.0000
  H   H2717     1.0  0.98498  0.96304  0.31290  1.0000
  P   P112      1.0  0.95361  0.93323  0.29733  1.0000
  C   C3391     1.0  0.90889  0.66576  0.01259  1.0000
  C   C3392     1.0  0.98648  0.73088  0.29732  1.0000
  H   H2718     1.0  0.95838  0.66656  0.26651  1.0000
  H   H2719     1.0  0.77865  0.48426  0.24510  1.0000
  C   C3393     1.0  0.00541  0.65422  0.17412  1.0000
  C   C3394     1.0  0.99512  0.76074  0.21239  1.0000
  C   C3395     1.0  0.98334  0.76378  0.19538  1.0000
  C   C3396     1.0  0.97916  0.74132  0.18332  1.0000
  C   C3397     1.0  0.98659  0.71574  0.18835  1.0000
  H   H2720     1.0  0.99825  0.77821  0.22171  1.0000
  Fe  Fe225     1.0  0.96160  0.80117  0.31032  1.0000
  C   C3398     1.0  0.00607  0.63323  0.04175  1.0000
  H   H2721     1.0  0.80402  0.64546  0.32677  1.0000
  C   C3399     1.0  0.92330  0.85490  0.28249  1.0000
  H   H2722     1.0  0.92400  0.69342  0.32454  1.0000
  H   H2723     1.0  0.76513  0.49245  0.09709  1.0000
  C   C3400     1.0  0.80631  0.57315  0.00914  1.0000
  C   C3401     1.0  0.99724  0.85340  0.23208  1.0000
  C   C3402     1.0  0.83753  0.51671  0.29716  1.0000
  H   H2724     1.0  0.82455  0.96792  0.31884  1.0000
  H   H2725     1.0  0.97489  0.58112  0.00504  1.0000
  C   C3403     1.0  0.99304  0.62921  0.20386  1.0000
  H   H2726     1.0  0.81001  0.78964  0.31256  1.0000
  C   C3404     1.0  0.99924  0.67486  0.23944  1.0000
  C   C3405     1.0  0.00285  0.73528  0.21725  1.0000
  H   H2727     1.0  0.97763  0.78360  0.19140  1.0000
  H   H2728     1.0  0.97029  0.74377  0.16990  1.0000
  H   H2729     1.0  0.98297  0.69872  0.17885  1.0000
  H   H2730     1.0  0.89559  0.67317  0.01872  1.0000
  H   H2731     1.0  0.97969  0.66590  0.29655  1.0000
  C   C3406     1.0  0.97710  0.77564  0.08763  1.0000
  C   C3407     1.0  0.82884  0.85469  0.31631  1.0000
  C   C3408     1.0  0.94108  0.90341  0.29075  1.0000
  H   H2732     1.0  0.91510  0.94951  0.28921  1.0000
  H   H2733     1.0  0.85382  0.72931  0.31372  1.0000
  C   C3409     1.0  0.79791  0.50800  0.05733  1.0000
  C   C3410     1.0  0.79208  0.53071  0.04563  1.0000
  C   C3411     1.0  0.77895  0.52763  0.02996  1.0000
  P   P113      1.0  0.80012  0.56387  0.05185  1.0000
  C   C3412     1.0  0.78468  0.57673  0.07236  1.0000
  C   C3413     1.0  0.82382  0.56194  0.06020  1.0000
  C   C3414     1.0  0.83015  0.58032  0.07499  1.0000
  C   C3415     1.0  0.84874  0.57948  0.08078  1.0000
  C   C3416     1.0  0.86118  0.56061  0.07158  1.0000
  C   C3417     1.0  0.85506  0.54271  0.05646  1.0000
  C   C3418     1.0  0.83648  0.54348  0.05066  1.0000
  C   C3419     1.0  0.99865  0.71257  0.20524  1.0000
  S   S451      1.0  0.94163  0.76761  0.31571  1.0000
  H   H2734     1.0  0.83868  0.47427  0.30379  1.0000
  C   C3420     1.0  0.98767  0.94976  0.24678  1.0000
  C   C3421     1.0  0.78727  0.56864  0.09332  1.0000
  C   C3422     1.0  0.80125  0.58484  0.02858  1.0000
  H   H2735     1.0  0.79247  0.85235  0.27599  1.0000
  H   H2736     1.0  0.76843  0.55981  0.18028  1.0000
  C   C3423     1.0  0.90973  0.69573  0.33014  1.0000
  C   C3424     1.0  0.86407  0.49335  0.31264  1.0000
  C   C3425     1.0  0.79908  0.61310  0.02996  1.0000
  H   H2737     1.0  0.97558  0.74752  0.26870  1.0000
  H   H2738     1.0  0.80744  0.51006  0.07008  1.0000
  C   C3426     1.0  0.99196  0.75831  0.08200  1.0000
  H   H2739     1.0  0.82080  0.59547  0.08193  1.0000
  H   H2740     1.0  0.85353  0.59356  0.09233  1.0000
  H   H2741     1.0  0.87559  0.55998  0.07608  1.0000
  H   H2742     1.0  0.86476  0.52830  0.04914  1.0000
  H   H2743     1.0  0.83204  0.52979  0.03864  1.0000
  C   C3427     1.0  0.79182  0.92719  0.29889  1.0000
  C   C3428     1.0  0.98039  0.93889  0.26544  1.0000
  C   C3429     1.0  0.00093  0.65285  0.19569  1.0000
  C   C3430     1.0  0.99724  0.80312  0.01169  1.0000
  H   H2744     1.0  0.79871  0.55515  0.09739  1.0000
  H   H2745     1.0  0.99270  0.78495  0.01963  1.0000
  H   H2746     1.0  0.99851  0.85407  0.21511  1.0000
  Fe  Fe226     1.0  0.78416  0.52539  0.31898  1.0000
  C   C3431     1.0  0.94667  0.88751  0.27339  1.0000
  H   H2747     1.0  0.79578  0.62275  0.04487  1.0000
  C   C3432     1.0  0.97266  0.92361  0.31401  1.0000
  H   H2748     1.0  0.00052  0.71839  0.32530  1.0000
  H   H2749     1.0  0.84000  0.55960  0.29248  1.0000
  C   C3433     1.0  0.81503  0.87084  0.30702  1.0000
  C   C3434     1.0  0.79719  0.87313  0.31633  1.0000
  C   C3435     1.0  0.75989  0.59476  0.10426  1.0000
  C   C3436     1.0  0.76919  0.59310  0.06746  1.0000
  C   C3437     1.0  0.93764  0.95730  0.31007  1.0000
  H   H2750     1.0  0.95821  0.89318  0.26329  1.0000
  H   H2751     1.0  0.97802  0.82067  0.23260  1.0000
  H   H2752     1.0  0.90702  0.86325  0.31058  1.0000
  C   C3438     1.0  0.97615  0.80189  0.07943  1.0000
  H   H2753     1.0  0.78177  0.57043  0.27857  1.0000
  H   H2754     1.0  0.90977  0.73929  0.32938  1.0000
  C   C3439     1.0  0.84684  0.54109  0.29772  1.0000
  H   H2755     1.0  0.76648  0.59865  0.05134  1.0000
  H   H2756     1.0  0.76566  0.73705  0.00102  1.0000
  H   H2757     1.0  0.94245  0.85085  0.25619  1.0000
  C   C3440     1.0  0.99018  0.81092  0.06582  1.0000
  C   C3441     1.0  0.93773  0.86343  0.26926  1.0000
  C   C3442     1.0  0.00607  0.76732  0.06849  1.0000
  C   C3443     1.0  0.78704  0.94290  0.28128  1.0000
  H   H2758     1.0  0.80871  0.55152  0.00768  1.0000
  C   C3444     1.0  0.00126  0.63295  0.16078  1.0000
  S   S452      1.0  0.94444  0.83037  0.33007  1.0000
  H   H2759     1.0  0.77623  0.93687  0.27094  1.0000
  C   C3445     1.0  0.92680  0.89439  0.30424  1.0000
  H   H2760     1.0  0.83674  0.76555  0.29507  1.0000
  H   H2761     1.0  0.95453  0.68075  0.01305  1.0000
  C   C3446     1.0  0.77954  0.86108  0.27059  1.0000
  C   C3447     1.0  0.90998  0.64260  0.00006  1.0000
  C   C3448     1.0  0.76091  0.59286  0.29641  1.0000
  C   C3449     1.0  0.80544  0.93638  0.31238  1.0000
  C   C3450     1.0  0.77492  0.57771  0.10921  1.0000
  C   C3451     1.0  0.83263  0.76026  0.31101  1.0000
  H   H2762     1.0  0.96080  0.62348  0.03152  1.0000
  C   C3452     1.0  0.84240  0.73985  0.32173  1.0000
  H   H2763     1.0  0.99033  0.62681  0.22053  1.0000
  H   H2764     1.0  0.92294  0.90547  0.31839  1.0000
  C   C3453     1.0  0.98764  0.74536  0.27849  1.0000
  C   C3454     1.0  0.98898  0.60789  0.19047  1.0000
  H   H2765     1.0  0.98910  0.83120  0.05935  1.0000
  H   H2766     1.0  0.97360  0.72153  0.30198  1.0000
  H   H2767     1.0  0.84264  0.85328  0.30925  1.0000
  H   H2768     1.0  0.98579  0.71000  0.05390  1.0000
  P   P114      1.0  0.78010  0.89616  0.30502  1.0000
  H   H2769     1.0  0.76312  0.49969  0.01245  1.0000
  H   H2770     1.0  0.96453  0.81526  0.08362  1.0000
  H   H2771     1.0  0.00397  0.77118  0.25900  1.0000
  C   C3455     1.0  0.00410  0.67186  0.27708  1.0000
  H   H2772     1.0  0.77689  0.57152  0.12538  1.0000
  C   C3456     1.0  0.97449  0.89714  0.32193  1.0000
  C   C3457     1.0  0.98769  0.71674  0.03783  1.0000
  C   C3458     1.0  0.91956  0.96098  0.30256  1.0000
  C   C3459     1.0  0.00718  0.72232  0.00689  1.0000
  C   C3460     1.0  0.77272  0.50197  0.02508  1.0000
  H   H2773     1.0  0.99009  0.59314  0.15860  1.0000
  C   C3461     1.0  0.98514  0.66830  0.28062  1.0000
  C   C3462     1.0  0.00028  0.64081  0.00479  1.0000
  C   C3463     1.0  0.85390  0.64026  0.00678  1.0000
  H   H2774     1.0  0.00480  0.63410  0.14414  1.0000
  C   C3464     1.0  0.98013  0.67211  0.24319  1.0000
  H   H2775     1.0  0.98302  0.58959  0.19681  1.0000
  C   C3465     1.0  0.84613  0.49291  0.30446  1.0000
  C   C3466     1.0  0.00390  0.75863  0.27293  1.0000
  H   H2776     1.0  0.97064  0.67265  0.23023  1.0000
  C   C3467     1.0  0.00723  0.87128  0.24412  1.0000
  C   C3468     1.0  0.98152  0.63496  0.00816  1.0000
  H   H2777     1.0  0.98254  0.62239  0.06099  1.0000
  H   H2778     1.0  0.88717  0.51886  0.31912  1.0000
  C   C3469     1.0  0.99297  0.60983  0.16894  1.0000
  H   H2779     1.0  0.99263  0.73784  0.08815  1.0000
  C   C3470     1.0  0.00514  0.71373  0.02794  1.0000
  H   H2780     1.0  0.82352  0.51635  0.29134  1.0000
  C   C3471     1.0  0.94216  0.67007  0.00913  1.0000
  C   C3472     1.0  0.87342  0.51787  0.31284  1.0000
  H   H2781     1.0  0.00099  0.94246  0.24061  1.0000
  C   C3473     1.0  0.97314  0.66870  0.26370  1.0000
  C   C3474     1.0  0.98591  0.94264  0.31913  1.0000
  H   H2782     1.0  0.76927  0.59420  0.31028  1.0000
  P   P115      1.0  0.00785  0.67969  0.21281  1.0000
  C   C3475     1.0  0.98743  0.62746  0.04526  1.0000
  C   C3476     1.0  0.00171  0.72912  0.31043  1.0000
  S   S453      1.0  0.80186  0.56053  0.32726  1.0000
  C   C3477     1.0  0.96306  0.94804  0.27349  1.0000
  C   C3478     1.0  0.94287  0.97224  0.32759  1.0000
  C   C3479     1.0  0.97772  0.96978  0.23594  1.0000
  H   H2783     1.0  0.76267  0.97258  0.06533  1.0000
  C   C3480     1.0  0.90182  0.72156  0.33297  1.0000
  C   C3481     1.0  0.77057  0.47592  0.53144  1.0000
  Fe  Fe227     1.0  0.96813  0.52059  0.45080  1.0000
  S   S454      1.0  0.98229  0.53195  0.42005  1.0000
  S   S455      1.0  0.98811  0.51328  0.47831  1.0000
  Fe  Fe228     1.0  0.92938  0.52779  0.43044  1.0000
  S   S456      1.0  0.94168  0.53898  0.39910  1.0000
  S   S457      1.0  0.89787  0.52644  0.43519  1.0000
  Fe  Fe229     1.0  0.96180  0.50434  0.40534  1.0000
  S   S458      1.0  0.78703  0.70969  0.41983  1.0000
  Fe  Fe230     1.0  0.96063  0.56561  0.41683  1.0000
  S   S459      1.0  0.96497  0.61166  0.41327  1.0000
  S   S460      1.0  0.94867  0.49182  0.43597  1.0000
  S   S461      1.0  0.94751  0.55552  0.44836  1.0000
  H   H2784     1.0  0.78279  0.93850  0.37334  1.0000
  C   C3482     1.0  0.76457  0.83309  0.52600  1.0000
  S   S462      1.0  0.94125  0.78110  0.36602  1.0000
  C   C3483     1.0  0.00814  0.49348  0.51175  1.0000
  Fe  Fe231     1.0  0.96107  0.81426  0.35693  1.0000
  S   S463      1.0  0.97273  0.84338  0.38071  1.0000
  Fe  Fe232     1.0  0.95808  0.75441  0.34378  1.0000
  S   S464      1.0  0.96168  0.70775  0.34461  1.0000
  H   H2785     1.0  0.76446  0.89454  0.55936  1.0000
  C   C3484     1.0  0.00397  0.95674  0.50791  1.0000
  S   S465      1.0  0.77124  0.61672  0.35282  1.0000
  Fe  Fe233     1.0  0.81828  0.79955  0.42348  1.0000
  S   S466      1.0  0.80119  0.78398  0.39749  1.0000
  S   S467      1.0  0.84868  0.80968  0.42129  1.0000
  Fe  Fe234     1.0  0.78524  0.80190  0.45530  1.0000
  Fe  Fe235     1.0  0.78843  0.75620  0.42161  1.0000
  Fe  Fe236     1.0  0.78006  0.81511  0.40920  1.0000
  C   C3485     1.0  0.89930  0.67299  0.33486  1.0000
  S   S468      1.0  0.80714  0.77011  0.44716  1.0000
  S   S469      1.0  0.79810  0.83245  0.43356  1.0000
  Fe  Fe237     1.0  0.77714  0.51206  0.36507  1.0000
  C   C3486     1.0  0.82195  0.47409  0.42480  1.0000
  C   C3487     1.0  0.78360  0.68454  0.40029  1.0000
  Fe  Fe238     1.0  0.78016  0.57169  0.35198  1.0000
  H   H2786     1.0  0.78564  0.61530  0.39577  1.0000
  Fe  Fe239     1.0  0.81442  0.53424  0.35245  1.0000
  H   H2787     1.0  0.90269  0.72605  0.43524  1.0000
  S   S470      1.0  0.79358  0.54672  0.37746  1.0000
  C   C3488     1.0  0.77403  0.66986  0.36571  1.0000
  C   C3489     1.0  0.77758  0.69081  0.38004  1.0000
  C   C3490     1.0  0.80722  0.84244  0.34411  1.0000
  C   C3491     1.0  0.78691  0.92180  0.49695  1.0000
  C   C3492     1.0  0.82395  0.67236  0.33949  1.0000
  C   C3493     1.0  0.77926  0.89757  0.49070  1.0000
  H   H2788     1.0  0.83389  0.93710  0.48732  1.0000
  H   H2789     1.0  0.81535  0.61829  0.42803  1.0000
  H   H2790     1.0  0.92709  0.92384  0.42009  1.0000
  H   H2791     1.0  0.98972  0.59720  0.52679  1.0000
  H   H2792     1.0  0.79702  0.48033  0.40734  1.0000
  H   H2793     1.0  0.83617  0.86933  0.39847  1.0000
  H   H2794     1.0  0.99127  0.47374  0.59836  1.0000
  C   C3494     1.0  0.88199  0.80094  0.35937  1.0000
  C   C3495     1.0  0.89048  0.80912  0.37770  1.0000
  C   C3496     1.0  0.88001  0.81208  0.39647  1.0000
  C   C3497     1.0  0.86104  0.80664  0.39713  1.0000
  C   C3498     1.0  0.85254  0.79833  0.37880  1.0000
  C   C3499     1.0  0.86301  0.79553  0.35998  1.0000
  H   H2795     1.0  0.90505  0.81356  0.37730  1.0000
  H   H2796     1.0  0.88664  0.81857  0.41056  1.0000
  H   H2797     1.0  0.83799  0.79383  0.37915  1.0000
  H   H2798     1.0  0.85642  0.78894  0.34588  1.0000
  C   C3500     1.0  0.85946  0.53270  0.37826  1.0000
  C   C3501     1.0  0.87872  0.53422  0.37556  1.0000
  C   C3502     1.0  0.89043  0.53288  0.39287  1.0000
  C   C3503     1.0  0.88315  0.52928  0.41318  1.0000
  C   C3504     1.0  0.86378  0.52784  0.41599  1.0000
  C   C3505     1.0  0.85195  0.52983  0.39860  1.0000
  H   H2799     1.0  0.88469  0.53621  0.35991  1.0000
  H   H2800     1.0  0.90514  0.53414  0.39029  1.0000
  H   H2801     1.0  0.85792  0.52541  0.43166  1.0000
  H   H2802     1.0  0.83708  0.52919  0.40088  1.0000
  C   C3506     1.0  0.96281  0.63798  0.39388  1.0000
  C   C3507     1.0  0.96230  0.63271  0.37230  1.0000
  C   C3508     1.0  0.96165  0.65428  0.35761  1.0000
  C   C3509     1.0  0.96140  0.68150  0.36416  1.0000
  C   C3510     1.0  0.96150  0.68679  0.38575  1.0000
  C   C3511     1.0  0.96230  0.66520  0.40044  1.0000
  H   H2803     1.0  0.96303  0.61203  0.36690  1.0000
  Fe  Fe240     1.0  0.92599  0.79565  0.33763  1.0000
  H   H2804     1.0  0.96135  0.70749  0.39114  1.0000
  H   H2805     1.0  0.96275  0.66966  0.41703  1.0000
  C   C3512     1.0  0.95918  0.93512  0.38360  1.0000
  C   C3513     1.0  0.97027  0.92255  0.39875  1.0000
  C   C3514     1.0  0.97376  0.89432  0.39813  1.0000
  C   C3515     1.0  0.96595  0.87825  0.38265  1.0000
  C   C3516     1.0  0.95380  0.89059  0.36844  1.0000
  C   C3517     1.0  0.95075  0.91889  0.36866  1.0000
  H   H2806     1.0  0.97696  0.93473  0.41027  1.0000
  H   H2807     1.0  0.98304  0.88503  0.40934  1.0000
  H   H2808     1.0  0.94744  0.87857  0.35663  1.0000
  H   H2809     1.0  0.94209  0.92825  0.35691  1.0000
  S   S471      1.0  0.97950  0.78632  0.33682  1.0000
  S   S472      1.0  0.76760  0.84349  0.38508  1.0000
  C   C3518     1.0  0.77323  0.95991  0.57094  1.0000
  S   S473      1.0  0.76145  0.53816  0.34188  1.0000
  C   C3519     1.0  0.89734  0.68577  0.42456  1.0000
  C   C3520     1.0  0.79403  0.90227  0.45632  1.0000
  C   C3521     1.0  0.82213  0.93191  0.38158  1.0000
  H   H2810     1.0  0.97174  0.52023  0.55114  1.0000
  C   C3522     1.0  0.99162  0.49155  0.50057  1.0000
  C   C3523     1.0  0.81924  0.62656  0.35176  1.0000
  C   C3524     1.0  0.89185  0.59474  0.35481  1.0000
  H   H2811     1.0  0.86370  0.93211  0.39173  1.0000
  C   C3525     1.0  0.79804  0.93633  0.48290  1.0000
  C   C3526     1.0  0.78659  0.65713  0.40568  1.0000
  C   C3527     1.0  0.90396  0.71198  0.42226  1.0000
  H   H2812     1.0  0.82826  0.66395  0.43077  1.0000
  C   C3528     1.0  0.84000  0.94992  0.45527  1.0000
  C   C3529     1.0  0.88109  0.67613  0.34271  1.0000
  C   C3530     1.0  0.82768  0.90252  0.41865  1.0000
  C   C3531     1.0  0.80235  0.92615  0.46275  1.0000
  C   C3532     1.0  0.94706  0.89673  0.48478  1.0000
  C   C3533     1.0  0.94697  0.92466  0.48801  1.0000
  C   C3534     1.0  0.93375  0.94129  0.47831  1.0000
  C   C3535     1.0  0.92073  0.93009  0.46517  1.0000
  C   C3536     1.0  0.92080  0.90209  0.46165  1.0000
  C   C3537     1.0  0.93397  0.88542  0.47176  1.0000
  P   P116      1.0  0.90348  0.88772  0.44519  1.0000
  C   C3538     1.0  0.88255  0.88111  0.46034  1.0000
  C   C3539     1.0  0.89877  0.91028  0.42329  1.0000
  C   C3540     1.0  0.88094  0.91270  0.41493  1.0000
  C   C3541     1.0  0.90920  0.47827  0.33767  1.0000
  S   S474      1.0  0.79909  0.49802  0.34178  1.0000
  H   H2813     1.0  0.83025  0.89101  0.43287  1.0000
  C   C3542     1.0  0.78347  0.63622  0.39121  1.0000
  C   C3543     1.0  0.86899  0.86460  0.45202  1.0000
  C   C3544     1.0  0.85297  0.85882  0.46377  1.0000
  C   C3545     1.0  0.85045  0.86909  0.48406  1.0000
  C   C3546     1.0  0.86403  0.88506  0.49265  1.0000
  C   C3547     1.0  0.88001  0.89114  0.48084  1.0000
  C   C3548     1.0  0.91254  0.85584  0.43514  1.0000
  C   C3549     1.0  0.91008  0.83192  0.44681  1.0000
  C   C3550     1.0  0.91749  0.80726  0.43938  1.0000
  C   C3551     1.0  0.92741  0.80632  0.42029  1.0000
  H   H2814     1.0  0.81752  0.74129  0.36794  1.0000
  C   C3552     1.0  0.92262  0.85471  0.41604  1.0000
  H   H2815     1.0  0.95739  0.88391  0.49229  1.0000
  H   H2816     1.0  0.95723  0.93353  0.49792  1.0000
  H   H2817     1.0  0.77665  0.82506  0.53391  1.0000
  H   H2818     1.0  0.91087  0.94335  0.45744  1.0000
  H   H2819     1.0  0.93435  0.86376  0.46950  1.0000
  H   H2820     1.0  0.86959  0.90131  0.42135  1.0000
  C   C3553     1.0  0.83745  0.67566  0.35474  1.0000
  C   C3554     1.0  0.82839  0.90492  0.38062  1.0000
  H   H2821     1.0  0.81193  0.60780  0.35095  1.0000
  H   H2822     1.0  0.76263  0.75240  0.58563  1.0000
  H   H2823     1.0  0.87087  0.85594  0.43646  1.0000
  H   H2824     1.0  0.84262  0.84598  0.45723  1.0000
  H   H2825     1.0  0.83808  0.86429  0.49318  1.0000
  H   H2826     1.0  0.86221  0.89267  0.50851  1.0000
  H   H2827     1.0  0.89035  0.90351  0.48780  1.0000
  H   H2828     1.0  0.90256  0.83229  0.46173  1.0000
  H   H2829     1.0  0.91554  0.78891  0.44842  1.0000
  H   H2830     1.0  0.92505  0.87275  0.40680  1.0000
  C   C3555     1.0  0.77421  0.92467  0.38209  1.0000
  C   C3556     1.0  0.92265  0.63121  0.43873  1.0000
  C   C3557     1.0  0.76385  0.92676  0.64978  1.0000
  H   H2831     1.0  0.97914  0.54453  0.63555  1.0000
  H   H2832     1.0  0.84989  0.74439  0.44104  1.0000
  H   H2833     1.0  0.76684  0.48749  0.54542  1.0000
  H   H2834     1.0  0.83108  0.89537  0.36553  1.0000
  C   C3558     1.0  0.75924  0.93467  0.39431  1.0000
  C   C3559     1.0  0.83003  0.62115  0.42513  1.0000
  H   H2835     1.0  0.81342  0.96501  0.40137  1.0000
  C   C3560     1.0  0.85633  0.65063  0.42288  1.0000
  C   C3561     1.0  0.91229  0.72002  0.40329  1.0000
  H   H2836     1.0  0.89137  0.67964  0.43956  1.0000
  H   H2837     1.0  0.79598  0.89472  0.44049  1.0000
  C   C3562     1.0  0.89898  0.66734  0.40785  1.0000
  H   H2838     1.0  0.78416  0.92930  0.51266  1.0000
  H   H2839     1.0  0.87786  0.74500  0.34281  1.0000
  C   C3563     1.0  0.83122  0.89025  0.39916  1.0000
  H   H2840     1.0  0.93119  0.60014  0.48544  1.0000
  H   H2841     1.0  0.92133  0.70769  0.37228  1.0000
  H   H2842     1.0  0.83577  0.61315  0.37755  1.0000
  H   H2843     1.0  0.83046  0.48508  0.41363  1.0000
  C   C3564     1.0  0.90952  0.94321  0.39754  1.0000
  H   H2844     1.0  0.86157  0.67081  0.42393  1.0000
  H   H2845     1.0  0.94980  0.51744  0.52255  1.0000
  C   C3565     1.0  0.92290  0.58907  0.36789  1.0000
  H   H2846     1.0  0.93747  0.82933  0.39383  1.0000
  C   C3566     1.0  0.84390  0.94566  0.47659  1.0000
  C   C3567     1.0  0.88653  0.60892  0.37300  1.0000
  C   C3568     1.0  0.89925  0.61271  0.38906  1.0000
  C   C3569     1.0  0.91753  0.60290  0.38626  1.0000
  P   P117      1.0  0.89261  0.63251  0.41196  1.0000
  C   C3570     1.0  0.90527  0.62055  0.43455  1.0000
  H   H2847     1.0  0.94546  0.63194  0.45983  1.0000
  C   C3571     1.0  0.77684  0.64241  0.37120  1.0000
  C   C3572     1.0  0.92394  0.60591  0.47135  1.0000
  C   C3573     1.0  0.90700  0.59439  0.46696  1.0000
  C   C3574     1.0  0.89771  0.60159  0.44863  1.0000
  C   C3575     1.0  0.86805  0.62854  0.41729  1.0000
  C   C3576     1.0  0.86046  0.60277  0.41565  1.0000
  C   C3577     1.0  0.84158  0.59909  0.41968  1.0000
  H   H2848     1.0  0.93703  0.58144  0.36591  1.0000
  C   C3578     1.0  0.92185  0.48210  0.35366  1.0000
  H   H2849     1.0  0.76463  0.79752  0.60216  1.0000
  H   H2850     1.0  0.87243  0.61656  0.37458  1.0000
  H   H2851     1.0  0.92769  0.60593  0.39820  1.0000
  C   C3579     1.0  0.76293  0.82887  0.50426  1.0000
  H   H2852     1.0  0.90115  0.57953  0.47757  1.0000
  H   H2853     1.0  0.88474  0.59213  0.44562  1.0000
  H   H2854     1.0  0.86920  0.58545  0.41129  1.0000
  H   H2855     1.0  0.83587  0.57915  0.41834  1.0000
  C   C3580     1.0  0.89177  0.94547  0.38938  1.0000
  H   H2856     1.0  0.80418  0.83177  0.35869  1.0000
  H   H2857     1.0  0.80041  0.77711  0.34890  1.0000
  S   S475      1.0  0.76275  0.48192  0.38665  1.0000
  C   C3581     1.0  0.85397  0.95972  0.44176  1.0000
  H   H2858     1.0  0.91745  0.74030  0.40145  1.0000
  H   H2859     1.0  0.83571  0.82864  0.34236  1.0000
  C   C3582     1.0  0.85068  0.71689  0.38380  1.0000
  C   C3583     1.0  0.00133  0.90964  0.34145  1.0000
  P   P118      1.0  0.99951  0.56097  0.56167  1.0000
  C   C3584     1.0  0.91651  0.47805  0.37465  1.0000
  C   C3585     1.0  0.93190  0.62396  0.45705  1.0000
  C   C3586     1.0  0.77363  0.93172  0.57255  1.0000
  C   C3587     1.0  0.84158  0.65427  0.36855  1.0000
  C   C3588     1.0  0.83618  0.71044  0.39793  1.0000
  C   C3589     1.0  0.83612  0.71995  0.41859  1.0000
  C   C3590     1.0  0.85036  0.73611  0.42529  1.0000
  C   C3591     1.0  0.86480  0.74256  0.41140  1.0000
  C   C3592     1.0  0.86503  0.73300  0.39077  1.0000
  C   C3593     1.0  0.78267  0.88796  0.47034  1.0000
  H   H2860     1.0  0.98638  0.57355  0.60520  1.0000
  C   C3594     1.0  0.91309  0.92556  0.41428  1.0000
  C   C3595     1.0  0.98654  0.63859  0.57998  1.0000
  C   C3596     1.0  0.78536  0.48371  0.51840  1.0000
  H   H2861     1.0  0.91417  0.57353  0.33828  1.0000
  P   P119      1.0  0.81710  0.94524  0.44507  1.0000
  H   H2862     1.0  0.80343  0.95547  0.48778  1.0000
  C   C3597     1.0  0.92989  0.83001  0.40866  1.0000
  S   S476      1.0  0.89473  0.79757  0.33550  1.0000
  P   P120      1.0  0.84979  0.70677  0.35656  1.0000
  H   H2863     1.0  0.77299  0.91929  0.63724  1.0000
  H   H2864     1.0  0.77515  0.71172  0.37561  1.0000
  H   H2865     1.0  0.92922  0.64500  0.42776  1.0000
  C   C3598     1.0  0.91004  0.58477  0.35226  1.0000
  C   C3599     1.0  0.77765  0.89660  0.38054  1.0000
  H   H2866     1.0  0.82458  0.69879  0.39292  1.0000
  H   H2867     1.0  0.82472  0.71546  0.42929  1.0000
  C   C3600     1.0  0.87472  0.96287  0.47092  1.0000
  H   H2868     1.0  0.87546  0.75597  0.41639  1.0000
  H   H2869     1.0  0.87612  0.73914  0.38029  1.0000
  H   H2870     1.0  0.88174  0.59108  0.34289  1.0000
  C   C3601     1.0  0.90772  0.67546  0.38898  1.0000
  H   H2871     1.0  0.88911  0.95903  0.37632  1.0000
  H   H2872     1.0  0.78077  0.92177  0.58536  1.0000
  H   H2873     1.0  0.91014  0.66139  0.37622  1.0000
  H   H2874     1.0  0.79311  0.50141  0.52226  1.0000
  H   H2875     1.0  0.98175  0.49459  0.63247  1.0000
  C   C3602     1.0  0.99145  0.97141  0.49504  1.0000
  C   C3603     1.0  0.99023  0.49554  0.59982  1.0000
  C   C3604     1.0  0.86108  0.95265  0.48442  1.0000
  C   C3605     1.0  0.98309  0.53542  0.62060  1.0000
  C   C3606     1.0  0.88366  0.72476  0.34072  1.0000
  C   C3607     1.0  0.99332  0.54015  0.58410  1.0000
  C   C3608     1.0  0.99474  0.51185  0.58257  1.0000
  C   C3609     1.0  0.83259  0.62973  0.36696  1.0000
  C   C3610     1.0  0.98232  0.55921  0.54146  1.0000
  H   H2876     1.0  0.79102  0.65204  0.42134  1.0000
  C   C3611     1.0  0.98543  0.61250  0.57178  1.0000
  H   H2877     1.0  0.87340  0.65820  0.34628  1.0000
  C   C3612     1.0  0.00133  0.59554  0.57027  1.0000
  H   H2878     1.0  0.82015  0.94349  0.36725  1.0000
  S   S477      1.0  0.84573  0.53413  0.35554  1.0000
  C   C3613     1.0  0.98085  0.57991  0.52631  1.0000
  C   C3614     1.0  0.96831  0.57803  0.50997  1.0000
  C   C3615     1.0  0.95702  0.55563  0.50874  1.0000
  C   C3616     1.0  0.95822  0.53513  0.52385  1.0000
  C   C3617     1.0  0.97084  0.53680  0.54009  1.0000
  C   C3618     1.0  0.81823  0.94407  0.40106  1.0000
  H   H2879     1.0  0.85189  0.65661  0.38039  1.0000
  C   C3619     1.0  0.82205  0.74659  0.35215  1.0000
  H   H2880     1.0  0.93324  0.78730  0.41448  1.0000
  C   C3620     1.0  0.87134  0.96567  0.44951  1.0000
  H   H2881     1.0  0.92632  0.48111  0.38702  1.0000
  S   S478      1.0  0.78094  0.81074  0.49045  1.0000
  C   C3621     1.0  0.91425  0.70172  0.38672  1.0000
  C   C3622     1.0  0.83737  0.64689  0.42670  1.0000
  H   H2882     1.0  0.77648  0.86932  0.46546  1.0000
  H   H2883     1.0  0.78026  0.96137  0.65610  1.0000
  H   H2884     1.0  0.97208  0.60534  0.56714  1.0000
  H   H2885     1.0  0.97419  0.65146  0.58143  1.0000
  C   C3623     1.0  0.82075  0.92932  0.41975  1.0000
  C   C3624     1.0  0.00005  0.93575  0.33301  1.0000
  H   H2886     1.0  0.78898  0.88911  0.37067  1.0000
  C   C3625     1.0  0.98460  0.50729  0.61890  1.0000
  H   H2887     1.0  0.96767  0.59358  0.49792  1.0000
  H   H2888     1.0  0.94769  0.55373  0.49579  1.0000
  H   H2889     1.0  0.96164  0.64981  0.34099  1.0000
  C   C3626     1.0  0.87749  0.93021  0.39805  1.0000
  H   H2890     1.0  0.76893  0.67497  0.35031  1.0000
  C   C3627     1.0  0.98734  0.55184  0.60327  1.0000
  C   C3628     1.0  0.87315  0.70213  0.34589  1.0000
  C   C3629     1.0  0.00232  0.95751  0.53003  1.0000
  C   C3630     1.0  0.76614  0.87833  0.39116  1.0000
  H   H2891     1.0  0.88792  0.96872  0.47703  1.0000
  H   H2892     1.0  0.92056  0.95514  0.39083  1.0000
  C   C3631     1.0  0.98876  0.89025  0.33560  1.0000
  H   H2893     1.0  0.77995  0.85961  0.34257  1.0000
  H   H2894     1.0  0.99941  0.50231  0.56806  1.0000
  S   S479      1.0  0.76554  0.78623  0.43143  1.0000
  C   C3632     1.0  0.83747  0.73334  0.34260  1.0000
  C   C3633     1.0  0.81223  0.76685  0.34134  1.0000
  H   H2895     1.0  0.93386  0.96299  0.48076  1.0000
  H   H2896     1.0  0.98948  0.87014  0.34242  1.0000
  H   H2897     1.0  0.86389  0.95003  0.50096  1.0000
  H   H2898     1.0  0.00422  0.66766  0.59397  1.0000
  H   H2899     1.0  0.77052  0.88637  0.50153  1.0000
  S   S480      1.0  0.95771  0.97099  0.38093  1.0000
  C   C3634     1.0  0.00346  0.64780  0.58695  1.0000
  H   H2900     1.0  0.93589  0.48812  0.34989  1.0000
  H   H2901     1.0  0.85138  0.96343  0.42527  1.0000
  H   H2902     1.0  0.77997  0.96102  0.43203  1.0000
  H   H2903     1.0  0.80154  0.47528  0.49045  1.0000
  H   H2904     1.0  0.95640  0.96949  0.33429  1.0000
  C   C3635     1.0  0.76794  0.95041  0.66043  1.0000
  S   S481      1.0  0.96734  0.47299  0.37961  1.0000
  S   S482      1.0  0.00616  0.92350  0.60814  1.0000
  H   H2905     1.0  0.00375  0.78877  0.62380  1.0000
  H   H2906     1.0  0.91206  0.47316  0.45261  1.0000
  C   C3636     1.0  0.97854  0.47296  0.50761  1.0000
  C   C3637     1.0  0.76443  0.91635  0.55790  1.0000
  H   H2907     1.0  0.90547  0.65293  0.33279  1.0000
  H   H2908     1.0  0.99299  0.97052  0.47811  1.0000
  C   C3638     1.0  0.81484  0.64785  0.33809  1.0000
  C   C3639     1.0  0.82496  0.84071  0.33495  1.0000
  C   C3640     1.0  0.79336  0.85838  0.33478  1.0000
  H   H2909     1.0  0.75901  0.96728  0.47770  1.0000
  H   H2910     1.0  0.77995  0.97186  0.58263  1.0000
  Fe  Fe241     1.0  0.91918  0.78748  0.93125  1.0000
  S   S483      1.0  0.93781  0.80048  0.90463  1.0000
  S   S484      1.0  0.88783  0.79029  0.93195  1.0000
  Fe  Fe242     1.0  0.95188  0.77125  0.96012  1.0000
  S   S485      1.0  0.97293  0.78411  0.93556  1.0000
  C   C3641     1.0  0.85962  0.65572  0.98945  1.0000
  Fe  Fe243     1.0  0.95410  0.82084  0.92951  1.0000
  S   S486      1.0  0.96167  0.86574  0.93014  1.0000
  Fe  Fe244     1.0  0.95465  0.76283  0.91282  1.0000
  S   S487      1.0  0.96515  0.73309  0.88796  1.0000
  S   S488      1.0  0.93446  0.80935  0.95596  1.0000
  S   S489      1.0  0.93467  0.74861  0.93746  1.0000
  Fe  Fe245     1.0  0.95228  0.57708  0.87538  1.0000
  S   S490      1.0  0.93305  0.59114  0.85022  1.0000
  S   S491      1.0  0.95997  0.60594  0.90114  1.0000
  Fe  Fe246     1.0  0.95210  0.51776  0.86142  1.0000
  S   S492      1.0  0.93286  0.52814  0.83501  1.0000
  H   H2911     1.0  0.79297  0.70831  0.99050  1.0000
  Fe  Fe247     1.0  0.95040  0.56442  0.82851  1.0000
  S   S493      1.0  0.95435  0.57751  0.79404  1.0000
  Fe  Fe248     1.0  0.91733  0.55411  0.85870  1.0000
  S   S494      1.0  0.88609  0.55750  0.85879  1.0000
  S   S495      1.0  0.97096  0.55258  0.85333  1.0000
  S   S496      1.0  0.93526  0.54148  0.88552  1.0000
  C   C3642     1.0  0.92182  0.93313  0.95391  1.0000
  H   H2912     1.0  0.86530  0.70947  0.86830  1.0000
  Fe  Fe249     1.0  0.81025  0.77984  0.85143  1.0000
  S   S497      1.0  0.79444  0.79336  0.88039  1.0000
  S   S498      1.0  0.84163  0.77491  0.84925  1.0000
  Fe  Fe250     1.0  0.77472  0.77619  0.82512  1.0000
  Fe  Fe251     1.0  0.77804  0.82112  0.85920  1.0000
  Fe  Fe252     1.0  0.77485  0.76064  0.87146  1.0000
  C   C3643     1.0  0.90518  0.93064  0.94317  1.0000
  S   S499      1.0  0.79503  0.80900  0.83052  1.0000
  S   S500      1.0  0.79168  0.74573  0.84356  1.0000
  Fe  Fe253     1.0  0.80658  0.55483  0.93757  1.0000
  S   S501      1.0  0.79601  0.54007  0.90699  1.0000
  S   S502      1.0  0.83712  0.56087  0.94285  1.0000
  Fe  Fe254     1.0  0.76775  0.55826  0.95836  1.0000
  Fe  Fe255     1.0  0.77810  0.51217  0.92617  1.0000
  Fe  Fe256     1.0  0.77389  0.57267  0.91230  1.0000
  H   H2913     1.0  0.84522  0.69960  0.76628  1.0000
  S   S503      1.0  0.79005  0.52556  0.95687  1.0000
  S   S504      1.0  0.78554  0.58881  0.94193  1.0000
  H   H2914     1.0  0.76271  0.69411  0.81950  1.0000
  C   C3644     1.0  0.80217  0.59625  0.83642  1.0000
  C   C3645     1.0  0.88355  0.69149  0.95733  1.0000
  H   H2915     1.0  0.80804  0.62968  0.97875  1.0000
  C   C3646     1.0  0.77591  0.89400  0.87917  1.0000
  H   H2916     1.0  0.87136  0.61076  0.83500  1.0000
  H   H2917     1.0  0.87868  0.66171  0.90185  1.0000
  C   C3647     1.0  0.88721  0.68554  0.85286  1.0000
  H   H2918     1.0  0.90068  0.67290  0.80084  1.0000
  H   H2919     1.0  0.88590  0.72897  0.89444  1.0000
  C   C3648     1.0  0.87315  0.55944  0.88257  1.0000
  C   C3649     1.0  0.88147  0.55801  0.90221  1.0000
  C   C3650     1.0  0.87042  0.55922  0.92075  1.0000
  C   C3651     1.0  0.85102  0.56153  0.91966  1.0000
  C   C3652     1.0  0.84288  0.56368  0.90002  1.0000
  C   C3653     1.0  0.85386  0.56247  0.88159  1.0000
  H   H2920     1.0  0.89635  0.55560  0.90311  1.0000
  H   H2921     1.0  0.87688  0.55766  0.93588  1.0000
  H   H2922     1.0  0.82810  0.56657  0.89892  1.0000
  H   H2923     1.0  0.84735  0.56370  0.86648  1.0000
  C   C3654     1.0  0.97387  0.59258  0.78149  1.0000
  C   C3655     1.0  0.86205  0.94590  0.95296  1.0000
  H   H2924     1.0  0.92762  0.61549  0.98206  1.0000
  C   C3656     1.0  0.97141  0.68581  0.81288  1.0000
  S   S505      1.0  0.76634  0.73086  0.89719  1.0000
  C   C3657     1.0  0.99092  0.59430  0.79132  1.0000
  H   H2925     1.0  0.90913  0.47990  0.82854  1.0000
  C   C3658     1.0  0.85201  0.69786  0.92017  1.0000
  H   H2926     1.0  0.97393  0.59412  0.70144  1.0000
  C   C3659     1.0  0.87539  0.78665  0.90863  1.0000
  C   C3660     1.0  0.85603  0.78517  0.91004  1.0000
  C   C3661     1.0  0.84561  0.78168  0.89193  1.0000
  C   C3662     1.0  0.85443  0.77980  0.87220  1.0000
  C   C3663     1.0  0.87382  0.78136  0.87072  1.0000
  C   C3664     1.0  0.88429  0.78488  0.88888  1.0000
  H   H2927     1.0  0.84906  0.78654  0.92525  1.0000
  H   H2928     1.0  0.83077  0.78012  0.89335  1.0000
  H   H2929     1.0  0.88078  0.77989  0.85553  1.0000
  H   H2930     1.0  0.89921  0.78605  0.88761  1.0000
  C   C3665     1.0  0.96253  0.69777  0.89132  1.0000
  C   C3666     1.0  0.95225  0.68701  0.90817  1.0000
  C   C3667     1.0  0.95090  0.65885  0.91066  1.0000
  C   C3668     1.0  0.95963  0.64113  0.89617  1.0000
  C   C3669     1.0  0.96959  0.65182  0.87913  1.0000
  C   C3670     1.0  0.97101  0.68000  0.87668  1.0000
  H   H2931     1.0  0.94567  0.70020  0.91963  1.0000
  H   H2932     1.0  0.94335  0.65083  0.92405  1.0000
  H   H2933     1.0  0.97692  0.63822  0.86847  1.0000
  H   H2934     1.0  0.97908  0.68805  0.86367  1.0000
  C   C3671     1.0  0.95990  0.89177  0.91054  1.0000
  C   C3672     1.0  0.95947  0.88598  0.88904  1.0000
  C   C3673     1.0  0.95983  0.90716  0.87403  1.0000
  C   C3674     1.0  0.96005  0.93451  0.88018  1.0000
  C   C3675     1.0  0.95984  0.94035  0.90169  1.0000
  C   C3676     1.0  0.96006  0.91912  0.91670  1.0000
  H   H2935     1.0  0.95960  0.86515  0.88395  1.0000
  H   H2936     1.0  0.96009  0.90232  0.85747  1.0000
  H   H2937     1.0  0.87488  0.47354  0.90153  1.0000
  H   H2938     1.0  0.96067  0.92394  0.93320  1.0000
  C   C3677     1.0  0.92712  0.63339  0.99176  1.0000
  C   C3678     1.0  0.89798  0.65183  0.80411  1.0000
  C   C3679     1.0  0.85209  0.65910  0.84825  1.0000
  C   C3680     1.0  0.90617  0.67827  0.85310  1.0000
  C   C3681     1.0  0.91759  0.68913  0.86813  1.0000
  C   C3682     1.0  0.91031  0.70747  0.88297  1.0000
  C   C3683     1.0  0.85449  0.64093  0.86506  1.0000
  C   C3684     1.0  0.83919  0.63214  0.87683  1.0000
  C   C3685     1.0  0.82135  0.64131  0.87190  1.0000
  C   C3686     1.0  0.81883  0.65985  0.85552  1.0000
  C   C3687     1.0  0.83411  0.66883  0.84377  1.0000
  C   C3688     1.0  0.85230  0.73405  0.78474  1.0000
  C   C3689     1.0  0.85960  0.74280  0.80359  1.0000
  C   C3690     1.0  0.86580  0.72397  0.81850  1.0000
  H   H2939     1.0  0.91228  0.66392  0.84202  1.0000
  H   H2940     1.0  0.93215  0.68324  0.86825  1.0000
  H   H2941     1.0  0.91929  0.71619  0.89442  1.0000
  H   H2942     1.0  0.86817  0.63334  0.86900  1.0000
  H   H2943     1.0  0.84119  0.61823  0.88983  1.0000
  H   H2944     1.0  0.80947  0.63418  0.88087  1.0000
  H   H2945     1.0  0.80500  0.66729  0.85201  1.0000
  H   H2946     1.0  0.84737  0.74873  0.77332  1.0000
  H   H2947     1.0  0.86014  0.76425  0.80691  1.0000
  H   H2948     1.0  0.87118  0.73142  0.83303  1.0000
  H   H2949     1.0  0.77421  0.60973  0.83181  1.0000
  H   H2950     1.0  0.97975  0.67764  0.77212  1.0000
  C   C3691     1.0  0.83123  0.96287  0.94490  1.0000
  C   C3692     1.0  0.82663  0.93606  0.88301  1.0000
  C   C3693     1.0  0.84414  0.92451  0.87782  1.0000
  C   C3694     1.0  0.85818  0.94137  0.87019  1.0000
  P   P121      1.0  0.84749  0.88805  0.87880  1.0000
  C   C3695     1.0  0.87168  0.87774  0.88056  1.0000
  C   C3696     1.0  0.83492  0.87498  0.90130  1.0000
  C   C3697     1.0  0.83351  0.89000  0.91997  1.0000
  C   C3698     1.0  0.82400  0.87977  0.93753  1.0000
  C   C3699     1.0  0.81780  0.83903  0.91831  1.0000
  C   C3700     1.0  0.82710  0.84933  0.90061  1.0000
  C   C3701     1.0  0.87835  0.86439  0.89854  1.0000
  C   C3702     1.0  0.89680  0.85503  0.89914  1.0000
  C   C3703     1.0  0.90870  0.85874  0.88183  1.0000
  C   C3704     1.0  0.90209  0.87136  0.86371  1.0000
  C   C3705     1.0  0.88369  0.88091  0.86307  1.0000
  C   C3706     1.0  0.83853  0.87404  0.85502  1.0000
  C   C3707     1.0  0.84685  0.85066  0.84606  1.0000
  C   C3708     1.0  0.84067  0.84083  0.82698  1.0000
  C   C3709     1.0  0.82591  0.85387  0.81692  1.0000
  C   C3710     1.0  0.81696  0.87629  0.82625  1.0000
  C   C3711     1.0  0.82321  0.88634  0.84523  1.0000
  H   H2951     1.0  0.99836  0.49629  0.69445  1.0000
  H   H2952     1.0  0.96957  0.52684  0.76736  1.0000
  H   H2953     1.0  0.85236  0.57874  0.98324  1.0000
  H   H2954     1.0  0.81547  0.92353  0.88866  1.0000
  H   H2955     1.0  0.87181  0.93330  0.86604  1.0000
  H   H2956     1.0  0.83967  0.90967  0.92091  1.0000
  H   H2957     1.0  0.82261  0.89168  0.95173  1.0000
  H   H2958     1.0  0.82822  0.83721  0.88649  1.0000
  H   H2959     1.0  0.86936  0.86057  0.91201  1.0000
  H   H2960     1.0  0.90181  0.84435  0.91290  1.0000
  H   H2961     1.0  0.92302  0.85159  0.88240  1.0000
  H   H2962     1.0  0.91127  0.87381  0.85016  1.0000
  H   H2963     1.0  0.87873  0.89035  0.84879  1.0000
  H   H2964     1.0  0.85799  0.83978  0.85384  1.0000
  H   H2965     1.0  0.84703  0.82264  0.82030  1.0000
  H   H2966     1.0  0.82091  0.84590  0.80234  1.0000
  H   H2967     1.0  0.80490  0.88559  0.81905  1.0000
  H   H2968     1.0  0.81584  0.90346  0.85223  1.0000
  C   C3712     1.0  0.76966  0.65528  0.87172  1.0000
  C   C3713     1.0  0.99220  0.73428  0.99600  1.0000
  C   C3714     1.0  0.97137  0.57429  0.70807  1.0000
  C   C3715     1.0  0.89197  0.59726  0.81258  1.0000
  C   C3716     1.0  0.76973  0.68363  0.87390  1.0000
  H   H2969     1.0  0.87653  0.75643  0.97435  1.0000
  H   H2970     1.0  0.92200  0.91845  0.86589  1.0000
  H   H2971     1.0  0.91031  0.67035  0.95741  1.0000
  C   C3717     1.0  0.83670  0.70652  0.90857  1.0000
  C   C3718     1.0  0.78563  0.67768  0.78629  1.0000
  C   C3719     1.0  0.79683  0.69156  0.80017  1.0000
  C   C3720     1.0  0.80494  0.71578  0.79399  1.0000
  C   C3721     1.0  0.80197  0.72629  0.77391  1.0000
  C   C3722     1.0  0.79107  0.71243  0.75991  1.0000
  C   C3723     1.0  0.78280  0.68832  0.76608  1.0000
  C   C3724     1.0  0.00757  0.73763  0.81236  1.0000
  H   H2972     1.0  0.81181  0.81922  0.91771  1.0000
  C   C3725     1.0  0.76897  0.63821  0.88941  1.0000
  S   S506      1.0  0.77262  0.86741  0.86065  1.0000
  C   C3726     1.0  0.82319  0.96383  0.88055  1.0000
  H   H2973     1.0  0.79895  0.68394  0.81592  1.0000
  H   H2974     1.0  0.81322  0.72675  0.80491  1.0000
  H   H2975     1.0  0.80766  0.74558  0.76941  1.0000
  H   H2976     1.0  0.78846  0.72087  0.74448  1.0000
  H   H2977     1.0  0.89752  0.63185  0.99669  1.0000
  C   C3727     1.0  0.90259  0.68875  0.96127  1.0000
  C   C3728     1.0  0.93931  0.73218  0.82682  1.0000
  C   C3729     1.0  0.98581  0.55959  0.71745  1.0000
  P   P122      1.0  0.00118  0.51402  0.73793  1.0000
  H   H2978     1.0  0.95294  0.61266  0.94700  1.0000
  S   S507      1.0  0.77992  0.96441  0.92698  1.0000
  C   C3730     1.0  0.79280  0.62628  0.80794  1.0000
  P   P123      1.0  0.97199  0.72041  0.80391  1.0000
  H   H2979     1.0  0.76028  0.76063  0.74718  1.0000
  H   H2980     1.0  0.85886  0.50525  0.92572  1.0000
  C   C3731     1.0  0.78026  0.88906  0.90020  1.0000
  C   C3732     1.0  0.92153  0.74365  0.82987  1.0000
  C   C3733     1.0  0.90848  0.93525  0.89356  1.0000
  S   S508      1.0  0.95525  0.75229  0.99301  1.0000
  H   H2981     1.0  0.76788  0.63711  0.92319  1.0000
  P   P124      1.0  0.89432  0.95965  0.93055  1.0000
  H   H2982     1.0  0.91391  0.58900  0.78981  1.0000
  C   C3734     1.0  0.83661  0.47862  0.93329  1.0000
  H   H2983     1.0  0.92937  0.86747  0.96821  1.0000
  C   C3735     1.0  0.90250  0.73415  0.97538  1.0000
  H   H2984     1.0  0.95109  0.56609  0.93364  1.0000
  H   H2985     1.0  0.76187  0.79918  0.71855  1.0000
  H   H2986     1.0  0.78459  0.90656  0.93071  1.0000
  H   H2987     1.0  0.96953  0.75190  0.84356  1.0000
  H   H2988     1.0  0.83732  0.72489  0.89922  1.0000
  C   C3736     1.0  0.77341  0.92112  0.87258  1.0000
  H   H2989     1.0  0.96076  0.52713  0.95578  1.0000
  H   H2990     1.0  0.99576  0.76575  0.73967  1.0000
  C   C3737     1.0  0.81614  0.85429  0.93670  1.0000
  C   C3738     1.0  0.87990  0.70364  0.86807  1.0000
  H   H2991     1.0  0.83177  0.68350  0.83139  1.0000
  C   C3739     1.0  0.77921  0.70264  0.98607  1.0000
  H   H2992     1.0  0.86215  0.60578  0.95262  1.0000
  C   C3740     1.0  0.99193  0.74667  0.74681  1.0000
  C   C3741     1.0  0.86465  0.69613  0.81468  1.0000
  C   C3742     1.0  0.85108  0.70639  0.78081  1.0000
  H   H2993     1.0  0.94727  0.75274  0.77622  1.0000
  P   P125      1.0  0.87212  0.67123  0.83380  1.0000
  C   C3743     1.0  0.85716  0.68749  0.79573  1.0000
  H   H2994     1.0  0.85593  0.66612  0.79256  1.0000
  C   C3744     1.0  0.95717  0.59588  0.95695  1.0000
  C   C3745     1.0  0.99339  0.50515  0.80984  1.0000
  C   C3746     1.0  0.96821  0.55192  0.98192  1.0000
  H   H2995     1.0  0.92053  0.59904  0.89616  1.0000
  H   H2996     1.0  0.83731  0.93634  0.97084  1.0000
  H   H2997     1.0  0.94252  0.57506  0.70017  1.0000
  C   C3747     1.0  0.98881  0.73825  0.81888  1.0000
  H   H2998     1.0  0.91961  0.59211  0.93460  1.0000
  C   C3748     1.0  0.95599  0.56949  0.94938  1.0000
  C   C3749     1.0  0.85321  0.48552  0.92320  1.0000
  C   C3750     1.0  0.81977  0.66776  0.92093  1.0000
  H   H2999     1.0  0.83947  0.61255  0.80579  1.0000
  H   H3000     1.0  0.80872  0.84638  0.95028  1.0000
  C   C3751     1.0  0.99499  0.72266  0.73563  1.0000
  H   H3001     1.0  0.97256  0.53486  0.99154  1.0000
  P   P126      1.0  0.77527  0.64639  0.79460  1.0000
  C   C3752     1.0  0.95370  0.56354  0.70733  1.0000
  C   C3753     1.0  0.76859  0.64990  0.90941  1.0000
  H   H3002     1.0  0.83428  0.64010  0.94112  1.0000
  C   C3754     1.0  0.89148  0.71468  0.88294  1.0000
  C   C3755     1.0  0.89733  0.90503  0.94161  1.0000
  C   C3756     1.0  0.93038  0.91040  0.96303  1.0000
  C   C3757     1.0  0.92242  0.88508  0.96153  1.0000
  H   H3003     1.0  0.77270  0.96348  0.88140  1.0000
  C   C3758     1.0  0.91115  0.61123  0.90592  1.0000
  C   C3759     1.0  0.91059  0.60734  0.92764  1.0000
  C   C3760     1.0  0.83511  0.65891  0.93242  1.0000
  H   H3004     1.0  0.90030  0.63365  0.87989  1.0000
  H   H3005     1.0  0.86438  0.70976  0.91963  1.0000
  H   H3006     1.0  0.91123  0.91711  0.90263  1.0000
  C   C3761     1.0  0.89965  0.63083  0.89675  1.0000
  H   H3007     1.0  0.77912  0.57859  0.73732  1.0000
  C   C3762     1.0  0.91313  0.75827  0.81368  1.0000
  C   C3763     1.0  0.89841  0.62297  0.94024  1.0000
  C   C3764     1.0  0.77684  0.67936  0.97420  1.0000
  C   C3765     1.0  0.82054  0.69159  0.90908  1.0000
  H   H3008     1.0  0.89939  0.76726  0.81613  1.0000
  C   C3766     1.0  0.98441  0.74600  0.76727  1.0000
  C   C3767     1.0  0.96420  0.60054  0.97696  1.0000
  C   C3768     1.0  0.90587  0.88238  0.95089  1.0000
  C   C3769     1.0  0.88739  0.64653  0.90927  1.0000
  H   H3009     1.0  0.92846  0.95239  0.95496  1.0000
  C   C3770     1.0  0.88150  0.61719  0.82339  1.0000
  S   S509      1.0  0.76778  0.60267  0.88581  1.0000
  H   H3010     1.0  0.89988  0.86261  0.94957  1.0000
  C   C3771     1.0  0.91458  0.93576  0.87256  1.0000
  C   C3772     1.0  0.88648  0.64245  0.93112  1.0000
  P   P127      1.0  0.96576  0.63479  0.98652  1.0000
  H   H3011     1.0  0.91598  0.77272  0.78182  1.0000
  C   C3773     1.0  0.95049  0.53792  0.71581  1.0000
  H   H3012     1.0  0.85944  0.71859  0.95979  1.0000
  H   H3013     1.0  0.97677  0.80045  0.98771  1.0000
  H   H3014     1.0  0.91915  0.63731  0.78206  1.0000
  C   C3774     1.0  0.88446  0.64470  0.81928  1.0000
  C   C3775     1.0  0.92251  0.76141  0.79440  1.0000
  C   C3776     1.0  0.87413  0.71591  0.96246  1.0000
  H   H3015     1.0  0.99270  0.58548  0.80676  1.0000
  H   H3016     1.0  0.99931  0.56850  0.71768  1.0000
  C   C3777     1.0  0.75909  0.67206  0.96843  1.0000
  C   C3778     1.0  0.95500  0.67129  0.81168  1.0000
  C   C3779     1.0  0.99374  0.83520  0.98305  1.0000
  H   H3017     1.0  0.96184  0.69356  0.97790  1.0000
  C   C3780     1.0  0.91192  0.70987  0.97052  1.0000
  C   C3781     1.0  0.94037  0.75013  0.79132  1.0000
  P   P128      1.0  0.87106  0.66312  0.94753  1.0000
  H   H3018     1.0  0.88473  0.90256  0.93298  1.0000
  C   C3782     1.0  0.90846  0.63181  0.79343  1.0000
  C   C3783     1.0  0.84298  0.94715  0.95743  1.0000
  C   C3784     1.0  0.98646  0.64561  0.94986  1.0000
  C   C3785     1.0  0.90551  0.60454  0.79775  1.0000
  C   C3786     1.0  0.77102  0.59489  0.74462  1.0000
  H   H3019     1.0  0.99416  0.74106  0.97995  1.0000
  C   C3787     1.0  0.78157  0.91081  0.91444  1.0000
  S   S510      1.0  0.76639  0.77282  0.79058  1.0000
  H   H3020     1.0  0.83129  0.58581  0.83754  1.0000
  C   C3788     1.0  0.86301  0.64344  0.96981  1.0000
  H   H3021     1.0  0.81516  0.63837  0.78691  1.0000
  H   H3022     1.0  0.98663  0.84193  0.96900  1.0000
  C   C3789     1.0  0.94901  0.73563  0.80760  1.0000
  C   C3790     1.0  0.97973  0.72124  0.77666  1.0000
  H   H3023     1.0  0.96012  0.96117  0.90674  1.0000
  C   C3791     1.0  0.76691  0.62866  0.77209  1.0000
  H   H3024     1.0  0.81255  0.58011  0.97640  1.0000
  H   H3025     1.0  0.88987  0.57606  0.81605  1.0000
  C   C3792     1.0  0.77494  0.94289  0.88676  1.0000
  H   H3026     1.0  0.91777  0.95983  0.84450  1.0000
  C   C3793     1.0  0.97064  0.68438  0.96585  1.0000
  C   C3794     1.0  0.97876  0.51515  0.79782  1.0000
  H   H3027     1.0  0.90996  0.75077  0.98196  1.0000
  C   C3795     1.0  0.77742  0.60755  0.76261  1.0000
  H   H3028     1.0  0.80865  0.69841  0.90014  1.0000
  C   C3796     1.0  0.85127  0.67416  0.93241  1.0000
  H   H3029     1.0  0.80733  0.65595  0.92099  1.0000
  C   C3797     1.0  0.77884  0.93791  0.90791  1.0000
  H   H3030     1.0  0.94557  0.72077  0.83957  1.0000
  C   C3798     1.0  0.99814  0.51184  0.76617  1.0000
  H   H3031     1.0  0.94207  0.63303  0.81726  1.0000
  C   C3799     1.0  0.96493  0.52308  0.72510  1.0000
  H   H3032     1.0  0.92662  0.70773  0.97356  1.0000
  H   H3033     1.0  0.89829  0.61978  0.95705  1.0000
  C   C3800     1.0  0.98755  0.67272  0.82013  1.0000
  C   C3801     1.0  0.97807  0.70109  0.95020  1.0000
  H   H3034     1.0  0.98530  0.62518  0.73542  1.0000
  H   H3035     1.0  0.91433  0.74142  0.84489  1.0000
  H   H3036     1.0  0.77003  0.92533  0.85640  1.0000
  C   C3802     1.0  0.86015  0.61563  0.96772  1.0000
  C   C3803     1.0  0.98267  0.53390  0.72622  1.0000
  H   H3037     1.0  0.78220  0.86844  0.90562  1.0000
  H   H3038     1.0  0.94256  0.68057  0.80538  1.0000
  C   C3804     1.0  0.98817  0.81183  0.99357  1.0000
  H   H3039     1.0  0.78875  0.66716  0.96913  1.0000
  C   C3805     1.0  0.89996  0.95839  0.90271  1.0000
  H   H3040     1.0  0.96226  0.50320  0.73154  1.0000
  C   C3806     1.0  0.97471  0.65644  0.96582  1.0000
  H   H3041     1.0  0.98999  0.62420  0.94940  1.0000
  C   C3807     1.0  0.98109  0.51861  0.77611  1.0000
  C   C3808     1.0  0.98368  0.75141  0.83772  1.0000
  C   C3809     1.0  0.76817  0.67828  0.91157  1.0000
  C   C3810     1.0  0.78831  0.61071  0.82579  1.0000
  S   S511      1.0  0.96128  0.96021  0.86028  1.0000
  H   H3042     1.0  0.79858  0.58468  0.85042  1.0000
  C   C3811     1.0  0.86950  0.95975  0.93547  1.0000
  C   C3812     1.0  0.97061  0.63172  0.82604  1.0000
  C   C3813     1.0  0.82058  0.59693  0.82921  1.0000
  H   H3043     1.0  0.99495  0.70306  0.92193  1.0000
  C   C3814     1.0  0.94336  0.64711  0.99621  1.0000
  C   C3815     1.0  0.81136  0.62669  0.80072  1.0000
  C   C3816     1.0  0.82517  0.61208  0.81133  1.0000
  C   C3817     1.0  0.99036  0.69796  0.74484  1.0000
  H   H3044     1.0  0.77400  0.67845  0.75511  1.0000
  C   C3818     1.0  0.98695  0.61665  0.75096  1.0000
  H   H3045     1.0  0.94350  0.91220  0.97078  1.0000
  H   H3046     1.0  0.87092  0.93450  0.96345  1.0000
  H   H3047     1.0  0.76749  0.68715  0.92703  1.0000
  C   C3819     1.0  0.00564  0.60797  0.78138  1.0000
  C   C3820     1.0  0.97209  0.60341  0.76110  1.0000
  C   C3821     1.0  0.85464  0.96917  0.86764  1.0000
  C   C3822     1.0  0.98712  0.64575  0.82667  1.0000
  H   H3048     1.0  0.93680  0.52954  0.71522  1.0000
  S   S512      1.0  0.96465  0.47474  0.86470  1.0000
  C   C3823     1.0  0.96152  0.54753  0.96182  1.0000
  C   C3824     1.0  0.85458  0.60020  0.98510  1.0000
  C   C3825     1.0  0.91228  0.95916  0.86049  1.0000
  C   C3826     1.0  0.88366  0.73725  0.97117  1.0000
  H   H3049     1.0  0.99140  0.50234  0.82667  1.0000
  H   H3050     1.0  0.95907  0.60184  0.75319  1.0000
  C   C3827     1.0  0.76848  0.69529  0.89383  1.0000
  C   C3828     1.0  0.95462  0.64438  0.81837  1.0000
  C   C3829     1.0  0.99698  0.76399  0.84963  1.0000
  H   H3051     1.0  0.98722  0.96307  0.81129  1.0000
  H   H3052     1.0  0.77019  0.69651  0.86015  1.0000
  H   H3053     1.0  0.79053  0.60083  0.76899  1.0000
  H   H3054     1.0  0.96557  0.52041  0.80537  1.0000
  H   H3055     1.0  0.97031  0.61080  0.83110  1.0000
  H   H3056     1.0  0.76997  0.64654  0.85622  1.0000
  C   C3830     1.0  0.98274  0.69717  0.76525  1.0000
  H   H3057     1.0  0.82934  0.49314  0.94343  1.0000
  C   C3831     1.0  0.96952  0.57830  0.98951  1.0000
  H   H3058     1.0  0.98261  0.76472  0.77594  1.0000
  H   H3059     1.0  0.76398  0.61894  0.98932  1.0000
  C   C3832     1.0  0.99324  0.97111  0.79684  1.0000
  H   H3060     1.0  0.97469  0.72256  0.95025  1.0000
  H   H3061     1.0  0.99285  0.77370  0.86432  1.0000
  H   H3062     1.0  0.99310  0.67926  0.73636  1.0000
  H   H3063     1.0  0.86141  0.67720  0.99146  1.0000
  H   H3064     1.0  0.99959  0.63562  0.83221  1.0000
  C   C3833     1.0  0.80857  0.58934  0.99129  1.0000
  C   C3834     1.0  0.00096  0.48080  0.72621  1.0000
  C   C3835     1.0  0.99947  0.47843  0.70433  1.0000
  C   C3836     1.0  0.76383  0.71887  0.99195  1.0000
  H   H3065     1.0  0.81645  0.96404  0.94839  1.0000
  C   C3837     1.0  0.80605  0.61734  0.99267  1.0000
  C   C3838     1.0  0.98963  0.69013  0.93436  1.0000
  C   C3839     1.0  0.99374  0.66237  0.93413  1.0000
  H   H3066     1.0  0.00121  0.72321  0.71994  1.0000
  H   H3067     1.0  0.00050  0.68316  0.82069  1.0000
  H   H3068     1.0  0.00228  0.65376  0.92150  1.0000
  C   C3840     1.0  0.00374  0.61935  0.76120  1.0000
  H   H3069     1.0  0.00556  0.64624  0.98933  1.0000
  H   H3070     1.0  0.75847  0.84403  0.81025  1.0000
  H   H3071     1.0  0.75927  0.96049  0.97488  1.0000
  H   H3072     1.0  0.80965  0.97251  0.88475  1.0000
