data_image0
_chemical_formula_structural       FeS2CH3S2FeSFeS2FeSFeS3CH2C2FeSFeS4C3HC3HC9H4C6H4C6H5CH3CH5CHCH2CH2C2HC2HCHCH2C2HC4H3C4H3FeCHC2HCHC3HCHC4HSFeH2CH2CH3FeHPHC7HCHC4HCH4FeSH2SHC6PC2H3C3HC7H2C2H3CH2CH4CH3C7H5CSC2H2C7PC3H2C3H3C7H5CH4PFeH2PHCSCH3SC4SHC6HC3HC4H2C4HCHCH2C2PCHSC7HCH3C2HCH7C2HPC3HCFeHCH2C3HC2HCFeS2FeCFeHS2FeSFeS2FeSFeS3HC2HCFeSFeS3CHC2H3CHCHC7H4C6H4C6H4C2H2CH3C6PC4HC4H2C7H7CSCHC3H3C2HSH3C2PHCH8C2HC3HCHCHC3HC4H2C6PC2HCFeCHCHCHCHC3H2C4HC2HCH2SCHCHC2HC8HFeCFeH4SC2SCFeC2HCH2CHCHC2H3C2PC8HC7H3CH2CH9C6SC3HC3H2C6HSC3H3CH2CHC5H8PCH2CHC3H2C2HFeC3SHC2SC2FeHC4H2C2PCHCH2CHCHC2SH5FeS2FeS2FeSFeS3C3SCH2FeSFeS3C7H3C6H4C6H7C5H2C2H3CH3CHC2H2C2HCHC5PC2H2C2SHC2HCH2C3HCH3C3H2CH2CH2PC2H2C2HCFeHCH3C7PC9HC8H13CH5C6PC8H11C2H2C4HC2H3FeHC3FeCHC2HC2H2CHC3HC4H3C8HCHC2H6CSH2CH2C2PHCHSHSCFeHCHC8H2C2HC4SCH6SC3HCHCHSPHC2SC3H3C2HCHCSH2C2H4CH4SH2CFeCH2C2HCHFe3CH2FeS2FeS2FeSFeS3C2HC2HCFeSFeS3C6FeH3C6H4C6H4C2PC3HCH2CH2CHCHCSCHC8H7C2HCSHCHPC15HC3H2C2H8CH4SC5HCHCH4C2HC3HCHC7H3C2H3C3PC18H18C2PC5HSCHC7HCH2SCSHCH3C2HCH2SC11H2CSCH3C3HPHC3PH3C2FeCH5CHCHCHCHSCH2FeC2HCH2C2HC3H2C2HC3HC2HCFeHCHSHCSH2CH2CHSCH4CHCFeC3H2PH3C2HCH2C2H2FeHC2HFe2HSC2H2CSCH2CH2CH4C2H2CSHCS2CFeSCH3C2HCSCSCHFeHSFeS2H2CHS2C3FeH2CHCHCHC4H4C3HC2H5C2HCHCH2CHC2HC3HCHCHCH2C4H4C2H2FeHC3FeH2C3HCHSCHCHC3H2CH3C3HC2H3CHPH2SHC8FeC2HSHC3HCH2SCH2C2HCH2C3FeHCHPHC4PC3HC3HSC2SCSC2H2CH2C5HC3HFeCHCHC2H2CHCHCH3CSC2SCFe2SC2H2C3HPCSC2FeS2FeCSC2H2S2C5H2SHCHC4H5CH2C4H2CHC2H2C2HC2HC2HC2HC2H4CH2C2SH3SCHC2H2SC2HC2HC2H2C3SCHFeCH3FeHPCSFeCH2CHCH2CHCHC2HCHC2H2SC3H3CHCFeC2H2CHSCHCH2FeCHCH4CH3CSC2FeCH4FeSFeS2Fe2S2FeHSFeCSHSCS3H2CH4CHCPCHSC2HCHC2HCH2C4H2CHCH3C7H4C2H2CH2C2FeC3PC7H3C8H2C2H4CH2CHC2H7C2H2C2H4C7H3C2SC4HCH2C3HC5H2SHC8H9CH3C3HC7PC8FePCHC6H5CH5CHCH5CHSHFeCHCHC2HSHFeSHCSH2C3SCH2CSC2PCH2CHC3HC5HC2HC2H2CHSCH9CH2C2H3CHCHCHC2H2C2HC3HCFeSFeS2FeCS2H2SFeHSHCHCS3H2CH3CHPC2H2PFeC2H5CHFeCHCH3C2HCPC7H4C2H2SH3C6HCH2CPH2C2HCHC4H2CH2C2HSC2HC2H2CHCHC2HC3HC2SC2HCH3C3H4CH2CHC2SCHC2HCHC2HCHC2FeCSHC8FeCH2C2H4CPC3HPC19H3CH11C2H2C5H3C2HCHSHCSH3SC7HCHCSCPHCSHCSCH2CHC2H2CPCHCHC2HC8H2C3HCH2C2H5CHC2H2FeC3HCHC2HCHSHFeHCHCHC3HFeS2FeSHFeSFeS3FeHFeHS2C2HS2C2HCSCFeSFeS3PCHCPC3H3C4HC2SH2C2H2C2H3C6H4C6H4C6H5C3FeC3SH2C2H2CH2C2H3C2HCH2CHCHC8H7C6HC3HCHCH2C3H2C2HCHFeHC6PC14H16CH3CHCH2C4H3C2H3C2HPC10HC7H3CHCPH5CH2CH4C3H2CHC2SCSHC3HCH5SHCH2C3HC3HC2H2C2HCHCHC5SH3CHCHCSCHC2P2CH3CHC2H4C6HCSCHC7FeS2FeSCFeSFeS3FeCFeCSH2SHS2HCH2C2FeSFeS4C2SH5CHSCHCH2CH2C3H3CPH2C6H4C6H4C6H5C2H3CH6CHCHCH2SH3C2HC2H2C2PC2HC4HCH5CH2C2HC3HC6PC6HCHC6HCH2CH3C5H2CHC5HC3H2C2HCFeHCHCH2CPHC2HC2HCHCHCH2CH2SH5CH2FeCH2SHSCSC2H2CH2CH2CH3CHC5H3C6PC15HC2H3C2HC5H4C2H3C2HCHCH3C3H2CH2CHCHCH3C2HFeS2CHSC2FeC2SHCH4CHS2HCH2C2SC4SC6H2C2HC2H3C10H2CFeHC5H2C2H6CHCH6CH2SH2SHCHC2H2PC4H3CHSHSC2H2C3H2CH3C3H2C2HCSPC2HC4H2CH3CHC2H2CH3C2HCSCSHCHCH3CSHCHCHC3HC2FeCHCFeHC2HCFeC3PHCHCH2C2HC2HC2HC2HCFeHC2HC3H2FeSC5SH2FeCSCS2HCH2CH2SPHC2HCFeC2HCHCH5C6SCH6C4HCSC3HCHC2HCHCH2SHCS2H5C8HC2HCHFeH5CSCHCH2FeC3HPC3HSC13HC3HCHCH4SH5CHC4H2C2SHC2HC2H2CHC6HC3H3C2H2CPC2H2CHCH2SH2C4H8FeHC4H2C2HCH4C2HSCSHCFeCHFeS2FeHFeHS2FeSHC3FeSFeS3FeSFeS2FeHS2C3HSH3C3H2C6H4C6H4C6H6C2HC2H4CH2C4H2C10H2C3H2SH2CH3C2HC2HCH5C2H4PCHC2H3CHCH2C7FeCHCHC12PC3HCH5CHC4HCHC3S2C3HCHCH4CHC2PHC4HCHCHCH10SHC2SC4FeC7H6CH4C3FeC4H2C2HCH2CHC5H3C2HC4HPC2HCH2CH2CHPH3C6HC3SCH2C2H2SCFeCHC4H2C3H3C5H3CHSHSH2FeCHFeS2H3CS2FeS2FeCHFeSFeS3FeSFeS2FeHS2C2HC2H3CHCSC7H4C6H4C6H4C2HCHC4H4C5H3CH2CH2CH3CSHCHCHSH2C4HCH6C2H4C4H2CFeC2H2CH3CH2CHCHCH2CHCH2CSHCH2C3HC2HC5HCH7C2PC4HC10HC3HCH2CHC2H3C2H4FeC3HC2HPCHPHC12HPCHPCH2C3H3CPC7HPC16H2CH8FeHC3HSHC3H2SC2HCH3CH3CHCHC3HCHCH2C2H3FeCHFeH2CHCH3CSC2SFeHSFeHSC4S2FeS2FeS2Fe2S3HC5HC2H8CHC3HC4H5C3HCH2C7H4C4H2C4HC2H2P2HCHC2HC2SH3C3HC2HCHCSHPH2C2HCHSCSHCHC2H2C2PC2PHSC5HCH3CHC2HC6HCH2SC5HC5HCHCH2C3H7Fe2CHC7PC18H12CH7CSCH5CH3CFe2HC2FeCHC3H3C2HCH2FeCH2CHC2HC2H3CHC4HCH2CHC2H2CH2CHC2HCHC8H2CH2S2CHC4SHC2H2CH2CH2C5HC2H2C2SC2H2CHC2SFeHSFeCSC2H2S2FeS2FeS2Fe2S3HC3PCHFeCHCHC2H2C3SCH3C4HC2H2CHSHCH2C6H4C4H2C4HSCHSHC2PHC2HCH4C10H6C3HCHCH3C4HCH4CHCPC4H2CPHC2H2CH2CSFeC5HCHC2H3C5H5S2CHFeHC2HCH2C2PHC5H3C2SH2C3SH2CHC3PC18H2CH9CH7CH2CH7CHC2SC5H2C2H4CH2C2HC4H2FeHSHCH2CHCH2CH3SHCHC10PC8HC8H4C2H5SHCH2C3HC2HSHCFeCHC4HCSFeSHFeSFeSCH2CHC3HCHCSHC2FeC6H3C3HC2HC3HC4H6CSHCH2CHC2HC5PC10HC7H9C2H7SC3H2SHCHSC3HCHC3HFeC2SFeC2HPHSHCH3CH3C2SFeC2H3C2SHC6PC5H2C5H2SCFeCH7C2H3CH4CHC2SHCHCHC2H2C4HCHCHC2HC2H2CHS2CFeH2CH7SCSH3CHC3HC4HC2HFeC4HFeCFeCHC2HC3HCHCS3CFeHFeCH3SC2Fe2SH3SCH2SHC3HCHCHC3H2C2SH2CFeHPCSH2C4H2C3H2CHC6HC4H2C6HC2H4C3HCHC3H4CHC4SHC2PC3HSC2HFeC3H5CH3CH2C2HC2SCH3CHC2HCHFeS2C5SCHPC3H2CHS2HCH5CFeC3HFeC5H3CHCFeH2FeHCFeH3C2PHC2HCHC5H2CHC2HSCHC5HCPHCFeS2FeS2H4CHCSFeS2FeSFeS3H2CHC4SFeH2C2PC3HCSHC6H4C6H4C4H4SCHCSHC6PCHC4H5CH5C4HSHC6HC3HCHC2H3C5PCH3CHSHCH2CH8C4HC2H2SH4C2HCPCHC5SFeH3C2FeCHCH2C4HC2H2CHCPH3C2H2C3H2C2HCHC3H5S2H2FeHPC15HC2H2C2H6C2H2C6PC2H3CHC12H4C2HCH8SFeH2C2H2C2HCHCH2CH2CH2C2SC3PCHC2HFeS2FeS3C2HCSFeSFeS2FeSFeS3H2CHC4PH3CH4C2HC8H4C6H4C4H3C4PC10H7CH3C6PC3HC5H10SCH2CFeHCHC5HC2HCHPCSHCHC3H4CHC2HC2H2C5H2CH2C2HCHCSCHC2H2CHCH4CFeCHCH3C5HFeC2H2C2H2C2HCHC2SC2H2CHC4HC4HC5H4CH3FeH3C4HC2H3C2S2HC2H4CH2C2HC5HCHC2HCH3CHC3PHC2HCHCH2C9HCHSCHC2HCH6C4HSHCH3CH2C3H2CH2C3HC4HC3HCHCSCFeS2FeS2CHPCHC2S2FeSCFeS2FeS2Fe2S3HC6H6C9H4C6H4C5HCH3C5HSH2C7PCHC6H5C2H2CFeH2CH2C7PC8HC7HCH11CH5CHSH3C2HCSHC6HFeCH2C3SH3C6H6CH2C4H2C3HC3HCHC3HFeC3HC3H2CH4CHCH3CHC4PHCH4PCHC7HC2H2PSCHCHC2H4C2FeHC2HSH3C2H3C2HSH2CPCH2CHSHCSCHC7FeH2C9HC2H5C2H4CHC4HC2HC2H2CHCHC3H2CHCHC2HC2H2C2HCH5CH3C2HFeS2FeS2HC4HCSCFeSHFeS2FeS2Fe2S3HC6H4CH3C7H4C6H5SHCSHC2H4C5H2CH2C3FeCHSHSH2C3H3CHCHC7PC5PHC3H5SH2CFeC3PH2C3HC3HC2H3CSH2SHC6PC13H2C3HC2H12C2HCHCH2C2HFeC5HC2HC6PC14HCH11CH5CHSC3HSC5SH2CH2CH2C4HPCHCFeC3HC2HSCHCH2C4H2CH5CHFeC2HCH3C2H2CH2CHC2PH2FeHSH4C2H2CSC2H2S2CH2S2H2SCFeSFeSCHC3H2C2HCH3C3H2C2H2C3HCSHCHCH2C6H7CHCH3C3H2C2HCHCHCHCH2SC4HCH2C3HCH2CHCHCH4FePC5HCH2C2H3C3H2C3H2PFeC3H2C2H2CHCH2C4HCHCH3C2SC4HC3H3C4HPH2SC3H2C2HC2HCHC2HCH2C3SHC3SFeHS2HC2HSC2SCFeSFeSH2C2H2C2HC2SCH4C2H8SHCSCHFeC3H2C2H4CHCH2C2H6C3HSHSCHC3H4CH2SC2H2SHCHC4PC13HC3H13C2HCHC3HC2SH2C2HC3HC3H2C8SHCH2PHC6HC2H2C3H4CH2C2PC4HCH2C2HC3HCHCHCHC2H2C3
_chemical_formula_sum              "Fe256 S512 C3840 H3072 P128"
_cell_length_a       61.2962
_cell_length_b       61.9713
_cell_length_c       50.1848
_cell_angle_alpha    90.6508
_cell_angle_beta     90.7959
_cell_angle_gamma    84.2345

_space_group_name_H-M_alt    "P 1"
_space_group_IT_number       1

loop_
  _space_group_symop_operation_xyz
  'x, y, z'

loop_
  _atom_site_type_symbol
  _atom_site_label
  _atom_site_symmetry_multiplicity
  _atom_site_fract_x
  _atom_site_fract_y
  _atom_site_fract_z
  _atom_site_occupancy
  Fe  Fe1       1.0  0.20616  0.19074  0.34177  1.0000
  S   S1        1.0  0.23969  0.17256  0.34386  1.0000
  S   S2        1.0  0.17895  0.16827  0.33909  1.0000
  C   C1        1.0  0.17397  0.20338  0.45441  1.0000
  H   H1        1.0  0.16966  0.04511  0.16793  1.0000
  H   H2        1.0  0.06599  0.04474  0.17988  1.0000
  H   H3        1.0  0.21951  0.07712  0.20890  1.0000
  S   S3        1.0  0.21475  0.21452  0.31105  1.0000
  S   S4        1.0  0.21294  0.21286  0.37655  1.0000
  Fe  Fe2       1.0  0.07037  0.09674  0.22108  1.0000
  S   S5        1.0  0.08700  0.06305  0.22210  1.0000
  Fe  Fe3       1.0  0.11450  0.11643  0.22487  1.0000
  S   S6        1.0  0.13374  0.08364  0.22455  1.0000
  S   S7        1.0  0.13394  0.14569  0.22797  1.0000
  Fe  Fe4       1.0  0.11004  0.07492  0.19233  1.0000
  S   S8        1.0  0.11941  0.05346  0.15606  1.0000
  Fe  Fe5       1.0  0.10862  0.07552  0.25397  1.0000
  S   S9        1.0  0.11819  0.05564  0.29058  1.0000
  S   S10       1.0  0.09262  0.10847  0.19014  1.0000
  S   S11       1.0  0.09023  0.10861  0.25549  1.0000
  C   C2        1.0  0.11193  0.00943  0.21689  1.0000
  H   H4        1.0  0.04574  0.08747  0.05649  1.0000
  H   H5        1.0  0.04432  0.14921  0.11878  1.0000
  C   C3        1.0  0.23057  0.33636  0.42686  1.0000
  C   C4        1.0  0.01559  0.08134  0.21570  1.0000
  Fe  Fe6       1.0  0.09631  0.06313  0.99809  1.0000
  S   S12       1.0  0.09483  0.08279  0.03687  1.0000
  Fe  Fe7       1.0  0.10047  0.07381  0.44005  1.0000
  S   S13       1.0  0.09979  0.09702  0.40558  1.0000
  S   S14       1.0  0.08956  0.02834  0.99312  1.0000
  S   S15       1.0  0.09188  0.03960  0.43555  1.0000
  S   S16       1.0  0.03316  0.10243  0.21718  1.0000
  C   C5        1.0  0.04961  0.05596  0.29351  1.0000
  C   C6        1.0  0.23843  0.24661  0.22925  1.0000
  C   C7        1.0  0.21454  0.28422  0.00331  1.0000
  H   H6        1.0  0.04637  0.01678  0.42527  1.0000
  C   C8        1.0  0.25684  0.09268  0.39072  1.0000
  C   C9        1.0  0.14788  0.14769  0.41361  1.0000
  C   C10       1.0  0.03667  0.09683  0.40413  1.0000
  H   H7        1.0  0.25009  0.10037  0.10472  1.0000
  C   C11       1.0  0.20699  0.13330  0.98233  1.0000
  C   C12       1.0  0.03510  0.07650  0.04723  1.0000
  C   C13       1.0  0.19322  0.02704  0.01371  1.0000
  C   C14       1.0  0.11423  0.06774  0.32252  1.0000
  C   C15       1.0  0.11681  0.05465  0.34521  1.0000
  C   C16       1.0  0.11268  0.06353  0.37074  1.0000
  C   C17       1.0  0.10623  0.08567  0.37388  1.0000
  C   C18       1.0  0.10472  0.09900  0.35137  1.0000
  C   C19       1.0  0.10869  0.09007  0.32577  1.0000
  H   H8        1.0  0.12190  0.03755  0.34313  1.0000
  H   H9        1.0  0.11450  0.05319  0.38796  1.0000
  H   H10       1.0  0.10013  0.11623  0.35368  1.0000
  H   H11       1.0  0.10727  0.10047  0.30861  1.0000
  C   C20       1.0  0.11171  0.06143  0.12306  1.0000
  C   C21       1.0  0.10104  0.08196  0.11763  1.0000
  C   C22       1.0  0.09547  0.08791  0.09121  1.0000
  C   C23       1.0  0.10071  0.07358  0.06983  1.0000
  C   C24       1.0  0.11100  0.05287  0.07523  1.0000
  C   C25       1.0  0.11659  0.04690  0.10171  1.0000
  H   H12       1.0  0.09720  0.09333  0.13375  1.0000
  H   H13       1.0  0.08729  0.10386  0.08730  1.0000
  H   H14       1.0  0.11499  0.04160  0.05902  1.0000
  H   H15       1.0  0.12493  0.03102  0.10564  1.0000
  C   C26       1.0  0.16657  0.16226  0.30800  1.0000
  C   C27       1.0  0.17050  0.17355  0.28483  1.0000
  C   C28       1.0  0.16032  0.16844  0.26052  1.0000
  C   C29       1.0  0.14631  0.15183  0.25899  1.0000
  C   C30       1.0  0.14254  0.14038  0.28211  1.0000
  C   C31       1.0  0.15255  0.14564  0.30648  1.0000
  H   H16       1.0  0.18126  0.18634  0.28563  1.0000
  H   H17       1.0  0.16335  0.17743  0.24283  1.0000
  H   H18       1.0  0.13183  0.12755  0.28125  1.0000
  H   H19       1.0  0.14940  0.13673  0.32416  1.0000
  H   H20       1.0  0.12916  0.01188  0.21574  1.0000
  C   C32       1.0  0.22621  0.19550  0.21896  1.0000
  H   H21       1.0  0.22479  0.19351  0.26165  1.0000
  H   H22       1.0  0.20857  0.19780  0.21640  1.0000
  H   H23       1.0  0.20044  0.04432  0.20075  1.0000
  C   C33       1.0  0.03124  0.04249  0.02436  1.0000
  H   H24       1.0  0.15837  0.07850  0.14290  1.0000
  H   H25       1.0  0.04102  0.05477  0.21568  1.0000
  H   H26       1.0  0.03345  0.10482  0.00754  1.0000
  H   H27       1.0  0.24427  0.05485  0.28538  1.0000
  H   H28       1.0  0.18071  0.16954  0.44507  1.0000
  C   C34       1.0  0.01103  0.12856  0.02836  1.0000
  H   H29       1.0  0.23485  0.31532  0.02892  1.0000
  C   C35       1.0  0.23454  0.27292  0.01125  1.0000
  H   H30       1.0  0.25521  0.13506  0.45812  1.0000
  H   H31       1.0  0.22657  0.30892  0.28700  1.0000
  C   C36       1.0  0.02810  0.12405  0.13702  1.0000
  H   H32       1.0  0.03762  0.13031  0.39388  1.0000
  H   H33       1.0  0.11071  0.01426  0.25940  1.0000
  C   C37       1.0  0.25929  0.32456  0.09906  1.0000
  C   C38       1.0  0.04927  0.04891  0.32002  1.0000
  H   H34       1.0  0.17942  0.28739  0.00741  1.0000
  C   C39       1.0  0.04716  0.02476  0.12156  1.0000
  C   C40       1.0  0.01467  0.10740  0.13286  1.0000
  H   H35       1.0  0.04526  0.13061  0.97555  1.0000
  C   C41       1.0  0.22404  0.19742  0.97847  1.0000
  H   H36       1.0  0.16353  0.23608  0.46695  1.0000
  C   C42       1.0  0.17175  0.02154  0.01158  1.0000
  H   H37       1.0  0.22104  0.11063  0.33240  1.0000
  H   H38       1.0  0.25128  0.05252  0.35138  1.0000
  C   C43       1.0  0.24621  0.02872  0.41156  1.0000
  C   C44       1.0  0.21257  0.32463  0.42129  1.0000
  H   H39       1.0  0.24179  0.15361  0.16928  1.0000
  C   C45       1.0  0.10001  0.00576  0.19360  1.0000
  C   C46       1.0  0.15998  0.21929  0.46719  1.0000
  C   C47       1.0  0.04916  0.06346  0.11912  1.0000
  C   C48       1.0  0.04402  0.04406  0.10733  1.0000
  H   H40       1.0  0.06045  0.07874  0.15486  1.0000
  H   H41       1.0  0.04791  0.07823  0.10766  1.0000
  H   H42       1.0  0.03804  0.04381  0.08703  1.0000
  C   C49       1.0  0.14838  0.13779  0.38849  1.0000
  C   C50       1.0  0.15191  0.11528  0.38621  1.0000
  C   C51       1.0  0.15601  0.10264  0.40895  1.0000
  C   C52       1.0  0.02649  0.12152  0.00884  1.0000
  H   H43       1.0  0.14511  0.14759  0.37084  1.0000
  H   H44       1.0  0.15057  0.10765  0.36687  1.0000
  H   H45       1.0  0.15805  0.08511  0.40710  1.0000
  Fe  Fe8       1.0  0.22519  0.23489  0.34567  1.0000
  C   C53       1.0  0.15131  0.13511  0.43671  1.0000
  H   H46       1.0  0.13773  0.03179  0.01829  1.0000
  C   C54       1.0  0.02490  0.07872  0.40207  1.0000
  C   C55       1.0  0.23882  0.28970  0.34804  1.0000
  H   H47       1.0  0.09661  0.00894  0.12862  1.0000
  C   C56       1.0  0.23298  0.31972  0.24731  1.0000
  H   H48       1.0  0.24103  0.14554  0.22181  1.0000
  C   C57       1.0  0.05221  0.06373  0.34081  1.0000
  C   C58       1.0  0.24153  0.11899  0.17461  1.0000
  C   C59       1.0  0.20318  0.14096  0.00829  1.0000
  H   H49       1.0  0.14369  0.16506  0.41483  1.0000
  C   C60       1.0  0.19479  0.26089  0.03047  1.0000
  H   H50       1.0  0.11158  0.13804  0.09078  1.0000
  C   C61       1.0  0.23840  0.30778  0.18393  1.0000
  C   C62       1.0  0.21860  0.29828  0.18570  1.0000
  C   C63       1.0  0.21690  0.27742  0.17542  1.0000
  C   C64       1.0  0.23492  0.26589  0.16330  1.0000
  H   H51       1.0  0.24930  0.29647  0.40420  1.0000
  S   S17       1.0  0.12358  0.06067  0.96818  1.0000
  Fe  Fe9       1.0  0.24720  0.19637  0.37602  1.0000
  H   H52       1.0  0.19679  0.08093  0.99006  1.0000
  H   H53       1.0  0.05234  0.09567  0.41460  1.0000
  C   C65       1.0  0.02823  0.01125  0.30085  1.0000
  H   H54       1.0  0.20345  0.11274  0.39924  1.0000
  H   H55       1.0  0.24092  0.15223  0.27025  1.0000
  C   C66       1.0  0.21458  0.24924  0.03789  1.0000
  H   H56       1.0  0.20442  0.30710  0.19480  1.0000
  H   H57       1.0  0.20160  0.27016  0.17676  1.0000
  H   H58       1.0  0.23361  0.24970  0.15531  1.0000
  Fe  Fe10      1.0  0.25260  0.19601  0.06862  1.0000
  H   H59       1.0  0.03428  0.12721  0.15694  1.0000
  P   P1        1.0  0.22182  0.06703  0.39451  1.0000
  H   H60       1.0  0.23682  0.03011  0.42962  1.0000
  C   C67       1.0  0.20207  0.06350  0.36793  1.0000
  C   C68       1.0  0.19828  0.04244  0.35950  1.0000
  C   C69       1.0  0.18365  0.03938  0.33853  1.0000
  C   C70       1.0  0.17243  0.05719  0.32596  1.0000
  C   C71       1.0  0.17561  0.07815  0.33447  1.0000
  C   C72       1.0  0.19042  0.08133  0.35530  1.0000
  C   C73       1.0  0.19373  0.05054  0.43056  1.0000
  H   H61       1.0  0.22831  0.24137  0.21303  1.0000
  C   C74       1.0  0.24260  0.04423  0.39135  1.0000
  H   H62       1.0  0.24775  0.08415  0.17877  1.0000
  C   C75       1.0  0.23042  0.13191  0.39603  1.0000
  C   C76       1.0  0.19476  0.27842  0.01323  1.0000
  C   C77       1.0  0.22915  0.14231  0.26130  1.0000
  C   C78       1.0  0.08056  0.13837  0.46205  1.0000
  H   H63       1.0  0.20653  0.02820  0.36902  1.0000
  C   C79       1.0  0.03614  0.01772  0.40744  1.0000
  H   H64       1.0  0.16117  0.05471  0.30967  1.0000
  H   H65       1.0  0.16661  0.09192  0.32473  1.0000
  H   H66       1.0  0.19268  0.09775  0.36103  1.0000
  H   H67       1.0  0.18998  0.03917  0.41497  1.0000
  Fe  Fe11      1.0  0.24856  0.19730  0.31484  1.0000
  S   S18       1.0  0.21814  0.27160  0.34849  1.0000
  H   H68       1.0  0.21233  0.24842  0.25776  1.0000
  H   H69       1.0  0.03856  0.02730  0.01596  1.0000
  S   S19       1.0  0.23096  0.19112  0.03223  1.0000
  H   H70       1.0  0.14133  0.12255  0.12086  1.0000
  C   C80       1.0  0.23719  0.09002  0.10049  1.0000
  C   C81       1.0  0.23498  0.07215  0.11660  1.0000
  C   C82       1.0  0.21801  0.05916  0.11169  1.0000
  C   C83       1.0  0.20351  0.06375  0.09030  1.0000
  C   C84       1.0  0.20591  0.08137  0.07356  1.0000
  C   C85       1.0  0.22269  0.09467  0.07905  1.0000
  P   P2        1.0  0.18581  0.08773  0.04738  1.0000
  C   C86       1.0  0.17994  0.06207  0.03289  1.0000
  C   C87       1.0  0.16185  0.10273  0.06152  1.0000
  H   H71       1.0  0.06188  0.05209  0.03950  1.0000
  H   H72       1.0  0.20679  0.19897  0.98324  1.0000
  H   H73       1.0  0.10709  0.14035  0.43533  1.0000
  C   C88       1.0  0.14245  0.11959  0.09956  1.0000
  C   C89       1.0  0.16048  0.10683  0.08908  1.0000
  C   C90       1.0  0.19738  0.04713  0.02457  1.0000
  H   H74       1.0  0.21470  0.33347  0.14613  1.0000
  C   C91       1.0  0.03319  0.13615  0.99036  1.0000
  C   C92       1.0  0.15436  0.03616  0.02013  1.0000
  C   C93       1.0  0.15837  0.05639  0.03072  1.0000
  C   C94       1.0  0.19532  0.10502  0.02201  1.0000
  C   C95       1.0  0.19727  0.12696  0.02801  1.0000
  C   C96       1.0  0.23182  0.32191  0.27506  1.0000
  C   C97       1.0  0.21312  0.13461  0.27707  1.0000
  H   H75       1.0  0.25763  0.14118  0.04495  1.0000
  H   H76       1.0  0.05295  0.05867  0.36135  1.0000
  C   C98       1.0  0.24603  0.01893  0.06955  1.0000
  C   C99       1.0  0.24878  0.32672  0.35386  1.0000
  H   H77       1.0  0.21599  0.04556  0.12452  1.0000
  H   H78       1.0  0.19021  0.05368  0.08703  1.0000
  H   H79       1.0  0.22460  0.10868  0.06703  1.0000
  C   C100      1.0  0.12687  0.12432  0.05520  1.0000
  H   H80       1.0  0.17263  0.03723  0.45844  1.0000
  H   H81       1.0  0.11353  0.13056  0.04214  1.0000
  C   C101      1.0  0.04569  0.01897  0.38248  1.0000
  H   H82       1.0  0.17330  0.10035  0.10256  1.0000
  H   H83       1.0  0.21418  0.05102  0.02646  1.0000
  H   H84       1.0  0.24638  0.06831  0.13290  1.0000
  H   H85       1.0  0.22861  0.30486  0.23813  1.0000
  C   C102      1.0  0.14941  0.00718  0.40616  1.0000
  H   H86       1.0  0.14459  0.06736  0.03726  1.0000
  H   H87       1.0  0.19395  0.13338  0.04788  1.0000
  H   H88       1.0  0.12454  0.00618  0.30861  1.0000
  C   C103      1.0  0.25696  0.00898  0.20726  1.0000
  C   C104      1.0  0.01343  0.01797  0.40954  1.0000
  C   C105      1.0  0.25096  0.13782  0.16745  1.0000
  C   C106      1.0  0.05229  0.07756  0.28800  1.0000
  C   C107      1.0  0.05463  0.09232  0.30881  1.0000
  C   C108      1.0  0.05466  0.08538  0.33518  1.0000
  C   C109      1.0  0.05520  0.02477  0.14784  1.0000
  H   H89       1.0  0.05244  0.08291  0.26754  1.0000
  H   H90       1.0  0.05689  0.10904  0.30448  1.0000
  H   H91       1.0  0.05725  0.09667  0.35127  1.0000
  H   H92       1.0  0.17748  0.11123  0.15017  1.0000
  H   H93       1.0  0.02954  0.16912  0.97656  1.0000
  C   C110      1.0  0.24668  0.28288  0.08991  1.0000
  S   S20       1.0  0.25970  0.21938  0.34691  1.0000
  C   C111      1.0  0.25437  0.04115  0.36755  1.0000
  C   C112      1.0  0.05644  0.06371  0.14560  1.0000
  H   H94       1.0  0.01473  0.01256  0.15443  1.0000
  H   H95       1.0  0.24636  0.11625  0.00954  1.0000
  C   C113      1.0  0.18384  0.04933  0.45531  1.0000
  C   C114      1.0  0.18822  0.16590  0.13224  1.0000
  C   C115      1.0  0.17203  0.17820  0.14679  1.0000
  C   C116      1.0  0.16834  0.17301  0.17327  1.0000
  C   C117      1.0  0.18110  0.15582  0.18539  1.0000
  C   C118      1.0  0.19774  0.14370  0.17115  1.0000
  C   C119      1.0  0.20087  0.14853  0.14425  1.0000
  P   P3        1.0  0.21358  0.12090  0.18650  1.0000
  C   C120      1.0  0.25463  0.27522  0.16145  1.0000
  C   C121      1.0  0.21397  0.12553  0.22213  1.0000
  C   C122      1.0  0.04438  0.05652  0.03740  1.0000
  H   H96       1.0  0.20658  0.01557  0.00702  1.0000
  H   H97       1.0  0.20470  0.15786  0.01312  1.0000
  C   C123      1.0  0.19773  0.12205  0.26560  1.0000
  C   C124      1.0  0.19797  0.11769  0.23822  1.0000
  C   C125      1.0  0.25019  0.32074  0.02277  1.0000
  H   H98       1.0  0.13491  0.01862  0.40704  1.0000
  H   H99       1.0  0.03139  0.06365  0.41124  1.0000
  H   H100      1.0  0.04386  0.00972  0.11194  1.0000
  C   C126      1.0  0.25233  0.00718  0.02393  1.0000
  C   C127      1.0  0.20058  0.09644  0.17938  1.0000
  C   C128      1.0  0.18317  0.09664  0.16083  1.0000
  C   C129      1.0  0.17224  0.07811  0.15662  1.0000
  C   C130      1.0  0.17859  0.05923  0.17083  1.0000
  C   C131      1.0  0.19588  0.05884  0.18933  1.0000
  C   C132      1.0  0.20674  0.07741  0.19374  1.0000
  H   H101      1.0  0.19125  0.17011  0.11182  1.0000
  H   H102      1.0  0.16246  0.19185  0.13764  1.0000
  H   H103      1.0  0.15566  0.18233  0.18460  1.0000
  H   H104      1.0  0.17786  0.15208  0.20588  1.0000
  H   H105      1.0  0.21328  0.13914  0.13267  1.0000
  C   C133      1.0  0.25424  0.09888  0.17284  1.0000
  H   H106      1.0  0.21450  0.23533  0.05073  1.0000
  H   H107      1.0  0.21621  0.31714  0.35859  1.0000
  H   H108      1.0  0.18496  0.11652  0.27774  1.0000
  H   H109      1.0  0.18507  0.10900  0.22958  1.0000
  P   P4        1.0  0.25972  0.28025  0.99739  1.0000
  Fe  Fe12      1.0  0.25017  0.19950  0.12983  1.0000
  H   H110      1.0  0.17950  0.25616  0.03795  1.0000
  H   H111      1.0  0.23567  0.25939  0.29525  1.0000
  P   P5        1.0  0.04535  0.02103  0.32703  1.0000
  H   H112      1.0  0.21400  0.07682  0.30776  1.0000
  C   C134      1.0  0.23541  0.19328  0.24467  1.0000
  S   S21       1.0  0.22761  0.19890  0.16477  1.0000
  C   C135      1.0  0.23036  0.08189  0.30890  1.0000
  H   H113      1.0  0.22461  0.09221  0.44479  1.0000
  H   H114      1.0  0.21444  0.29902  0.08233  1.0000
  H   H115      1.0  0.21214  0.13907  0.29799  1.0000
  S   S22       1.0  0.12972  0.06587  0.46686  1.0000
  C   C136      1.0  0.02359  0.05937  0.21493  1.0000
  C   C137      1.0  0.23434  0.10089  0.32263  1.0000
  C   C138      1.0  0.22937  0.13816  0.23385  1.0000
  C   C139      1.0  0.21302  0.08033  0.44716  1.0000
  S   S23       1.0  0.25725  0.17152  0.10151  1.0000
  H   H116      1.0  0.14549  0.10851  0.02337  1.0000
  C   C140      1.0  0.05953  0.04440  0.15987  1.0000
  C   C141      1.0  0.24744  0.06956  0.29603  1.0000
  C   C142      1.0  0.20843  0.06607  0.42625  1.0000
  C   C143      1.0  0.23445  0.25525  0.02848  1.0000
  C   C144      1.0  0.23977  0.19420  0.99910  1.0000
  C   C145      1.0  0.26064  0.28288  0.34182  1.0000
  H   H117      1.0  0.22633  0.18079  0.43250  1.0000
  C   C146      1.0  0.22093  0.11232  0.39601  1.0000
  C   C147      1.0  0.23124  0.30113  0.08774  1.0000
  C   C148      1.0  0.23302  0.31170  0.35390  1.0000
  H   H118      1.0  0.04793  0.04485  0.27698  1.0000
  C   C149      1.0  0.23400  0.09248  0.39271  1.0000
  C   C150      1.0  0.23972  0.19500  0.19663  1.0000
  C   C151      1.0  0.19548  0.33331  0.40467  1.0000
  C   C152      1.0  0.23748  0.32202  0.09225  1.0000
  H   H119      1.0  0.24167  0.26699  0.08605  1.0000
  H   H120      1.0  0.18086  0.02312  0.33208  1.0000
  C   C153      1.0  0.25309  0.13188  0.39365  1.0000
  C   C154      1.0  0.25483  0.28690  0.42134  1.0000
  C   C155      1.0  0.08988  0.01215  0.31584  1.0000
  C   C156      1.0  0.23719  0.18309  0.44924  1.0000
  H   H121      1.0  0.22021  0.14719  0.39806  1.0000
  C   C157      1.0  0.15577  0.11251  0.43417  1.0000
  H   H122      1.0  0.08837  0.02722  0.30506  1.0000
  C   C158      1.0  0.25739  0.29680  0.44635  1.0000
  H   H123      1.0  0.18184  0.32399  0.40011  1.0000
  H   H124      1.0  0.25673  0.25691  0.39896  1.0000
  C   C159      1.0  0.22942  0.25053  0.25446  1.0000
  C   C160      1.0  0.25927  0.26444  0.41823  1.0000
  P   P6        1.0  0.23993  0.33524  0.19600  1.0000
  C   C161      1.0  0.02437  0.15783  0.99097  1.0000
  H   H125      1.0  0.15784  0.10236  0.45153  1.0000
  S   S24       1.0  0.24176  0.22317  0.09705  1.0000
  C   C162      1.0  0.24260  0.25660  0.27560  1.0000
  C   C163      1.0  0.01191  0.11578  0.08555  1.0000
  C   C164      1.0  0.03259  0.02001  0.35923  1.0000
  C   C165      1.0  0.19895  0.09748  0.99572  1.0000
  C   C166      1.0  0.12570  0.12842  0.08261  1.0000
  C   C167      1.0  0.14490  0.11160  0.04465  1.0000
  C   C168      1.0  0.23967  0.33667  0.23198  1.0000
  H   H126      1.0  0.21166  0.30880  0.42989  1.0000
  C   C169      1.0  0.03370  0.13643  0.11553  1.0000
  H   H127      1.0  0.18837  0.20785  0.44430  1.0000
  H   H128      1.0  0.21430  0.29751  0.98943  1.0000
  H   H129      1.0  0.03037  0.14212  0.07363  1.0000
  C   C170      1.0  0.16954  0.18169  0.45485  1.0000
  C   C171      1.0  0.02830  0.11637  0.39255  1.0000
  H   H130      1.0  0.07095  0.01025  0.26185  1.0000
  C   C172      1.0  0.02563  0.13238  0.08991  1.0000
  H   H131      1.0  0.15159  0.00843  0.36335  1.0000
  H   H132      1.0  0.01521  0.02637  0.21193  1.0000
  H   H133      1.0  0.24958  0.24591  0.03449  1.0000
  H   H134      1.0  0.03461  0.08258  0.46610  1.0000
  H   H135      1.0  0.16856  0.00590  0.00328  1.0000
  H   H136      1.0  0.25778  0.12309  0.33278  1.0000
  H   H137      1.0  0.24552  0.00917  0.22354  1.0000
  C   C173      1.0  0.10152  0.01079  0.24151  1.0000
  C   C174      1.0  0.26064  0.24867  0.22511  1.0000
  H   H138      1.0  0.23786  0.01729  0.08829  1.0000
  P   P7        1.0  0.25153  0.32584  0.45019  1.0000
  C   C175      1.0  0.25818  0.19018  0.24822  1.0000
  C   C176      1.0  0.25530  0.10795  0.32282  1.0000
  C   C177      1.0  0.25870  0.18768  0.44475  1.0000
  H   H139      1.0  0.06332  0.01922  0.38142  1.0000
  C   C178      1.0  0.01257  0.08276  0.04365  1.0000
  Fe  Fe13      1.0  0.11985  0.03192  0.46440  1.0000
  H   H140      1.0  0.16209  0.33259  0.96944  1.0000
  C   C179      1.0  0.20483  0.11157  0.97603  1.0000
  H   H141      1.0  0.19908  0.33772  0.00184  1.0000
  H   H142      1.0  0.06924  0.13490  0.44614  1.0000
  C   C180      1.0  0.10222  0.14144  0.45600  1.0000
  C   C181      1.0  0.07909  0.00863  0.24285  1.0000
  C   C182      1.0  0.25639  0.29613  0.17153  1.0000
  H   H143      1.0  0.26046  0.14706  0.39382  1.0000
  C   C183      1.0  0.25762  0.11010  0.02509  1.0000
  C   C184      1.0  0.01842  0.07748  0.46576  1.0000
  H   H144      1.0  0.10837  0.00549  0.17476  1.0000
  C   C185      1.0  0.24157  0.00547  0.04804  1.0000
  Fe  Fe14      1.0  0.20114  0.20016  0.83903  1.0000
  S   S25       1.0  0.23528  0.18298  0.84070  1.0000
  S   S26       1.0  0.17273  0.17904  0.83746  1.0000
  Fe  Fe15      1.0  0.21815  0.24502  0.84672  1.0000
  C   C186      1.0  0.21994  0.30871  0.60411  1.0000
  Fe  Fe16      1.0  0.24080  0.20542  0.87526  1.0000
  H   H145      1.0  0.17840  0.26511  0.78638  1.0000
  S   S27       1.0  0.20929  0.22585  0.81035  1.0000
  S   S28       1.0  0.20626  0.22109  0.87542  1.0000
  Fe  Fe17      1.0  0.06785  0.09444  0.72225  1.0000
  S   S29       1.0  0.08538  0.06101  0.72036  1.0000
  Fe  Fe18      1.0  0.11111  0.11553  0.72848  1.0000
  S   S30       1.0  0.13122  0.08329  0.72680  1.0000
  S   S31       1.0  0.12993  0.14525  0.73021  1.0000
  Fe  Fe19      1.0  0.10872  0.07546  0.69309  1.0000
  S   S32       1.0  0.12130  0.05618  0.65663  1.0000
  Fe  Fe20      1.0  0.10600  0.07252  0.75406  1.0000
  S   S33       1.0  0.11647  0.05168  0.78942  1.0000
  S   S34       1.0  0.09002  0.10843  0.69280  1.0000
  S   S35       1.0  0.08703  0.10513  0.75783  1.0000
  H   H146      1.0  0.11447  0.15847  0.92641  1.0000
  C   C187      1.0  0.19092  0.32845  0.94459  1.0000
  C   C188      1.0  0.17569  0.02702  0.64539  1.0000
  H   H147      1.0  0.18412  0.33166  0.80636  1.0000
  C   C189      1.0  0.17310  0.01660  0.66953  1.0000
  Fe  Fe21      1.0  0.10636  0.07042  0.50116  1.0000
  S   S36       1.0  0.11132  0.09111  0.53802  1.0000
  Fe  Fe22      1.0  0.09757  0.06948  0.93726  1.0000
  S   S37       1.0  0.10219  0.09339  0.90473  1.0000
  S   S38       1.0  0.09862  0.03588  0.50084  1.0000
  S   S39       1.0  0.09016  0.03547  0.92822  1.0000
  C   C190      1.0  0.14706  0.00882  0.53555  1.0000
  H   H148      1.0  0.03663  0.05336  0.71739  1.0000
  C   C191      1.0  0.19000  0.06230  0.60394  1.0000
  C   C192      1.0  0.08586  0.01687  0.67724  1.0000
  H   H149      1.0  0.21468  0.23912  0.64766  1.0000
  H   H150      1.0  0.23557  0.10942  0.53215  1.0000
  H   H151      1.0  0.24219  0.24740  0.96372  1.0000
  C   C193      1.0  0.01752  0.05290  0.89100  1.0000
  H   H152      1.0  0.04447  0.10571  0.66830  1.0000
  C   C194      1.0  0.13696  0.19185  0.48077  1.0000
  H   H153      1.0  0.04276  0.06501  0.52331  1.0000
  C   C195      1.0  0.03174  0.03436  0.88579  1.0000
  C   C196      1.0  0.11358  0.06382  0.82135  1.0000
  C   C197      1.0  0.11643  0.05066  0.84391  1.0000
  C   C198      1.0  0.11340  0.05968  0.86956  1.0000
  C   C199      1.0  0.10766  0.08195  0.87286  1.0000
  C   C200      1.0  0.10594  0.09528  0.85041  1.0000
  C   C201      1.0  0.10877  0.08624  0.82471  1.0000
  H   H154      1.0  0.12060  0.03338  0.84153  1.0000
  H   H155      1.0  0.11565  0.04937  0.88672  1.0000
  H   H156      1.0  0.10222  0.11261  0.85285  1.0000
  H   H157      1.0  0.10742  0.09668  0.80761  1.0000
  C   C202      1.0  0.11625  0.06597  0.62389  1.0000
  C   C203      1.0  0.11778  0.05123  0.60233  1.0000
  C   C204      1.0  0.11536  0.05859  0.57589  1.0000
  C   C205      1.0  0.11185  0.08083  0.57082  1.0000
  C   C206      1.0  0.10999  0.09552  0.59240  1.0000
  C   C207      1.0  0.11199  0.08813  0.61883  1.0000
  H   H158      1.0  0.12104  0.03406  0.60611  1.0000
  H   H159      1.0  0.11689  0.04713  0.55945  1.0000
  H   H160      1.0  0.10731  0.11275  0.58867  1.0000
  H   H161      1.0  0.11089  0.09963  0.63525  1.0000
  C   C208      1.0  0.16143  0.16940  0.80736  1.0000
  C   C209      1.0  0.16862  0.17539  0.78242  1.0000
  C   C210      1.0  0.15892  0.16777  0.75895  1.0000
  C   C211      1.0  0.14231  0.15373  0.76016  1.0000
  C   C212      1.0  0.13546  0.14734  0.78507  1.0000
  C   C213      1.0  0.14476  0.15540  0.80853  1.0000
  H   H162      1.0  0.18135  0.18622  0.78119  1.0000
  H   H163      1.0  0.16422  0.17291  0.73976  1.0000
  H   H164      1.0  0.12263  0.13662  0.78629  1.0000
  H   H165      1.0  0.13884  0.15080  0.82760  1.0000
  C   C214      1.0  0.23349  0.20235  0.74322  1.0000
  C   C215      1.0  0.22504  0.20009  0.71725  1.0000
  H   H166      1.0  0.22276  0.20212  0.76009  1.0000
  H   H167      1.0  0.20778  0.19832  0.71432  1.0000
  C   C216      1.0  0.25475  0.29154  0.58797  1.0000
  H   H168      1.0  0.21817  0.20096  0.93601  1.0000
  H   H169      1.0  0.22975  0.16132  0.91554  1.0000
  H   H170      1.0  0.20448  0.14229  0.53810  1.0000
  C   C217      1.0  0.16756  0.07584  0.81544  1.0000
  C   C218      1.0  0.17152  0.09187  0.79732  1.0000
  C   C219      1.0  0.18108  0.11024  0.80614  1.0000
  C   C220      1.0  0.18624  0.11280  0.83317  1.0000
  C   C221      1.0  0.18171  0.09704  0.85172  1.0000
  C   C222      1.0  0.17236  0.07847  0.84254  1.0000
  P   P8        1.0  0.18612  0.10180  0.88704  1.0000
  C   C223      1.0  0.21099  0.11507  0.89054  1.0000
  C   C224      1.0  0.16329  0.11961  0.89967  1.0000
  C   C225      1.0  0.15398  0.13695  0.88419  1.0000
  C   C226      1.0  0.13654  0.15097  0.89384  1.0000
  H   H171      1.0  0.20745  0.10573  0.95578  1.0000
  C   C227      1.0  0.25789  0.15052  0.76610  1.0000
  C   C228      1.0  0.15535  0.11701  0.92548  1.0000
  C   C229      1.0  0.21100  0.13494  0.90432  1.0000
  C   C230      1.0  0.22995  0.14576  0.90540  1.0000
  H   H172      1.0  0.07151  0.03136  0.84484  1.0000
  H   H173      1.0  0.20858  0.32792  0.85768  1.0000
  C   C231      1.0  0.23024  0.10624  0.87797  1.0000
  C   C232      1.0  0.18802  0.07639  0.90486  1.0000
  C   C233      1.0  0.20818  0.06666  0.91480  1.0000
  C   C234      1.0  0.20910  0.04711  0.92872  1.0000
  C   C235      1.0  0.18993  0.03727  0.93304  1.0000
  C   C236      1.0  0.16986  0.04699  0.92352  1.0000
  C   C237      1.0  0.16887  0.06634  0.90940  1.0000
  H   H174      1.0  0.15990  0.06170  0.80864  1.0000
  H   H175      1.0  0.16671  0.09026  0.77657  1.0000
  H   H176      1.0  0.18363  0.12299  0.79221  1.0000
  H   H177      1.0  0.19287  0.12761  0.83965  1.0000
  H   H178      1.0  0.16812  0.06618  0.85610  1.0000
  H   H179      1.0  0.16028  0.13990  0.86475  1.0000
  H   H180      1.0  0.12950  0.16425  0.88157  1.0000
  C   C238      1.0  0.15095  0.17576  0.46797  1.0000
  S   S40       1.0  0.25299  0.23051  0.84876  1.0000
  C   C239      1.0  0.19317  0.02007  0.62858  1.0000
  H   H181      1.0  0.19634  0.14247  0.91374  1.0000
  C   C240      1.0  0.11732  0.14518  0.47646  1.0000
  C   C241      1.0  0.23317  0.04157  0.85499  1.0000
  C   C242      1.0  0.01928  0.05864  0.71773  1.0000
  H   H182      1.0  0.23042  0.09107  0.86709  1.0000
  H   H183      1.0  0.22320  0.07398  0.91191  1.0000
  H   H184      1.0  0.05120  0.06596  0.85709  1.0000
  C   C243      1.0  0.23650  0.26016  0.66616  1.0000
  C   C244      1.0  0.25583  0.01354  0.67485  1.0000
  H   H185      1.0  0.15304  0.07353  0.90214  1.0000
  S   S41       1.0  0.21003  0.28152  0.85162  1.0000
  H   H186      1.0  0.14315  0.10671  0.49680  1.0000
  H   H187      1.0  0.25685  0.04274  0.65234  1.0000
  H   H188      1.0  0.22931  0.27407  0.60380  1.0000
  C   C245      1.0  0.19854  0.09443  0.62873  1.0000
  C   C246      1.0  0.07416  0.00902  0.56206  1.0000
  P   P9        1.0  0.19552  0.03354  0.59719  1.0000
  H   H189      1.0  0.25022  0.24772  0.66617  1.0000
  C   C247      1.0  0.20282  0.07228  0.62295  1.0000
  H   H190      1.0  0.16385  0.04037  0.63963  1.0000
  H   H191      1.0  0.19667  0.26953  0.74331  1.0000
  H   H192      1.0  0.20403  0.30735  0.61257  1.0000
  H   H193      1.0  0.02605  0.01990  0.52797  1.0000
  H   H194      1.0  0.22932  0.30289  0.49208  1.0000
  H   H195      1.0  0.01902  0.11567  0.93666  1.0000
  H   H196      1.0  0.15497  0.03948  0.92706  1.0000
  H   H197      1.0  0.04837  0.03312  0.89369  1.0000
  C   C248      1.0  0.17980  0.29837  0.79857  1.0000
  C   C249      1.0  0.22516  0.32192  0.85240  1.0000
  H   H198      1.0  0.17732  0.12369  0.62120  1.0000
  C   C250      1.0  0.25610  0.04166  0.48231  1.0000
  C   C251      1.0  0.04192  0.09892  0.53341  1.0000
  C   C252      1.0  0.06661  0.03589  0.80268  1.0000
  H   H199      1.0  0.19050  0.02205  0.94367  1.0000
  C   C253      1.0  0.23944  0.04893  0.68918  1.0000
  H   H200      1.0  0.20846  0.10212  0.64340  1.0000
  C   C254      1.0  0.20068  0.30337  0.75025  1.0000
  H   H201      1.0  0.21599  0.06287  0.63349  1.0000
  C   C255      1.0  0.24901  0.13693  0.89278  1.0000
  C   C256      1.0  0.04535  0.02391  0.59182  1.0000
  C   C257      1.0  0.13774  0.13093  0.93501  1.0000
  H   H202      1.0  0.03563  0.06778  0.66678  1.0000
  C   C258      1.0  0.02064  0.11292  0.91541  1.0000
  C   C259      1.0  0.03305  0.07906  0.53151  1.0000
  C   C260      1.0  0.16762  0.09664  0.59810  1.0000
  C   C261      1.0  0.20022  0.29140  0.66643  1.0000
  H   H203      1.0  0.13075  0.01297  0.90222  1.0000
  H   H204      1.0  0.17993  0.06309  0.49470  1.0000
  C   C262      1.0  0.15701  0.11425  0.50502  1.0000
  C   C263      1.0  0.11029  0.14598  0.50302  1.0000
  C   C264      1.0  0.16873  0.10446  0.52651  1.0000
  C   C265      1.0  0.17988  0.14393  0.50698  1.0000
  C   C266      1.0  0.05789  0.04988  0.78276  1.0000
  C   C267      1.0  0.05216  0.02203  0.65095  1.0000
  P   P10       1.0  0.02779  0.10127  0.82447  1.0000
  C   C268      1.0  0.17569  0.02456  0.57359  1.0000
  C   C269      1.0  0.04416  0.07617  0.81639  1.0000
  H   H205      1.0  0.05992  0.10113  0.86919  1.0000
  C   C270      1.0  0.17781  0.01370  0.78893  1.0000
  Fe  Fe23      1.0  0.07153  0.04712  0.47204  1.0000
  C   C271      1.0  0.03749  0.01854  0.54470  1.0000
  H   H206      1.0  0.23878  0.25398  0.77168  1.0000
  C   C272      1.0  0.21947  0.02662  0.86421  1.0000
  H   H207      1.0  0.05097  0.06484  0.58295  1.0000
  C   C273      1.0  0.22621  0.32930  0.59821  1.0000
  H   H208      1.0  0.04049  0.08073  0.77374  1.0000
  C   C274      1.0  0.01218  0.08081  0.71935  1.0000
  H   H209      1.0  0.18422  0.15947  0.50037  1.0000
  C   C275      1.0  0.04262  0.00790  0.66806  1.0000
  C   C276      1.0  0.23675  0.01753  0.71683  1.0000
  C   C277      1.0  0.20344  0.31388  0.92782  1.0000
  H   H210      1.0  0.16383  0.08953  0.53449  1.0000
  H   H211      1.0  0.19488  0.10703  0.55520  1.0000
  C   C278      1.0  0.24932  0.27001  0.73687  1.0000
  C   C279      1.0  0.25180  0.29218  0.84037  1.0000
  C   C280      1.0  0.01524  0.05585  0.47041  1.0000
  C   C281      1.0  0.23035  0.29965  0.84742  1.0000
  H   H212      1.0  0.21338  0.31550  0.53508  1.0000
  C   C282      1.0  0.22040  0.29654  0.67668  1.0000
  C   C283      1.0  0.16685  0.30039  0.95310  1.0000
  H   H213      1.0  0.18265  0.26676  0.64767  1.0000
  C   C284      1.0  0.18603  0.11438  0.53825  1.0000
  H   H214      1.0  0.16121  0.06723  0.57815  1.0000
  H   H215      1.0  0.18627  0.30358  0.66618  1.0000
  S   S42       1.0  0.23470  0.17872  0.52995  1.0000
  C   C285      1.0  0.02443  0.01733  0.87084  1.0000
  H   H216      1.0  0.12165  0.14854  0.51920  1.0000
  C   C286      1.0  0.23045  0.19856  0.95168  1.0000
  H   H217      1.0  0.08356  0.14274  0.52959  1.0000
  C   C287      1.0  0.12825  0.14783  0.91914  1.0000
  C   C288      1.0  0.25128  0.03577  0.67041  1.0000
  H   H218      1.0  0.16263  0.02778  0.50727  1.0000
  C   C289      1.0  0.23000  0.31962  0.49807  1.0000
  C   C290      1.0  0.21629  0.25513  0.65585  1.0000
  C   C291      1.0  0.05813  0.13247  0.82174  1.0000
  C   C292      1.0  0.06896  0.14812  0.80879  1.0000
  C   C293      1.0  0.06286  0.15427  0.78285  1.0000
  C   C294      1.0  0.06420  0.04195  0.82941  1.0000
  C   C295      1.0  0.05290  0.06191  0.83628  1.0000
  C   C296      1.0  0.04113  0.12264  0.80878  1.0000
  H   H219      1.0  0.23529  0.05711  0.59121  1.0000
  Fe  Fe24      1.0  0.24777  0.20128  0.62650  1.0000
  C   C297      1.0  0.24920  0.11711  0.87914  1.0000
  Fe  Fe25      1.0  0.11489  0.02665  0.96059  1.0000
  H   H220      1.0  0.21347  0.17683  0.47883  1.0000
  H   H221      1.0  0.08244  0.15517  0.81867  1.0000
  H   H222      1.0  0.07166  0.16598  0.77261  1.0000
  H   H223      1.0  0.18811  0.04168  0.54058  1.0000
  S   S43       1.0  0.03764  0.03628  0.47647  1.0000
  C   C298      1.0  0.19762  0.29285  0.92372  1.0000
  C   C299      1.0  0.02927  0.11715  0.54346  1.0000
  S   S44       1.0  0.23385  0.22014  0.59083  1.0000
  C   C300      1.0  0.17210  0.07459  0.59189  1.0000
  Fe  Fe26      1.0  0.24369  0.20988  0.81421  1.0000
  C   C301      1.0  0.04594  0.14472  0.76980  1.0000
  C   C302      1.0  0.19381  0.28326  0.75683  1.0000
  H   H224      1.0  0.20589  0.09071  0.48751  1.0000
  C   C303      1.0  0.18092  0.10661  0.61633  1.0000
  H   H225      1.0  0.05862  0.10013  0.52714  1.0000
  H   H226      1.0  0.15369  0.10600  0.58885  1.0000
  C   C304      1.0  0.04361  0.10502  0.87700  1.0000
  H   H227      1.0  0.22694  0.02477  0.48118  1.0000
  C   C305      1.0  0.25071  0.00622  0.88526  1.0000
  H   H228      1.0  0.17220  0.29623  0.81761  1.0000
  C   C306      1.0  0.22992  0.18086  0.47548  1.0000
  C   C307      1.0  0.18341  0.28076  0.78102  1.0000
  H   H229      1.0  0.20694  0.28193  0.91011  1.0000
  H   H230      1.0  0.20893  0.30502  0.73158  1.0000
  H   H231      1.0  0.12262  0.18776  0.49117  1.0000
  C   C308      1.0  0.25567  0.03898  0.86113  1.0000
  C   C309      1.0  0.23200  0.03991  0.71256  1.0000
  P   P11       1.0  0.21669  0.05701  0.73679  1.0000
  C   C310      1.0  0.20125  0.04030  0.75735  1.0000
  C   C311      1.0  0.23493  0.07141  0.75745  1.0000
  C   C312      1.0  0.22980  0.07630  0.78419  1.0000
  C   C313      1.0  0.22056  0.32677  0.52225  1.0000
  C   C314      1.0  0.17633  0.03093  0.54685  1.0000
  C   C315      1.0  0.17884  0.03882  0.75241  1.0000
  C   C316      1.0  0.23877  0.28099  0.67639  1.0000
  C   C317      1.0  0.19689  0.32121  0.76769  1.0000
  H   H232      1.0  0.05708  0.13615  0.49314  1.0000
  C   C318      1.0  0.21183  0.02815  0.77817  1.0000
  C   C319      1.0  0.19828  0.07672  0.71914  1.0000
  C   C320      1.0  0.18708  0.07051  0.69614  1.0000
  C   C321      1.0  0.17246  0.08555  0.68270  1.0000
  C   C322      1.0  0.16923  0.10701  0.69183  1.0000
  C   C323      1.0  0.18047  0.11337  0.71454  1.0000
  C   C324      1.0  0.19484  0.09831  0.72827  1.0000
  H   H233      1.0  0.08129  0.03792  0.64353  1.0000
  H   H234      1.0  0.21514  0.07119  0.79291  1.0000
  H   H235      1.0  0.06353  0.12796  0.84155  1.0000
  C   C325      1.0  0.23421  0.28986  0.59913  1.0000
  H   H236      1.0  0.17012  0.04788  0.73661  1.0000
  H   H237      1.0  0.17504  0.26972  0.93303  1.0000
  C   C326      1.0  0.16726  0.02547  0.76808  1.0000
  H   H238      1.0  0.24754  0.15304  0.72493  1.0000
  H   H239      1.0  0.18930  0.05394  0.68898  1.0000
  H   H240      1.0  0.16319  0.08050  0.66553  1.0000
  H   H241      1.0  0.15751  0.11861  0.68187  1.0000
  H   H242      1.0  0.17751  0.12994  0.72187  1.0000
  H   H243      1.0  0.20295  0.10362  0.74610  1.0000
  H   H244      1.0  0.22629  0.05489  0.84274  1.0000
  H   H245      1.0  0.24150  0.15462  0.77365  1.0000
  H   H246      1.0  0.05984  0.04518  0.76207  1.0000
  C   C327      1.0  0.04166  0.06356  0.62452  1.0000
  C   C328      1.0  0.04027  0.07530  0.64863  1.0000
  C   C329      1.0  0.04549  0.09675  0.64967  1.0000
  C   C330      1.0  0.05272  0.10648  0.62693  1.0000
  C   C331      1.0  0.05449  0.09484  0.60297  1.0000
  C   C332      1.0  0.04889  0.07354  0.60166  1.0000
  S   S45       1.0  0.03061  0.10110  0.72036  1.0000
  C   C333      1.0  0.04702  0.07007  0.78952  1.0000
  C   C334      1.0  0.24751  0.25977  0.95088  1.0000
  C   C335      1.0  0.02500  0.10569  0.86019  1.0000
  H   H247      1.0  0.23465  0.26722  0.72571  1.0000
  C   C336      1.0  0.08862  0.14281  0.50899  1.0000
  C   C337      1.0  0.24385  0.18373  0.49744  1.0000
  C   C338      1.0  0.07376  0.13901  0.48852  1.0000
  H   H248      1.0  0.05746  0.12285  0.62808  1.0000
  H   H249      1.0  0.06090  0.10210  0.58559  1.0000
  C   C339      1.0  0.25329  0.07954  0.74635  1.0000
  C   C340      1.0  0.23880  0.19988  0.69511  1.0000
  C   C341      1.0  0.18669  0.31847  0.79212  1.0000
  C   C342      1.0  0.24671  0.33088  0.58693  1.0000
  C   C343      1.0  0.25998  0.32531  0.66024  1.0000
  C   C344      1.0  0.19151  0.13415  0.52856  1.0000
  H   H250      1.0  0.20207  0.02835  0.85933  1.0000
  S   S46       1.0  0.22763  0.19600  0.66294  1.0000
  C   C345      1.0  0.17947  0.28603  0.93646  1.0000
  C   C346      1.0  0.18810  0.06382  0.47579  1.0000
  C   C347      1.0  0.25622  0.27814  0.96170  1.0000
  H   H251      1.0  0.02282  0.12119  0.77158  1.0000
  H   H252      1.0  0.23177  0.13814  0.49798  1.0000
  H   H253      1.0  0.24051  0.24206  0.91514  1.0000
  C   C348      1.0  0.20012  0.01495  0.79391  1.0000
  H   H254      1.0  0.05594  0.10804  0.91708  1.0000
  H   H255      1.0  0.16720  0.33747  0.72682  1.0000
  C   C349      1.0  0.14149  0.21354  0.48034  1.0000
  H   H256      1.0  0.23592  0.06611  0.68537  1.0000
  C   C350      1.0  0.23824  0.04117  0.58234  1.0000
  C   C351      1.0  0.19819  0.27073  0.65592  1.0000
  C   C352      1.0  0.24461  0.02333  0.48388  1.0000
  C   C353      1.0  0.16241  0.13411  0.49511  1.0000
  C   C354      1.0  0.22210  0.02655  0.58233  1.0000
  H   H257      1.0  0.07587  0.02068  0.79737  1.0000
  H   H258      1.0  0.15936  0.02203  0.68219  1.0000
  H   H259      1.0  0.22165  0.31269  0.68460  1.0000
  H   H260      1.0  0.02321  0.06588  0.90302  1.0000
  H   H261      1.0  0.22466  0.03943  0.93599  1.0000
  H   H262      1.0  0.04163  0.14892  0.74936  1.0000
  H   H263      1.0  0.14996  0.02438  0.76423  1.0000
  H   H264      1.0  0.16249  0.10419  0.93827  1.0000
  P   P12       1.0  0.03664  0.03528  0.62375  1.0000
  C   C355      1.0  0.03063  0.02558  0.57004  1.0000
  H   H265      1.0  0.23132  0.00990  0.73446  1.0000
  H   H266      1.0  0.22918  0.02865  0.78208  1.0000
  C   C356      1.0  0.24557  0.10776  0.51449  1.0000
  H   H267      1.0  0.24143  0.31419  0.77440  1.0000
  C   C357      1.0  0.25857  0.03529  0.57052  1.0000
  C   C358      1.0  0.24342  0.12397  0.49525  1.0000
  C   C359      1.0  0.25270  0.19592  0.94523  1.0000
  H   H268      1.0  0.21744  0.31864  0.91736  1.0000
  H   H269      1.0  0.03610  0.13259  0.54478  1.0000
  C   C360      1.0  0.01159  0.07732  0.53975  1.0000
  C   C361      1.0  0.03527  0.12890  0.78258  1.0000
  H   H270      1.0  0.23887  0.09268  0.82009  1.0000
  Fe  Fe27      1.0  0.25111  0.19307  0.56624  1.0000
  C   C362      1.0  0.04142  0.10871  0.90439  1.0000
  C   C363      1.0  0.24650  0.25665  0.92335  1.0000
  C   C364      1.0  0.07380  0.02662  0.65595  1.0000
  S   S47       1.0  0.07102  0.07561  0.96754  1.0000
  H   H271      1.0  0.10255  0.02055  0.68097  1.0000
  C   C365      1.0  0.24322  0.08853  0.79973  1.0000
  C   C366      1.0  0.16201  0.02312  0.52796  1.0000
  S   S48       1.0  0.07809  0.08194  0.47445  1.0000
  C   C367      1.0  0.24781  0.32975  0.77246  1.0000
  C   C368      1.0  0.23989  0.33415  0.48191  1.0000
  Fe  Fe28      1.0  0.06559  0.04075  0.96104  1.0000
  H   H272      1.0  0.01391  0.03268  0.57249  1.0000
  C   C369      1.0  0.17246  0.32153  0.95707  1.0000
  C   C370      1.0  0.25164  0.26230  0.76293  1.0000
  C   C371      1.0  0.16046  0.01032  0.58111  1.0000
  C   C372      1.0  0.20266  0.07936  0.47170  1.0000
  H   H273      1.0  0.13071  0.22592  0.49032  1.0000
  H   H274      1.0  0.13120  0.12838  0.95453  1.0000
  C   C373      1.0  0.05923  0.01028  0.54068  1.0000
  C   C374      1.0  0.22827  0.00896  0.87926  1.0000
  P   P13       1.0  0.14578  0.14756  0.46896  1.0000
  C   C375      1.0  0.06729  0.01583  0.58756  1.0000
  H   H275      1.0  0.25598  0.27520  0.83612  1.0000
  C   C376      1.0  0.25584  0.20424  0.74727  1.0000
  H   H276      1.0  0.25267  0.26957  0.88514  1.0000
  H   H277      1.0  0.15253  0.29520  0.96261  1.0000
  C   C377      1.0  0.25341  0.27220  0.90639  1.0000
  H   H278      1.0  0.25406  0.31534  0.64438  1.0000
  C   C378      1.0  0.25668  0.12222  0.47278  1.0000
  H   H279      1.0  0.02562  0.07555  0.96604  1.0000
  C   C379      1.0  0.22650  0.00625  0.56970  1.0000
  C   C380      1.0  0.24143  0.33642  0.85115  1.0000
  S   S49       1.0  0.03191  0.02886  0.95645  1.0000
  H   H280      1.0  0.21153  0.14429  0.96715  1.0000
  H   H281      1.0  0.07923  0.01513  0.60364  1.0000
  H   H282      1.0  0.25699  0.07686  0.72557  1.0000
  H   H283      1.0  0.24702  0.05709  0.47800  1.0000
  H   H284      1.0  0.07418  0.55793  0.11603  1.0000
  Fe  Fe29      1.0  0.08481  0.59947  0.21944  1.0000
  S   S50       1.0  0.09805  0.56451  0.21952  1.0000
  S   S51       1.0  0.04841  0.60830  0.22596  1.0000
  Fe  Fe30      1.0  0.13018  0.61490  0.20946  1.0000
  S   S52       1.0  0.14603  0.58062  0.21016  1.0000
  S   S53       1.0  0.15577  0.63899  0.20577  1.0000
  Fe  Fe31      1.0  0.11762  0.57299  0.18435  1.0000
  S   S54       1.0  0.12283  0.54980  0.14913  1.0000
  Fe  Fe32      1.0  0.12487  0.57595  0.24534  1.0000
  S   S55       1.0  0.13691  0.55575  0.28107  1.0000
  S   S56       1.0  0.10244  0.60745  0.18203  1.0000
  S   S57       1.0  0.11092  0.61073  0.24689  1.0000
  C   C381      1.0  0.20763  0.34720  0.15778  1.0000
  C   C382      1.0  0.19707  0.62809  0.26021  1.0000
  C   C383      1.0  0.18578  0.63718  0.10903  1.0000
  S   S58       1.0  0.24529  0.38855  0.34337  1.0000
  C   C384      1.0  0.17198  0.61817  0.30367  1.0000
  H   H285      1.0  0.25512  0.47222  0.15586  1.0000
  H   H286      1.0  0.18564  0.35188  0.04541  1.0000
  Fe  Fe33      1.0  0.11475  0.56848  0.99699  1.0000
  S   S59       1.0  0.11996  0.58979  0.03292  1.0000
  Fe  Fe34      1.0  0.11757  0.57043  0.43542  1.0000
  S   S60       1.0  0.12504  0.59087  0.39999  1.0000
  S   S61       1.0  0.10476  0.53495  0.00082  1.0000
  S   S62       1.0  0.10896  0.53613  0.43395  1.0000
  C   C385      1.0  0.17151  0.46133  0.04857  1.0000
  C   C386      1.0  0.18256  0.45476  0.02519  1.0000
  C   C387      1.0  0.17703  0.46552  0.00112  1.0000
  C   C388      1.0  0.16068  0.48312  0.00042  1.0000
  C   C389      1.0  0.14971  0.48968  0.02384  1.0000
  C   C390      1.0  0.15508  0.47879  0.04780  1.0000
  C   C391      1.0  0.25934  0.64927  0.41809  1.0000
  H   H287      1.0  0.18569  0.46045  0.98310  1.0000
  H   H288      1.0  0.13739  0.50340  0.02365  1.0000
  H   H289      1.0  0.14674  0.48418  0.06588  1.0000
  C   C392      1.0  0.12119  0.56089  0.11676  1.0000
  C   C393      1.0  0.12514  0.54721  0.09449  1.0000
  C   C394      1.0  0.12413  0.55576  0.06857  1.0000
  C   C395      1.0  0.11927  0.57809  0.06479  1.0000
  C   C396      1.0  0.11512  0.59168  0.08704  1.0000
  C   C397      1.0  0.11610  0.58314  0.11289  1.0000
  H   H290      1.0  0.12925  0.52999  0.09727  1.0000
  H   H291      1.0  0.12770  0.54513  0.05162  1.0000
  H   H292      1.0  0.11155  0.60898  0.08430  1.0000
  H   H293      1.0  0.11317  0.59390  0.12975  1.0000
  C   C398      1.0  0.13108  0.56548  0.31378  1.0000
  C   C399      1.0  0.12642  0.58762  0.31917  1.0000
  C   C400      1.0  0.12408  0.59512  0.34566  1.0000
  C   C401      1.0  0.12576  0.58052  0.36696  1.0000
  C   C402      1.0  0.12959  0.55827  0.36152  1.0000
  C   C403      1.0  0.13241  0.55083  0.33504  1.0000
  H   H294      1.0  0.12527  0.59908  0.30301  1.0000
  H   H295      1.0  0.12108  0.61234  0.34968  1.0000
  H   H296      1.0  0.13108  0.54688  0.37778  1.0000
  H   H297      1.0  0.13568  0.53366  0.33103  1.0000
  H   H298      1.0  0.21404  0.37517  0.21579  1.0000
  H   H299      1.0  0.21879  0.60772  0.01825  1.0000
  H   H300      1.0  0.13084  0.65094  0.15663  1.0000
  C   C404      1.0  0.18484  0.54023  0.42780  1.0000
  C   C405      1.0  0.03083  0.58744  0.22876  1.0000
  C   C406      1.0  0.03866  0.56665  0.23734  1.0000
  C   C407      1.0  0.02431  0.55036  0.23908  1.0000
  C   C408      1.0  0.22836  0.42069  0.46464  1.0000
  H   H301      1.0  0.05571  0.56313  0.24284  1.0000
  H   H302      1.0  0.03052  0.53426  0.24543  1.0000
  C   C409      1.0  0.20808  0.49670  0.20058  1.0000
  C   C410      1.0  0.24261  0.41635  0.44315  1.0000
  H   H303      1.0  0.04559  0.54301  0.19004  1.0000
  H   H304      1.0  0.24118  0.57320  0.09145  1.0000
  H   H305      1.0  0.19054  0.59681  0.24459  1.0000
  C   C411      1.0  0.20401  0.51916  0.19785  1.0000
  H   H306      1.0  0.24880  0.37230  0.28228  1.0000
  H   H307      1.0  0.07195  0.62928  0.04489  1.0000
  H   H308      1.0  0.25323  0.61168  0.37680  1.0000
  C   C412      1.0  0.06405  0.59759  0.03266  1.0000
  H   H309      1.0  0.24114  0.61366  0.32956  1.0000
  C   C413      1.0  0.25590  0.66257  0.22837  1.0000
  C   C414      1.0  0.18656  0.62791  0.97728  1.0000
  H   H310      1.0  0.05884  0.49763  0.00435  1.0000
  H   H311      1.0  0.17000  0.57324  0.42547  1.0000
  C   C415      1.0  0.05653  0.52841  0.06129  1.0000
  C   C416      1.0  0.22380  0.56384  0.14191  1.0000
  H   H312      1.0  0.25927  0.60157  0.02037  1.0000
  C   C417      1.0  0.18981  0.64522  0.08390  1.0000
  H   H313      1.0  0.19408  0.46660  0.20440  1.0000
  C   C418      1.0  0.02495  0.54049  0.15530  1.0000
  C   C419      1.0  0.18942  0.35998  0.14748  1.0000
  C   C420      1.0  0.24448  0.35759  0.27251  1.0000
  C   C421      1.0  0.21501  0.57899  0.16076  1.0000
  C   C422      1.0  0.02813  0.57491  0.97692  1.0000
  P   P14       1.0  0.18811  0.64580  0.02867  1.0000
  C   C423      1.0  0.21372  0.36585  0.39969  1.0000
  C   C424      1.0  0.22216  0.46739  0.14381  1.0000
  H   H314      1.0  0.16746  0.38936  0.04941  1.0000
  H   H315      1.0  0.24405  0.34350  0.35887  1.0000
  C   C425      1.0  0.17511  0.63300  0.00098  1.0000
  C   C426      1.0  0.23548  0.49722  0.37530  1.0000
  S   S63       1.0  0.04753  0.53880  0.45614  1.0000
  H   H316      1.0  0.19841  0.65963  0.08254  1.0000
  C   C427      1.0  0.04119  0.54821  0.11287  1.0000
  C   C428      1.0  0.22880  0.41898  0.22290  1.0000
  H   H317      1.0  0.01740  0.59010  0.38683  1.0000
  C   C429      1.0  0.19006  0.65294  0.46252  1.0000
  H   H318      1.0  0.21404  0.38195  0.39163  1.0000
  H   H319      1.0  0.16977  0.61392  0.13095  1.0000
  C   C430      1.0  0.04427  0.54458  0.16862  1.0000
  C   C431      1.0  0.17067  0.39637  0.00779  1.0000
  C   C432      1.0  0.24592  0.47904  0.38834  1.0000
  H   H320      1.0  0.18900  0.46702  0.12917  1.0000
  C   C433      1.0  0.17398  0.61923  0.11140  1.0000
  H   H321      1.0  0.06963  0.59930  0.01250  1.0000
  H   H322      1.0  0.09034  0.53721  0.35929  1.0000
  H   H323      1.0  0.23554  0.34312  0.30874  1.0000
  C   C434      1.0  0.06527  0.61458  0.05095  1.0000
  C   C435      1.0  0.05837  0.61237  0.07709  1.0000
  C   C436      1.0  0.17809  0.38841  0.98299  1.0000
  H   H324      1.0  0.18292  0.36059  0.38082  1.0000
  H   H325      1.0  0.04641  0.59685  0.16193  1.0000
  C   C437      1.0  0.24956  0.65770  0.46397  1.0000
  H   H326      1.0  0.22577  0.58794  0.17300  1.0000
  H   H327      1.0  0.05601  0.56505  0.02612  1.0000
  C   C438      1.0  0.05648  0.57814  0.04056  1.0000
  H   H328      1.0  0.22821  0.41985  0.00730  1.0000
  H   H329      1.0  0.16341  0.41301  0.00981  1.0000
  P   P15       1.0  0.20342  0.66969  0.27883  1.0000
  C   C439      1.0  0.06361  0.50354  0.02379  1.0000
  C   C440      1.0  0.04976  0.57568  0.06687  1.0000
  H   H330      1.0  0.24407  0.36704  0.42114  1.0000
  H   H331      1.0  0.25456  0.50783  0.13387  1.0000
  C   C441      1.0  0.17868  0.66799  0.17963  1.0000
  C   C442      1.0  0.02333  0.54233  0.12754  1.0000
  H   H332      1.0  0.06313  0.49402  0.46525  1.0000
  C   C443      1.0  0.23018  0.65913  0.03389  1.0000
  Fe  Fe35      1.0  0.22771  0.37851  0.08997  1.0000
  H   H333      1.0  0.24144  0.56089  0.14023  1.0000
  C   C444      1.0  0.21668  0.35225  0.18265  1.0000
  H   H334      1.0  0.21747  0.52894  0.19511  1.0000
  H   H335      1.0  0.16189  0.61447  0.32024  1.0000
  H   H336      1.0  0.22473  0.48899  0.19997  1.0000
  C   C445      1.0  0.14240  0.62054  0.98042  1.0000
  C   C446      1.0  0.14916  0.41614  0.23700  1.0000
  C   C447      1.0  0.16497  0.41665  0.25729  1.0000
  C   C448      1.0  0.17466  0.43572  0.26258  1.0000
  C   C449      1.0  0.16891  0.45417  0.24724  1.0000
  C   C450      1.0  0.15387  0.45348  0.22594  1.0000
  C   C451      1.0  0.14342  0.43457  0.22156  1.0000
  P   P16       1.0  0.14643  0.47733  0.20613  1.0000
  C   C452      1.0  0.16893  0.49390  0.20434  1.0000
  C   C453      1.0  0.14097  0.47097  0.17173  1.0000
  C   C454      1.0  0.12861  0.48637  0.15587  1.0000
  C   C455      1.0  0.12442  0.48186  0.12907  1.0000
  C   C456      1.0  0.13273  0.46204  0.11784  1.0000
  C   C457      1.0  0.14558  0.44690  0.13331  1.0000
  C   C458      1.0  0.15001  0.45145  0.16007  1.0000
  C   C459      1.0  0.16495  0.51642  0.20118  1.0000
  C   C460      1.0  0.18248  0.52896  0.19813  1.0000
  H   H337      1.0  0.24791  0.48186  0.00961  1.0000
  C   C461      1.0  0.23847  0.42153  0.99038  1.0000
  C   C462      1.0  0.17293  0.38305  0.03013  1.0000
  C   C463      1.0  0.12197  0.49098  0.22075  1.0000
  C   C464      1.0  0.12344  0.50584  0.24181  1.0000
  C   C465      1.0  0.10440  0.51547  0.25394  1.0000
  C   C466      1.0  0.08380  0.51056  0.24493  1.0000
  C   C467      1.0  0.08218  0.49570  0.22404  1.0000
  C   C468      1.0  0.10119  0.48573  0.21220  1.0000
  H   H338      1.0  0.14129  0.40147  0.23334  1.0000
  H   H339      1.0  0.16958  0.40236  0.26917  1.0000
  H   H340      1.0  0.07587  0.54675  0.31407  1.0000
  H   H341      1.0  0.17635  0.46887  0.25204  1.0000
  H   H342      1.0  0.13087  0.43404  0.20622  1.0000
  H   H343      1.0  0.12236  0.50200  0.16412  1.0000
  H   H344      1.0  0.11498  0.49391  0.11699  1.0000
  H   H345      1.0  0.12981  0.45861  0.09693  1.0000
  H   H346      1.0  0.15270  0.43193  0.12418  1.0000
  H   H347      1.0  0.16071  0.43989  0.17138  1.0000
  H   H348      1.0  0.14833  0.52431  0.20049  1.0000
  H   H349      1.0  0.17931  0.54628  0.19559  1.0000
  H   H350      1.0  0.04999  0.63431  0.17744  1.0000
  C   C469      1.0  0.18320  0.36193  0.02786  1.0000
  H   H351      1.0  0.13922  0.51007  0.24885  1.0000
  H   H352      1.0  0.10555  0.52694  0.27021  1.0000
  H   H353      1.0  0.06912  0.51828  0.25419  1.0000
  H   H354      1.0  0.06618  0.49183  0.21716  1.0000
  H   H355      1.0  0.09960  0.47391  0.19642  1.0000
  C   C470      1.0  0.19182  0.43637  0.36786  1.0000
  C   C471      1.0  0.17552  0.43654  0.38706  1.0000
  C   C472      1.0  0.16804  0.45594  0.39993  1.0000
  C   C473      1.0  0.17707  0.47512  0.39393  1.0000
  C   C474      1.0  0.19419  0.47489  0.37551  1.0000
  C   C475      1.0  0.20113  0.45544  0.36212  1.0000
  P   P17       1.0  0.20659  0.49920  0.36729  1.0000
  C   C476      1.0  0.20171  0.50264  0.33203  1.0000
  C   C477      1.0  0.19300  0.50825  0.27739  1.0000
  C   C478      1.0  0.17576  0.50947  0.29543  1.0000
  C   C479      1.0  0.18007  0.50648  0.32259  1.0000
  C   C480      1.0  0.19500  0.52278  0.38557  1.0000
  C   C481      1.0  0.19409  0.52221  0.41349  1.0000
  C   C482      1.0  0.21093  0.67156  0.33387  1.0000
  C   C483      1.0  0.02496  0.55330  0.97125  1.0000
  H   H356      1.0  0.18845  0.50177  0.10586  1.0000
  H   H357      1.0  0.25751  0.65337  0.39722  1.0000
  H   H358      1.0  0.19786  0.42129  0.35812  1.0000
  H   H359      1.0  0.16888  0.42160  0.39217  1.0000
  H   H360      1.0  0.15536  0.45612  0.41480  1.0000
  H   H361      1.0  0.17048  0.48988  0.40379  1.0000
  H   H362      1.0  0.21396  0.45494  0.34745  1.0000
  H   H363      1.0  0.18956  0.51087  0.25638  1.0000
  H   H364      1.0  0.15900  0.51301  0.28854  1.0000
  H   H365      1.0  0.16654  0.50739  0.33636  1.0000
  H   H366      1.0  0.19989  0.50760  0.42420  1.0000
  C   C484      1.0  0.24061  0.47891  0.14501  1.0000
  C   C485      1.0  0.17695  0.64625  0.41769  1.0000
  H   H367      1.0  0.24829  0.46058  0.44318  1.0000
  H   H368      1.0  0.21704  0.65459  0.33230  1.0000
  C   C486      1.0  0.24916  0.66949  0.28289  1.0000
  C   C487      1.0  0.18030  0.37812  0.16167  1.0000
  C   C488      1.0  0.18937  0.38348  0.18626  1.0000
  C   C489      1.0  0.20743  0.37058  0.19676  1.0000
  H   H369      1.0  0.23576  0.49689  0.32041  1.0000
  C   C490      1.0  0.23579  0.41904  0.19625  1.0000
  C   C491      1.0  0.05035  0.52020  0.03637  1.0000
  H   H370      1.0  0.25134  0.36863  0.23359  1.0000
  H   H371      1.0  0.16645  0.38819  0.15337  1.0000
  H   H372      1.0  0.18257  0.39771  0.19714  1.0000
  Fe  Fe36      1.0  0.24799  0.41452  0.12024  1.0000
  H   H373      1.0  0.25654  0.46324  0.28878  1.0000
  C   C492      1.0  0.24782  0.53820  0.08949  1.0000
  C   C493      1.0  0.03484  0.63041  0.16796  1.0000
  C   C494      1.0  0.15280  0.62973  0.00212  1.0000
  Fe  Fe37      1.0  0.20850  0.42548  0.08350  1.0000
  C   C495      1.0  0.17165  0.61618  0.06330  1.0000
  H   H374      1.0  0.22795  0.50228  0.27248  1.0000
  C   C496      1.0  0.17752  0.55935  0.41452  1.0000
  C   C497      1.0  0.24031  0.49889  0.13222  1.0000
  H   H375      1.0  0.23170  0.36801  0.98611  1.0000
  C   C498      1.0  0.03282  0.60925  0.15914  1.0000
  C   C499      1.0  0.01324  0.60405  0.14726  1.0000
  H   H376      1.0  0.04493  0.59184  0.10517  1.0000
  H   H377      1.0  0.01878  0.66266  0.17255  1.0000
  C   C500      1.0  0.19079  0.35397  0.00314  1.0000
  H   H378      1.0  0.17472  0.65115  0.39709  1.0000
  C   C501      1.0  0.16738  0.60842  0.08857  1.0000
  C   C502      1.0  0.20336  0.47588  0.12998  1.0000
  C   C503      1.0  0.18771  0.36694  0.98036  1.0000
  H   H379      1.0  0.15985  0.61774  0.41244  1.0000
  C   C504      1.0  0.08342  0.49527  0.03557  1.0000
  C   C505      1.0  0.09005  0.50374  0.05992  1.0000
  C   C506      1.0  0.07671  0.52022  0.07275  1.0000
  C   C507      1.0  0.06037  0.55273  0.12663  1.0000
  H   H380      1.0  0.09401  0.48286  0.02535  1.0000
  H   H381      1.0  0.10580  0.49788  0.06850  1.0000
  H   H382      1.0  0.08252  0.52669  0.09126  1.0000
  C   C508      1.0  0.25115  0.61765  0.02404  1.0000
  C   C509      1.0  0.06191  0.55080  0.15431  1.0000
  C   C510      1.0  0.20481  0.53289  0.07099  1.0000
  C   C511      1.0  0.20776  0.51502  0.05351  1.0000
  C   C512      1.0  0.19652  0.51531  0.02911  1.0000
  C   C513      1.0  0.18183  0.53314  0.02224  1.0000
  C   C514      1.0  0.17885  0.55104  0.03944  1.0000
  C   C515      1.0  0.19062  0.55112  0.06353  1.0000
  H   H383      1.0  0.17601  0.54674  0.11783  1.0000
  C   C516      1.0  0.21763  0.64209  0.02701  1.0000
  H   H384      1.0  0.02571  0.54885  0.39109  1.0000
  C   C517      1.0  0.23717  0.34100  0.28750  1.0000
  C   C518      1.0  0.22826  0.62124  0.02254  1.0000
  H   H385      1.0  0.17271  0.53297  0.00360  1.0000
  H   H386      1.0  0.18866  0.56542  0.07611  1.0000
  H   H387      1.0  0.17334  0.57516  0.37661  1.0000
  H   H388      1.0  0.15722  0.66771  0.26184  1.0000
  H   H389      1.0  0.19524  0.44132  0.02561  1.0000
  H   H390      1.0  0.07682  0.55419  0.16470  1.0000
  C   C519      1.0  0.25304  0.65547  0.03546  1.0000
  S   S64       1.0  0.17741  0.44791  0.07899  1.0000
  H   H391      1.0  0.04449  0.57982  0.97809  1.0000
  H   H392      1.0  0.16736  0.56483  0.03405  1.0000
  C   C520      1.0  0.18795  0.54219  0.37238  1.0000
  H   H393      1.0  0.06506  0.53815  0.39758  1.0000
  H   H394      1.0  0.19131  0.64525  0.12674  1.0000
  C   C521      1.0  0.20316  0.49559  0.11667  1.0000
  C   C522      1.0  0.24390  0.41950  0.24420  1.0000
  P   P18       1.0  0.03966  0.55064  0.07686  1.0000
  H   H395      1.0  0.05948  0.62549  0.09134  1.0000
  C   C523      1.0  0.17936  0.56041  0.38688  1.0000
  H   H396      1.0  0.18885  0.54340  0.35094  1.0000
  S   S65       1.0  0.23239  0.42018  0.41034  1.0000
  H   H397      1.0  0.22100  0.66292  0.22484  1.0000
  S   S66       1.0  0.24138  0.43832  0.08670  1.0000
  C   C524      1.0  0.25236  0.46841  0.46172  1.0000
  Fe  Fe38      1.0  0.08213  0.54791  0.46250  1.0000
  H   H398      1.0  0.21160  0.41846  0.22705  1.0000
  C   C525      1.0  0.18228  0.63511  0.06082  1.0000
  H   H399      1.0  0.01264  0.60704  0.98511  1.0000
  C   C526      1.0  0.03643  0.54881  0.37408  1.0000
  C   C527      1.0  0.05879  0.54250  0.37783  1.0000
  C   C528      1.0  0.07300  0.54192  0.35625  1.0000
  C   C529      1.0  0.06480  0.54730  0.33078  1.0000
  C   C530      1.0  0.04240  0.55355  0.32694  1.0000
  C   C531      1.0  0.02818  0.55511  0.34876  1.0000
  C   C532      1.0  0.01173  0.54985  0.06494  1.0000
  C   C533      1.0  0.17097  0.62129  0.45303  1.0000
  H   H400      1.0  0.24351  0.35155  0.04289  1.0000
  H   H401      1.0  0.23691  0.46563  0.39379  1.0000
  C   C534      1.0  0.14528  0.65965  0.15747  1.0000
  C   C535      1.0  0.01717  0.64634  0.16535  1.0000
  H   H402      1.0  0.03626  0.55725  0.30698  1.0000
  C   C536      1.0  0.23107  0.66729  0.26593  1.0000
  C   C537      1.0  0.19344  0.64326  0.28109  1.0000
  C   C538      1.0  0.21898  0.50073  0.31377  1.0000
  C   C539      1.0  0.21460  0.50362  0.28651  1.0000
  S   S67       1.0  0.15540  0.49737  0.97043  1.0000
  C   C540      1.0  0.18712  0.55586  0.12936  1.0000
  H   H403      1.0  0.16081  0.57383  0.15061  1.0000
  H   H404      1.0  0.16645  0.60741  0.04598  1.0000
  H   H405      1.0  0.20344  0.63127  0.97533  1.0000
  H   H406      1.0  0.20588  0.63192  0.24266  1.0000
  H   H407      1.0  0.03557  0.52694  0.02614  1.0000
  H   H408      1.0  0.01219  0.58768  0.14002  1.0000
  S   S68       1.0  0.23419  0.42024  0.27738  1.0000
  C   C541      1.0  0.17842  0.57105  0.14817  1.0000
  C   C542      1.0  0.02537  0.55734  0.46638  1.0000
  C   C543      1.0  0.05039  0.59309  0.08495  1.0000
  H   H409      1.0  0.18272  0.35601  0.12814  1.0000
  C   C544      1.0  0.19061  0.48406  0.20338  1.0000
  H   H410      1.0  0.18673  0.43618  0.27855  1.0000
  C   C545      1.0  0.18040  0.63829  0.30258  1.0000
  H   H411      1.0  0.22401  0.41845  0.18011  1.0000
  S   S69       1.0  0.21406  0.40394  0.11931  1.0000
  P   P19       1.0  0.22109  0.53300  0.10119  1.0000
  H   H412      1.0  0.14335  0.63422  0.01979  1.0000
  C   C546      1.0  0.17591  0.60309  0.28297  1.0000
  C   C547      1.0  0.16863  0.62740  0.42632  1.0000
  S   S70       1.0  0.21886  0.39912  0.05426  1.0000
  C   C548      1.0  0.22183  0.50702  0.11721  1.0000
  C   C549      1.0  0.20988  0.55264  0.12549  1.0000
  C   C550      1.0  0.19232  0.58273  0.16374  1.0000
  H   H413      1.0  0.16886  0.58775  0.28349  1.0000
  H   H414      1.0  0.19895  0.50155  0.01562  1.0000
  H   H415      1.0  0.18545  0.59472  0.17807  1.0000
  C   C551      1.0  0.24587  0.35541  0.24489  1.0000
  C   C552      1.0  0.18831  0.60812  0.26116  1.0000
  H   H416      1.0  0.22248  0.45184  0.15350  1.0000
  C   C553      1.0  0.23086  0.35722  0.41629  1.0000
  H   H417      1.0  0.15878  0.59412  0.09047  1.0000
  C   C554      1.0  0.16000  0.65653  0.17896  1.0000
  S   S71       1.0  0.21753  0.34446  0.08892  1.0000
  H   H418      1.0  0.21882  0.50088  0.05862  1.0000
  H   H419      1.0  0.12528  0.61765  0.98167  1.0000
  C   C555      1.0  0.25793  0.42033  0.19065  1.0000
  C   C556      1.0  0.24762  0.51453  0.36912  1.0000
  H   H420      1.0  0.01122  0.53591  0.16664  1.0000
  H   H421      1.0  0.01620  0.62146  0.28252  1.0000
  H   H422      1.0  0.18279  0.53908  0.44912  1.0000
  H   H423      1.0  0.19003  0.66582  0.19623  1.0000
  C   C557      1.0  0.25300  0.55961  0.08647  1.0000
  H   H424      1.0  0.25380  0.51801  0.99150  1.0000
  H   H425      1.0  0.21118  0.42571  0.46089  1.0000
  H   H426      1.0  0.25171  0.36282  0.15181  1.0000
  H   H427      1.0  0.23973  0.52883  0.35943  1.0000
  S   S72       1.0  0.08944  0.58254  0.46166  1.0000
  H   H428      1.0  0.01522  0.63174  0.04871  1.0000
  H   H429      1.0  0.02500  0.59572  0.31908  1.0000
  C   C558      1.0  0.19611  0.35388  0.39375  1.0000
  Fe  Fe39      1.0  0.25464  0.41154  0.37550  1.0000
  C   C559      1.0  0.23465  0.66395  0.23851  1.0000
  H   H430      1.0  0.16377  0.60696  0.45942  1.0000
  H   H431      1.0  0.17611  0.65008  0.31817  1.0000
  C   C560      1.0  0.24645  0.66151  0.43671  1.0000
  C   C561      1.0  0.25733  0.61788  0.33521  1.0000
  H   H432      1.0  0.10121  0.47671  0.46104  1.0000
  C   C562      1.0  0.18762  0.65904  0.43579  1.0000
  H   H433      1.0  0.25883  0.50438  0.08168  1.0000
  Fe  Fe40      1.0  0.25210  0.41042  0.05948  1.0000
  Fe  Fe41      1.0  0.25601  0.41236  0.31393  1.0000
  Fe  Fe42      1.0  0.12976  0.52628  0.96931  1.0000
  C   C563      1.0  0.25517  0.34130  0.03116  1.0000
  H   H434      1.0  0.25845  0.66069  0.20710  1.0000
  H   H435      1.0  0.25132  0.64438  0.60502  1.0000
  Fe  Fe43      1.0  0.07820  0.59552  0.71185  1.0000
  S   S73       1.0  0.09686  0.56266  0.71323  1.0000
  S   S74       1.0  0.04083  0.60074  0.71172  1.0000
  Fe  Fe44      1.0  0.12068  0.61815  0.70764  1.0000
  S   S75       1.0  0.14207  0.58651  0.70972  1.0000
  S   S76       1.0  0.13615  0.65010  0.70521  1.0000
  Fe  Fe45      1.0  0.11738  0.57482  0.68096  1.0000
  S   S77       1.0  0.12777  0.55348  0.64560  1.0000
  Fe  Fe46      1.0  0.11957  0.57757  0.74216  1.0000
  S   S78       1.0  0.13194  0.55702  0.77795  1.0000
  S   S79       1.0  0.09702  0.60678  0.67718  1.0000
  S   S80       1.0  0.09985  0.61018  0.74251  1.0000
  C   C564      1.0  0.16257  0.36585  0.91166  1.0000
  C   C565      1.0  0.15096  0.37873  0.89243  1.0000
  H   H436      1.0  0.06005  0.47207  0.60455  1.0000
  C   C566      1.0  0.02469  0.56877  0.90220  1.0000
  C   C567      1.0  0.18092  0.52086  0.88210  1.0000
  H   H437      1.0  0.14949  0.60956  0.77236  1.0000
  C   C568      1.0  0.17269  0.53363  0.90366  1.0000
  Fe  Fe47      1.0  0.11201  0.57335  0.49623  1.0000
  S   S81       1.0  0.11369  0.59578  0.53171  1.0000
  Fe  Fe48      1.0  0.11535  0.56602  0.93551  1.0000
  S   S82       1.0  0.11891  0.58715  0.89928  1.0000
  S   S83       1.0  0.10276  0.53940  0.49908  1.0000
  S   S84       1.0  0.10574  0.53209  0.93509  1.0000
  C   C569      1.0  0.17396  0.47414  0.55685  1.0000
  C   C570      1.0  0.18331  0.46444  0.53384  1.0000
  C   C571      1.0  0.17801  0.47350  0.50870  1.0000
  C   C572      1.0  0.16356  0.49246  0.50637  1.0000
  C   C573      1.0  0.15464  0.50249  0.52943  1.0000
  C   C574      1.0  0.15982  0.49334  0.55456  1.0000
  Fe  Fe49      1.0  0.25306  0.42059  0.87700  1.0000
  H   H438      1.0  0.18479  0.46548  0.49098  1.0000
  H   H439      1.0  0.14356  0.51714  0.52788  1.0000
  H   H440      1.0  0.15287  0.50115  0.57228  1.0000
  C   C575      1.0  0.12640  0.56583  0.61409  1.0000
  C   C576      1.0  0.12199  0.58830  0.61138  1.0000
  C   C577      1.0  0.11879  0.59740  0.58593  1.0000
  C   C578      1.0  0.11967  0.58408  0.56312  1.0000
  C   C579      1.0  0.12490  0.56171  0.56580  1.0000
  C   C580      1.0  0.12875  0.55272  0.59120  1.0000
  H   H441      1.0  0.12079  0.59866  0.62883  1.0000
  H   H442      1.0  0.11503  0.61476  0.58396  1.0000
  H   H443      1.0  0.12569  0.55133  0.54836  1.0000
  H   H444      1.0  0.13290  0.53549  0.59325  1.0000
  C   C581      1.0  0.12634  0.56537  0.81138  1.0000
  C   C582      1.0  0.12819  0.54985  0.83176  1.0000
  C   C583      1.0  0.12496  0.55609  0.85868  1.0000
  C   C584      1.0  0.12056  0.57805  0.86556  1.0000
  C   C585      1.0  0.11865  0.59352  0.84516  1.0000
  C   C586      1.0  0.12124  0.58722  0.81822  1.0000
  H   H445      1.0  0.13213  0.53292  0.82670  1.0000
  H   H446      1.0  0.12655  0.54403  0.87415  1.0000
  H   H447      1.0  0.11525  0.61053  0.85023  1.0000
  H   H448      1.0  0.11971  0.59936  0.80282  1.0000
  C   C587      1.0  0.24441  0.65297  0.54541  1.0000
  C   C588      1.0  0.17136  0.48518  0.83359  1.0000
  P   P20       1.0  0.18383  0.62642  0.50619  1.0000
  C   C589      1.0  0.22318  0.59128  0.60895  1.0000
  C   C590      1.0  0.02279  0.58011  0.71441  1.0000
  C   C591      1.0  0.03037  0.55826  0.71811  1.0000
  H   H449      1.0  0.05532  0.65252  0.60704  1.0000
  C   C592      1.0  0.01666  0.56266  0.63931  1.0000
  H   H450      1.0  0.04779  0.55351  0.71963  1.0000
  H   H451      1.0  0.02132  0.52569  0.72277  1.0000
  C   C593      1.0  0.03928  0.56331  0.64385  1.0000
  H   H452      1.0  0.22590  0.35263  0.90233  1.0000
  H   H453      1.0  0.22393  0.64605  0.80978  1.0000
  C   C594      1.0  0.07659  0.47649  0.60701  1.0000
  H   H454      1.0  0.19429  0.44970  0.53532  1.0000
  C   C595      1.0  0.18092  0.59069  0.77377  1.0000
  H   H455      1.0  0.14788  0.40773  0.77646  1.0000
  C   C596      1.0  0.20585  0.36434  0.67962  1.0000
  S   S85       1.0  0.17939  0.46251  0.58860  1.0000
  C   C597      1.0  0.23566  0.47683  0.47861  1.0000
  H   H456      1.0  0.08339  0.45544  0.64068  1.0000
  C   C598      1.0  0.20991  0.64099  0.67451  1.0000
  C   C599      1.0  0.20822  0.63902  0.70214  1.0000
  C   C600      1.0  0.21304  0.65615  0.71911  1.0000
  C   C601      1.0  0.15965  0.64631  0.54845  1.0000
  C   C602      1.0  0.20357  0.59094  0.77127  1.0000
  C   C603      1.0  0.21239  0.61037  0.76583  1.0000
  C   C604      1.0  0.15894  0.39782  0.88391  1.0000
  C   C605      1.0  0.22598  0.35901  0.94481  1.0000
  H   H457      1.0  0.20545  0.62809  0.66142  1.0000
  H   H458      1.0  0.20254  0.62442  0.70999  1.0000
  H   H459      1.0  0.21424  0.57602  0.77330  1.0000
  H   H460      1.0  0.22994  0.61023  0.76354  1.0000
  H   H461      1.0  0.18936  0.53407  0.51011  1.0000
  H   H462      1.0  0.04262  0.47064  0.53936  1.0000
  H   H463      1.0  0.15612  0.43567  0.93919  1.0000
  C   C606      1.0  0.18178  0.63397  0.47139  1.0000
  C   C607      1.0  0.11134  0.47215  0.63100  1.0000
  H   H464      1.0  0.25555  0.35424  0.63668  1.0000
  C   C608      1.0  0.23745  0.42403  0.69863  1.0000
  S   S86       1.0  0.23600  0.42849  0.77916  1.0000
  H   H465      1.0  0.21303  0.35408  0.54864  1.0000
  C   C609      1.0  0.04015  0.49799  0.56685  1.0000
  H   H466      1.0  0.25936  0.64686  0.83378  1.0000
  P   P21       1.0  0.06816  0.50399  0.56322  1.0000
  C   C610      1.0  0.07856  0.49469  0.53090  1.0000
  C   C611      1.0  0.06798  0.53321  0.56563  1.0000
  C   C612      1.0  0.06112  0.54647  0.54391  1.0000
  C   C613      1.0  0.06069  0.56903  0.54610  1.0000
  C   C614      1.0  0.06678  0.57859  0.56999  1.0000
  C   C615      1.0  0.07318  0.56563  0.59181  1.0000
  C   C616      1.0  0.07372  0.54308  0.58975  1.0000
  C   C617      1.0  0.09993  0.48429  0.52827  1.0000
  C   C618      1.0  0.10795  0.47776  0.50319  1.0000
  C   C619      1.0  0.25622  0.60991  0.61238  1.0000
  C   C620      1.0  0.25952  0.42526  0.69276  1.0000
  C   C621      1.0  0.26060  0.36894  0.96297  1.0000
  C   C622      1.0  0.08487  0.49139  0.58988  1.0000
  C   C623      1.0  0.20715  0.50374  0.78336  1.0000
  C   C624      1.0  0.18655  0.47819  0.85370  1.0000
  H   H467      1.0  0.19810  0.50711  0.58680  1.0000
  C   C625      1.0  0.18852  0.51749  0.77627  1.0000
  C   C626      1.0  0.10641  0.49668  0.59376  1.0000
  C   C627      1.0  0.17480  0.56618  0.87785  1.0000
  H   H468      1.0  0.14982  0.40793  0.86928  1.0000
  H   H469      1.0  0.22529  0.42271  0.50747  1.0000
  C   C628      1.0  0.24562  0.51518  0.55541  1.0000
  C   C629      1.0  0.17865  0.40392  0.89440  1.0000
  H   H470      1.0  0.05632  0.53962  0.52510  1.0000
  H   H471      1.0  0.05610  0.57913  0.52908  1.0000
  H   H472      1.0  0.06722  0.59601  0.57133  1.0000
  H   H473      1.0  0.07848  0.57307  0.61012  1.0000
  H   H474      1.0  0.07887  0.53351  0.60702  1.0000
  H   H475      1.0  0.11073  0.48124  0.54524  1.0000
  H   H476      1.0  0.12461  0.47021  0.50129  1.0000
  H   H477      1.0  0.05018  0.63878  0.65263  1.0000
  C   C630      1.0  0.17212  0.34827  0.68712  1.0000
  H   H478      1.0  0.16001  0.49957  0.83648  1.0000
  H   H479      1.0  0.16287  0.52474  0.74729  1.0000
  H   H480      1.0  0.16503  0.43355  0.63806  1.0000
  H   H481      1.0  0.11299  0.50807  0.58063  1.0000
  S   S87       1.0  0.04732  0.53358  0.96587  1.0000
  C   C631      1.0  0.04238  0.52691  0.66144  1.0000
  C   C632      1.0  0.17693  0.51355  0.75281  1.0000
  C   C633      1.0  0.21198  0.48782  0.90305  1.0000
  C   C634      1.0  0.15906  0.63817  0.52219  1.0000
  C   C635      1.0  0.24588  0.59068  0.61310  1.0000
  H   H482      1.0  0.07078  0.59521  0.90255  1.0000
  C   C636      1.0  0.19989  0.45868  0.85018  1.0000
  H   H483      1.0  0.15601  0.35124  0.91809  1.0000
  C   C637      1.0  0.20692  0.53817  0.57408  1.0000
  H   H484      1.0  0.15936  0.47938  0.79387  1.0000
  H   H485      1.0  0.21969  0.56650  0.55839  1.0000
  H   H486      1.0  0.24598  0.36776  0.47709  1.0000
  H   H487      1.0  0.18292  0.53123  0.78885  1.0000
  C   C638      1.0  0.23171  0.48767  0.88910  1.0000
  C   C639      1.0  0.18672  0.53102  0.85869  1.0000
  H   H488      1.0  0.16852  0.52614  0.92210  1.0000
  C   C640      1.0  0.18331  0.55359  0.85644  1.0000
  C   C641      1.0  0.16264  0.65429  0.63116  1.0000
  C   C642      1.0  0.22969  0.50429  0.56810  1.0000
  H   H489      1.0  0.17477  0.64536  0.55995  1.0000
  C   C643      1.0  0.14929  0.65917  0.67658  1.0000
  H   H490      1.0  0.21661  0.37165  0.66614  1.0000
  C   C644      1.0  0.16453  0.48016  0.90281  1.0000
  C   C645      1.0  0.14272  0.48935  0.90050  1.0000
  C   C646      1.0  0.12587  0.47927  0.91223  1.0000
  C   C647      1.0  0.13069  0.45998  0.92627  1.0000
  C   C648      1.0  0.15231  0.45051  0.92816  1.0000
  C   C649      1.0  0.16915  0.46042  0.91622  1.0000
  C   C650      1.0  0.21269  0.48583  0.93089  1.0000
  H   H491      1.0  0.21088  0.45234  0.86591  1.0000
  H   H492      1.0  0.13870  0.50428  0.88970  1.0000
  H   H493      1.0  0.10910  0.48662  0.91081  1.0000
  C   C651      1.0  0.09475  0.48133  0.48050  1.0000
  C   C652      1.0  0.24298  0.36831  0.76356  1.0000
  H   H494      1.0  0.18579  0.45275  0.91765  1.0000
  H   H495      1.0  0.19321  0.61132  0.59973  1.0000
  H   H496      1.0  0.19771  0.48656  0.94221  1.0000
  C   C653      1.0  0.17258  0.38123  0.76856  1.0000
  C   C654      1.0  0.04142  0.63248  0.63577  1.0000
  C   C655      1.0  0.18350  0.49546  0.73664  1.0000
  P   P22       1.0  0.16947  0.49146  0.70541  1.0000
  C   C656      1.0  0.14046  0.49965  0.70730  1.0000
  C   C657      1.0  0.18267  0.50706  0.68148  1.0000
  C   C658      1.0  0.17534  0.52897  0.67744  1.0000
  C   C659      1.0  0.18590  0.54117  0.65925  1.0000
  C   C660      1.0  0.20410  0.53167  0.64540  1.0000
  C   C661      1.0  0.21171  0.50994  0.64962  1.0000
  C   C662      1.0  0.20115  0.49769  0.66776  1.0000
  C   C663      1.0  0.12849  0.50561  0.68405  1.0000
  C   C664      1.0  0.10575  0.51040  0.68489  1.0000
  C   C665      1.0  0.09476  0.50931  0.70900  1.0000
  C   C666      1.0  0.10654  0.50329  0.73223  1.0000
  C   C667      1.0  0.12927  0.49817  0.73135  1.0000
  C   C668      1.0  0.17050  0.46350  0.69475  1.0000
  C   C669      1.0  0.17185  0.44668  0.71339  1.0000
  C   C670      1.0  0.17141  0.42515  0.70480  1.0000
  C   C671      1.0  0.16902  0.42039  0.67769  1.0000
  C   C672      1.0  0.16696  0.43714  0.65915  1.0000
  C   C673      1.0  0.16778  0.45859  0.66759  1.0000
  H   H497      1.0  0.20876  0.46881  0.73059  1.0000
  H   H498      1.0  0.16134  0.53664  0.68815  1.0000
  H   H499      1.0  0.17969  0.55793  0.65580  1.0000
  H   H500      1.0  0.21229  0.54111  0.63139  1.0000
  H   H501      1.0  0.10572  0.66422  0.55573  1.0000
  H   H502      1.0  0.20741  0.48092  0.67101  1.0000
  H   H503      1.0  0.13672  0.50672  0.66523  1.0000
  H   H504      1.0  0.09683  0.51547  0.66688  1.0000
  H   H505      1.0  0.07722  0.51372  0.70991  1.0000
  H   H506      1.0  0.09808  0.50291  0.75101  1.0000
  H   H507      1.0  0.13802  0.49319  0.74947  1.0000
  H   H508      1.0  0.17326  0.45014  0.73449  1.0000
  H   H509      1.0  0.17309  0.41214  0.71913  1.0000
  H   H510      1.0  0.16885  0.40374  0.67096  1.0000
  H   H511      1.0  0.11768  0.45256  0.93594  1.0000
  H   H512      1.0  0.16619  0.47129  0.65280  1.0000
  H   H513      1.0  0.25161  0.34653  0.58179  1.0000
  H   H514      1.0  0.01369  0.60580  0.49852  1.0000
  C   C674      1.0  0.24579  0.42628  0.74625  1.0000
  C   C675      1.0  0.15399  0.61511  0.95713  1.0000
  P   P23       1.0  0.20530  0.34719  0.75846  1.0000
  C   C676      1.0  0.23558  0.35659  0.91956  1.0000
  C   C677      1.0  0.01929  0.61548  0.59244  1.0000
  C   C678      1.0  0.04615  0.57325  0.90805  1.0000
  C   C679      1.0  0.06527  0.49784  0.50791  1.0000
  C   C680      1.0  0.21193  0.36116  0.70637  1.0000
  H   H515      1.0  0.23154  0.48965  0.86770  1.0000
  S   S88       1.0  0.24346  0.39826  0.84442  1.0000
  C   C681      1.0  0.04038  0.60627  0.88261  1.0000
  H   H516      1.0  0.13762  0.63224  0.48870  1.0000
  C   C682      1.0  0.19892  0.37265  0.80430  1.0000
  C   C683      1.0  0.19808  0.35146  0.72372  1.0000
  C   C684      1.0  0.21424  0.48617  0.76688  1.0000
  C   C685      1.0  0.16974  0.55622  0.90150  1.0000
  C   C686      1.0  0.24491  0.63090  0.53922  1.0000
  C   C687      1.0  0.17815  0.34498  0.71383  1.0000
  C   C688      1.0  0.19114  0.36851  0.77846  1.0000
  H   H517      1.0  0.23312  0.47958  0.96556  1.0000
  C   C689      1.0  0.24198  0.53774  0.55213  1.0000
  H   H518      1.0  0.21269  0.55212  0.47898  1.0000
  H   H519      1.0  0.02569  0.61031  0.65972  1.0000
  S   S89       1.0  0.15677  0.50296  0.47436  1.0000
  C   C690      1.0  0.20172  0.56183  0.49214  1.0000
  S   S90       1.0  0.24070  0.44221  0.59009  1.0000
  H   H520      1.0  0.21511  0.57659  0.61027  1.0000
  C   C691      1.0  0.19896  0.44699  0.82634  1.0000
  H   H521      1.0  0.04654  0.62076  0.87501  1.0000
  H   H522      1.0  0.16620  0.37846  0.74879  1.0000
  H   H523      1.0  0.14113  0.66274  0.58024  1.0000
  C   C692      1.0  0.20720  0.65877  0.52839  1.0000
  C   C693      1.0  0.13887  0.63918  0.50845  1.0000
  H   H524      1.0  0.16458  0.64372  0.76293  1.0000
  C   C694      1.0  0.24364  0.62944  0.60618  1.0000
  H   H525      1.0  0.05666  0.56222  0.92038  1.0000
  H   H526      1.0  0.14640  0.63049  0.65274  1.0000
  S   S91       1.0  0.25552  0.39060  0.59793  1.0000
  C   C695      1.0  0.22107  0.62987  0.60136  1.0000
  C   C696      1.0  0.14052  0.65602  0.56024  1.0000
  C   C697      1.0  0.18870  0.55164  0.50976  1.0000
  C   C698      1.0  0.17460  0.56412  0.52684  1.0000
  C   C699      1.0  0.17324  0.58679  0.52618  1.0000
  C   C700      1.0  0.18577  0.59715  0.50795  1.0000
  C   C701      1.0  0.22552  0.66683  0.54018  1.0000
  C   C702      1.0  0.25858  0.41292  0.49603  1.0000
  C   C703      1.0  0.25186  0.48451  0.90271  1.0000
  C   C704      1.0  0.20759  0.63664  0.52177  1.0000
  C   C705      1.0  0.22659  0.62272  0.52747  1.0000
  H   H527      1.0  0.22743  0.49217  0.51588  1.0000
  H   H528      1.0  0.20941  0.43201  0.82377  1.0000
  C   C706      1.0  0.15226  0.64639  0.65347  1.0000
  S   S92       1.0  0.08973  0.57842  0.96511  1.0000
  C   C707      1.0  0.23869  0.36525  0.96655  1.0000
  H   H529      1.0  0.23183  0.48682  0.57020  1.0000
  H   H530      1.0  0.16444  0.55617  0.54034  1.0000
  H   H531      1.0  0.16200  0.59611  0.53943  1.0000
  C   C708      1.0  0.23830  0.64956  0.79893  1.0000
  C   C709      1.0  0.03215  0.48066  0.55277  1.0000
  C   C710      1.0  0.20015  0.58449  0.49107  1.0000
  H   H532      1.0  0.22736  0.60557  0.52308  1.0000
  P   P24       1.0  0.18599  0.49187  0.88554  1.0000
  H   H533      1.0  0.13570  0.37396  0.88422  1.0000
  C   C711      1.0  0.23423  0.34826  0.76463  1.0000
  C   C712      1.0  0.22884  0.42489  0.96497  1.0000
  C   C713      1.0  0.07334  0.49113  0.48290  1.0000
  P   P25       1.0  0.21037  0.65452  0.75478  1.0000
  H   H534      1.0  0.18504  0.41863  0.88780  1.0000
  H   H535      1.0  0.16478  0.64427  0.61346  1.0000
  H   H536      1.0  0.22744  0.36623  0.71317  1.0000
  C   C714      1.0  0.01531  0.54252  0.71988  1.0000
  C   C715      1.0  0.04432  0.64015  0.61013  1.0000
  Fe  Fe50      1.0  0.24636  0.41280  0.56364  1.0000
  C   C716      1.0  0.18596  0.35793  0.67005  1.0000
  H   H537      1.0  0.13645  0.49087  0.61651  1.0000
  H   H538      1.0  0.21326  0.36311  0.81232  1.0000
  H   H539      1.0  0.06933  0.54664  0.65884  1.0000
  H   H540      1.0  0.23729  0.35344  0.85528  1.0000
  H   H541      1.0  0.22868  0.47549  0.77229  1.0000
  C   C717      1.0  0.05202  0.54560  0.65494  1.0000
  H   H542      1.0  0.04872  0.50573  0.50909  1.0000
  C   C718      1.0  0.19019  0.39113  0.91370  1.0000
  H   H543      1.0  0.21719  0.66184  0.64239  1.0000
  C   C719      1.0  0.12057  0.65710  0.54632  1.0000
  H   H544      1.0  0.24014  0.66776  0.47840  1.0000
  C   C720      1.0  0.21079  0.61085  0.60301  1.0000
  H   H545      1.0  0.25912  0.63631  0.65747  1.0000
  S   S93       1.0  0.20820  0.35272  0.60526  1.0000
  C   C721      1.0  0.03314  0.63177  0.58851  1.0000
  H   H546      1.0  0.22572  0.50248  0.63879  1.0000
  H   H547      1.0  0.03269  0.52256  0.59728  1.0000
  Fe  Fe51      1.0  0.20590  0.43422  0.59074  1.0000
  C   C722      1.0  0.02654  0.50983  0.58525  1.0000
  C   C723      1.0  0.22043  0.34850  0.53002  1.0000
  H   H548      1.0  0.21121  0.42572  0.96257  1.0000
  C   C724      1.0  0.23632  0.41902  0.49104  1.0000
  H   H549      1.0  0.17395  0.57566  0.77773  1.0000
  H   H550      1.0  0.15676  0.34323  0.67956  1.0000
  C   C725      1.0  0.22270  0.54917  0.56149  1.0000
  C   C726      1.0  0.23282  0.48235  0.94435  1.0000
  H   H551      1.0  0.23266  0.38290  0.75832  1.0000
  C   C727      1.0  0.16709  0.60984  0.77082  1.0000
  C   C728      1.0  0.19860  0.62978  0.76301  1.0000
  C   C729      1.0  0.18468  0.45459  0.80584  1.0000
  H   H552      1.0  0.18458  0.44569  0.78713  1.0000
  H   H553      1.0  0.19380  0.52159  0.84216  1.0000
  C   C730      1.0  0.17583  0.62931  0.76544  1.0000
  C   C731      1.0  0.20264  0.48218  0.74344  1.0000
  H   H554      1.0  0.19177  0.54691  0.58093  1.0000
  C   C732      1.0  0.25756  0.35998  0.91619  1.0000
  C   C733      1.0  0.02749  0.61633  0.63977  1.0000
  C   C734      1.0  0.21645  0.65997  0.66374  1.0000
  H   H555      1.0  0.18128  0.36043  0.64932  1.0000
  C   C735      1.0  0.21045  0.51575  0.57739  1.0000
  C   C736      1.0  0.17066  0.47356  0.80958  1.0000
  H   H556      1.0  0.18485  0.61502  0.93724  1.0000
  C   C737      1.0  0.11965  0.48699  0.61408  1.0000
  Fe  Fe52      1.0  0.24634  0.41932  0.62448  1.0000
  H   H557      1.0  0.03542  0.63768  0.56860  1.0000
  C   C738      1.0  0.05406  0.59189  0.89814  1.0000
  H   H558      1.0  0.17154  0.58362  0.87593  1.0000
  S   S94       1.0  0.21111  0.41313  0.62709  1.0000
  H   H559      1.0  0.21358  0.42388  0.72975  1.0000
  C   C739      1.0  0.17604  0.61887  0.95552  1.0000
  S   S95       1.0  0.22987  0.42937  0.91071  1.0000
  H   H560      1.0  0.14579  0.60819  0.94025  1.0000
  H   H561      1.0  0.16196  0.41486  0.82195  1.0000
  C   C740      1.0  0.18230  0.37200  0.92247  1.0000
  H   H562      1.0  0.19805  0.66333  0.47614  1.0000
  H   H563      1.0  0.16293  0.56611  0.91784  1.0000
  C   C741      1.0  0.24078  0.48624  0.50306  1.0000
  H   H564      1.0  0.04737  0.57738  0.63901  1.0000
  S   S96       1.0  0.21100  0.40617  0.56196  1.0000
  C   C742      1.0  0.16996  0.40184  0.80992  1.0000
  H   H565      1.0  0.18694  0.56136  0.83802  1.0000
  H   H566      1.0  0.02319  0.55916  0.58183  1.0000
  H   H567      1.0  0.22990  0.37987  0.51973  1.0000
  H   H568      1.0  0.22556  0.42303  0.68267  1.0000
  C   C743      1.0  0.18831  0.38918  0.81997  1.0000
  H   H569      1.0  0.19454  0.39230  0.83981  1.0000
  C   C744      1.0  0.23668  0.65436  0.77164  1.0000
  Fe  Fe53      1.0  0.21986  0.38574  0.59811  1.0000
  C   C745      1.0  0.24202  0.42661  0.94264  1.0000
  C   C746      1.0  0.23065  0.42461  0.72529  1.0000
  C   C747      1.0  0.11974  0.64863  0.52048  1.0000
  H   H570      1.0  0.05214  0.51329  0.67035  1.0000
  H   H571      1.0  0.21001  0.59218  0.47693  1.0000
  P   P26       1.0  0.19705  0.35631  0.94834  1.0000
  H   H572      1.0  0.21150  0.64504  0.59651  1.0000
  H   H573      1.0  0.12163  0.46461  0.64672  1.0000
  H   H574      1.0  0.21609  0.50662  0.80161  1.0000
  C   C748      1.0  0.01653  0.60745  0.61815  1.0000
  C   C749      1.0  0.08980  0.46698  0.62756  1.0000
  H   H575      1.0  0.01185  0.58132  0.83037  1.0000
  C   C750      1.0  0.01888  0.60188  0.87674  1.0000
  H   H576      1.0  0.20518  0.39627  0.92209  1.0000
  H   H577      1.0  0.01898  0.55441  0.91063  1.0000
  C   C751      1.0  0.16210  0.39787  0.78424  1.0000
  C   C752      1.0  0.01993  0.52607  0.65718  1.0000
  H   H578      1.0  0.21870  0.47555  0.47298  1.0000
  H   H579      1.0  0.10416  0.64875  0.51001  1.0000
  Fe  Fe54      1.0  0.25715  0.42113  0.81613  1.0000
  H   H580      1.0  0.25489  0.66324  0.73727  1.0000
  C   C753      1.0  0.25241  0.48158  0.93029  1.0000
  C   C754      1.0  0.01087  0.59093  0.48813  1.0000
  H   H581      1.0  0.19266  0.66985  0.52467  1.0000
  Fe  Fe55      1.0  0.13043  0.53125  0.47071  1.0000
  Fe  Fe56      1.0  0.08165  0.54402  0.96673  1.0000
  H   H582      1.0  0.04533  0.58070  0.48338  1.0000
  S   S97       1.0  0.14098  0.56487  0.47011  1.0000
  C   C755      1.0  0.02883  0.57668  0.47967  1.0000
  C   C756      1.0  0.22981  0.36307  0.51375  1.0000
  H   H583      1.0  0.25378  0.54646  0.54198  1.0000
  H   H584      1.0  0.17637  0.39913  0.96607  1.0000
  C   C757      1.0  0.25549  0.65931  0.75817  1.0000
  S   S98       1.0  0.14131  0.55949  0.96747  1.0000
  C   C758      1.0  0.25832  0.64995  0.81257  1.0000
  H   H585      1.0  0.25855  0.65940  0.55452  1.0000
  H   H586      1.0  0.25521  0.57522  0.61676  1.0000
  C   C759      1.0  0.23921  0.35604  0.48965  1.0000
  H   H587      1.0  0.25949  0.62014  0.54366  1.0000
  H   H588      1.0  0.01104  0.60912  0.57530  1.0000
  C   C760      1.0  0.01100  0.58284  0.88599  1.0000
  H   H589      1.0  0.01160  0.54598  0.53759  1.0000
  H   H590      1.0  0.01223  0.51191  0.66315  1.0000
  H   H591      1.0  0.24256  0.95258  0.42296  1.0000
  H   H592      1.0  0.23088  0.80917  0.21292  1.0000
  C   C761      1.0  0.17723  0.98294  0.42808  1.0000
  C   C762      1.0  0.23502  0.84109  0.43321  1.0000
  H   H593      1.0  0.23957  0.89268  0.27272  1.0000
  H   H594      1.0  0.02539  0.96894  0.25725  1.0000
  C   C763      1.0  0.03388  0.99117  0.28818  1.0000
  S   S99       1.0  0.23137  0.93181  0.37598  1.0000
  H   H595      1.0  0.14839  0.71783  0.20343  1.0000
  C   C764      1.0  0.24560  0.85189  0.02195  1.0000
  S   S100      1.0  0.22597  0.93294  0.31049  1.0000
  S   S101      1.0  0.24995  0.75460  0.35889  1.0000
  C   C765      1.0  0.20223  0.85943  0.28336  1.0000
  Fe  Fe57      1.0  0.24049  0.90960  0.34148  1.0000
  S   S102      1.0  0.23137  0.87529  0.33959  1.0000
  C   C766      1.0  0.07535  0.96063  0.13691  1.0000
  H   H596      1.0  0.19314  0.89307  0.13894  1.0000
  H   H597      1.0  0.11351  0.94805  0.08893  1.0000
  H   H598      1.0  0.15886  0.73576  0.02105  1.0000
  C   C767      1.0  0.25380  0.88377  0.26384  1.0000
  C   C768      1.0  0.21136  0.68204  0.35869  1.0000
  H   H599      1.0  0.19707  0.69121  0.16013  1.0000
  C   C769      1.0  0.10366  0.95767  0.10340  1.0000
  S   S103      1.0  0.23849  0.72055  0.41877  1.0000
  C   C770      1.0  0.07827  0.98263  0.14100  1.0000
  S   S104      1.0  0.23246  0.73834  0.28864  1.0000
  C   C771      1.0  0.17758  0.98630  0.37983  1.0000
  H   H600      1.0  0.20367  0.77314  0.34615  1.0000
  Fe  Fe58      1.0  0.22374  0.76388  0.10505  1.0000
  H   H601      1.0  0.19986  0.83992  0.43369  1.0000
  S   S105      1.0  0.21715  0.80067  0.10746  1.0000
  Fe  Fe59      1.0  0.20381  0.72018  0.10806  1.0000
  S   S106      1.0  0.23694  0.70103  0.10707  1.0000
  S   S107      1.0  0.17257  0.70330  0.11124  1.0000
  H   H602      1.0  0.04188  0.96228  0.08256  1.0000
  H   H603      1.0  0.22456  0.76677  0.45679  1.0000
  C   C772      1.0  0.07750  0.00329  0.19477  1.0000
  H   H604      1.0  0.24900  0.99641  0.00749  1.0000
  S   S108      1.0  0.21311  0.74408  0.13900  1.0000
  S   S109      1.0  0.21088  0.74181  0.07370  1.0000
  C   C773      1.0  0.19844  0.85437  0.23570  1.0000
  C   C774      1.0  0.20697  0.88045  0.40261  1.0000
  C   C775      1.0  0.19164  0.89033  0.25528  1.0000
  Fe  Fe60      1.0  0.21996  0.95633  0.34503  1.0000
  H   H605      1.0  0.14803  0.81808  0.32613  1.0000
  H   H606      1.0  0.09672  0.95842  0.35534  1.0000
  C   C776      1.0  0.17697  0.78132  0.21249  1.0000
  H   H607      1.0  0.12904  0.97200  0.33418  1.0000
  C   C777      1.0  0.24750  0.95070  0.23311  1.0000
  H   H608      1.0  0.13774  0.67650  0.12047  1.0000
  C   C778      1.0  0.08803  0.94823  0.11819  1.0000
  H   H609      1.0  0.20139  0.80223  0.41655  1.0000
  C   C779      1.0  0.25595  0.80803  0.41776  1.0000
  C   C780      1.0  0.23805  0.73619  0.20843  1.0000
  C   C781      1.0  0.23049  0.74076  0.23433  1.0000
  C   C782      1.0  0.10665  0.97953  0.10729  1.0000
  H   H610      1.0  0.18737  0.90763  0.25309  1.0000
  H   H611      1.0  0.22823  0.74209  0.19160  1.0000
  H   H612      1.0  0.21476  0.75000  0.23721  1.0000
  H   H613      1.0  0.02004  0.94503  0.20708  1.0000
  C   C783      1.0  0.15036  0.69271  0.23294  1.0000
  C   C784      1.0  0.25255  0.82686  0.28221  1.0000
  C   C785      1.0  0.22748  0.85726  0.17444  1.0000
  H   H614      1.0  0.18435  0.97568  0.44612  1.0000
  C   C786      1.0  0.25830  0.80990  0.09102  1.0000
  C   C787      1.0  0.19256  0.87666  0.23288  1.0000
  H   H615      1.0  0.24535  0.87192  0.10270  1.0000
  H   H616      1.0  0.25151  0.79778  0.34917  1.0000
  H   H617      1.0  0.23469  0.67463  0.43009  1.0000
  H   H618      1.0  0.04834  0.98086  0.29428  1.0000
  H   H619      1.0  0.19416  0.85702  0.16031  1.0000
  C   C788      1.0  0.25013  0.79022  0.26631  1.0000
  C   C789      1.0  0.16409  0.71857  0.02232  1.0000
  H   H620      1.0  0.24071  0.77792  0.25800  1.0000
  C   C790      1.0  0.25296  0.87650  0.23740  1.0000
  H   H621      1.0  0.23722  0.78172  0.40650  1.0000
  C   C791      1.0  0.24275  0.83207  0.34635  1.0000
  H   H622      1.0  0.06329  0.95294  0.14785  1.0000
  H   H623      1.0  0.16205  0.77331  0.21229  1.0000
  C   C792      1.0  0.02093  0.98434  0.26712  1.0000
  H   H624      1.0  0.22577  0.83031  0.34149  1.0000
  C   C793      1.0  0.24848  0.86157  0.97539  1.0000
  C   C794      1.0  0.25195  0.94585  0.98647  1.0000
  H   H625      1.0  0.22609  0.71038  0.01305  1.0000
  C   C795      1.0  0.23745  0.81804  0.09972  1.0000
  C   C796      1.0  0.23284  0.84053  0.10345  1.0000
  C   C797      1.0  0.07168  0.00503  0.32843  1.0000
  H   H626      1.0  0.23800  0.88017  0.22599  1.0000
  C   C798      1.0  0.16375  0.68086  0.25156  1.0000
  H   H627      1.0  0.21671  0.84700  0.10982  1.0000
  C   C799      1.0  0.03702  0.98743  0.17273  1.0000
  H   H628      1.0  0.25155  0.87686  0.05059  1.0000
  C   C800      1.0  0.02631  0.97223  0.08358  1.0000
  H   H629      1.0  0.19366  0.67393  0.42923  1.0000
  H   H630      1.0  0.25913  0.90350  0.01656  1.0000
  C   C801      1.0  0.21560  0.83116  0.42921  1.0000
  C   C802      1.0  0.11042  0.00015  0.31771  1.0000
  C   C803      1.0  0.09406  0.99196  0.12599  1.0000
  C   C804      1.0  0.17730  0.70830  0.00253  1.0000
  H   H631      1.0  0.24521  0.84305  0.28667  1.0000
  H   H632      1.0  0.20585  0.85298  0.30308  1.0000
  H   H633      1.0  0.22323  0.78454  0.30734  1.0000
  H   H634      1.0  0.18887  0.88339  0.21331  1.0000
  C   C805      1.0  0.20691  0.79219  0.31112  1.0000
  C   C806      1.0  0.11293  0.98090  0.33211  1.0000
  H   H635      1.0  0.17361  0.79148  0.25326  1.0000
  H   H636      1.0  0.16611  0.78984  0.35599  1.0000
  Fe  Fe61      1.0  0.25638  0.73326  0.32300  1.0000
  H   H637      1.0  0.21009  0.70606  0.24471  1.0000
  C   C807      1.0  0.22630  0.89774  0.15038  1.0000
  C   C808      1.0  0.17850  0.67424  0.02634  1.0000
  C   C809      1.0  0.21577  0.80152  0.21299  1.0000
  Fe  Fe62      1.0  0.24484  0.72427  0.07514  1.0000
  H   H638      1.0  0.20490  0.71235  0.38003  1.0000
  H   H639      1.0  0.11876  0.98690  0.09583  1.0000
  C   C810      1.0  0.24453  0.94659  0.46505  1.0000
  C   C811      1.0  0.16449  0.81089  0.32197  1.0000
  C   C812      1.0  0.25520  0.94886  0.18533  1.0000
  H   H640      1.0  0.25999  0.82832  0.14741  1.0000
  C   C813      1.0  0.19581  0.78561  0.33330  1.0000
  H   H641      1.0  0.22763  0.84149  0.18346  1.0000
  S   S110      1.0  0.24087  0.94964  0.01872  1.0000
  C   C814      1.0  0.24822  0.71633  0.45189  1.0000
  H   H642      1.0  0.14761  0.71462  0.05933  1.0000
  C   C815      1.0  0.25944  0.87939  0.44020  1.0000
  H   H643      1.0  0.25883  0.78881  0.14312  1.0000
  C   C816      1.0  0.03820  0.96857  0.18817  1.0000
  C   C817      1.0  0.24022  0.95166  0.20635  1.0000
  C   C818      1.0  0.25506  0.88756  0.01049  1.0000
  H   H644      1.0  0.04961  0.00409  0.22109  1.0000
  H   H645      1.0  0.19880  0.84412  0.21814  1.0000
  C   C819      1.0  0.23657  0.79826  0.41391  1.0000
  H   H646      1.0  0.24260  0.84016  0.03701  1.0000
  H   H647      1.0  0.01241  0.95159  0.11166  1.0000
  H   H648      1.0  0.19075  0.71475  0.29624  1.0000
  C   C820      1.0  0.19634  0.88167  0.28053  1.0000
  C   C821      1.0  0.20891  0.79141  0.18970  1.0000
  C   C822      1.0  0.20357  0.84561  0.26098  1.0000
  H   H649      1.0  0.08578  0.93125  0.11514  1.0000
  C   C823      1.0  0.15770  0.70666  0.04381  1.0000
  C   C824      1.0  0.17465  0.79499  0.33879  1.0000
  H   H650      1.0  0.18819  0.89059  0.36758  1.0000
  H   H651      1.0  0.18047  0.93359  0.43522  1.0000
  H   H652      1.0  0.05394  0.96096  0.19502  1.0000
  C   C825      1.0  0.21640  0.80982  0.41960  1.0000
  H   H653      1.0  0.22586  0.91337  0.14083  1.0000
  P   P27       1.0  0.21091  0.81684  0.26524  1.0000
  H   H654      1.0  0.18656  0.72669  0.21153  1.0000
  H   H655      1.0  0.24086  0.83019  0.98948  1.0000
  S   S111      1.0  0.25252  0.96978  0.34116  1.0000
  H   H656      1.0  0.23582  0.95321  0.24908  1.0000
  C   C826      1.0  0.18766  0.91858  0.42624  1.0000
  C   C827      1.0  0.18222  0.91342  0.39999  1.0000
  C   C828      1.0  0.20297  0.80205  0.23604  1.0000
  C   C829      1.0  0.18689  0.97732  0.40334  1.0000
  C   C830      1.0  0.21247  0.88538  0.42912  1.0000
  C   C831      1.0  0.20277  0.90473  0.44070  1.0000
  C   C832      1.0  0.20420  0.70411  0.36091  1.0000
  C   C833      1.0  0.25013  0.85273  0.34733  1.0000
  Fe  Fe63      1.0  0.26024  0.72522  0.38341  1.0000
  C   C834      1.0  0.25339  0.94917  0.43980  1.0000
  C   C835      1.0  0.09474  0.97334  0.34411  1.0000
  H   H657      1.0  0.22242  0.67519  0.03856  1.0000
  S   S112      1.0  0.14616  0.00369  0.46089  1.0000
  H   H658      1.0  0.17099  0.92451  0.38859  1.0000
  C   C836      1.0  0.19184  0.89433  0.38821  1.0000
  C   C837      1.0  0.02285  0.99116  0.06860  1.0000
  C   C838      1.0  0.24452  0.84636  0.99488  1.0000
  H   H659      1.0  0.21483  0.86620  0.39265  1.0000
  C   C839      1.0  0.20836  0.86610  0.16152  1.0000
  H   H660      1.0  0.16733  0.82969  0.28676  1.0000
  H   H661      1.0  0.20132  0.96582  0.40247  1.0000
  S   S113      1.0  0.18854  0.97881  0.34822  1.0000
  C   C840      1.0  0.18946  0.78143  0.18944  1.0000
  H   H662      1.0  0.21857  0.79136  0.17173  1.0000
  H   H663      1.0  0.22289  0.95486  0.20190  1.0000
  C   C841      1.0  0.23808  0.71350  0.99835  1.0000
  C   C842      1.0  0.07413  0.98524  0.34209  1.0000
  H   H664      1.0  0.18405  0.77378  0.17132  1.0000
  C   C843      1.0  0.20779  0.88633  0.14941  1.0000
  H   H665      1.0  0.19578  0.89221  0.29798  1.0000
  H   H666      1.0  0.19180  0.73295  0.33984  1.0000
  C   C844      1.0  0.19670  0.71571  0.33833  1.0000
  C   C845      1.0  0.19610  0.70525  0.31353  1.0000
  C   C846      1.0  0.15890  0.00136  0.38138  1.0000
  Fe  Fe64      1.0  0.24653  0.72623  0.13636  1.0000
  H   H667      1.0  0.25273  0.88411  0.39804  1.0000
  C   C847      1.0  0.19694  0.80837  0.29428  1.0000
  H   H668      1.0  0.19492  0.67854  0.98911  1.0000
  P   P28       1.0  0.23382  0.86843  0.44652  1.0000
  H   H669      1.0  0.06023  0.97926  0.35167  1.0000
  C   C848      1.0  0.15852  0.70926  0.21856  1.0000
  C   C849      1.0  0.18004  0.71415  0.22300  1.0000
  C   C850      1.0  0.19341  0.70235  0.24164  1.0000
  C   C851      1.0  0.17552  0.81748  0.29972  1.0000
  P   P29       1.0  0.06185  0.99933  0.16458  1.0000
  C   C852      1.0  0.24011  0.81124  0.27085  1.0000
  C   C853      1.0  0.18451  0.68622  0.00450  1.0000
  C   C854      1.0  0.24301  0.73318  0.25651  1.0000
  H   H670      1.0  0.23325  0.00093  0.17753  1.0000
  C   C855      1.0  0.18363  0.79165  0.23571  1.0000
  C   C856      1.0  0.16788  0.68571  0.13780  1.0000
  C   C857      1.0  0.18263  0.68250  0.15924  1.0000
  H   H671      1.0  0.13393  0.68838  0.22888  1.0000
  S   S114      1.0  0.25793  0.74751  0.10469  1.0000
  C   C858      1.0  0.25525  0.82935  0.42741  1.0000
  C   C859      1.0  0.01905  0.95957  0.19515  1.0000
  S   S115      1.0  0.25081  0.91789  0.08638  1.0000
  C   C860      1.0  0.16466  0.68454  0.04572  1.0000
  S   S116      1.0  0.24533  0.95199  0.15208  1.0000
  C   C861      1.0  0.15835  0.99773  0.42956  1.0000
  C   C862      1.0  0.25816  0.72392  0.20451  1.0000
  H   H672      1.0  0.15932  0.67575  0.06255  1.0000
  H   H673      1.0  0.03576  0.99593  0.05601  1.0000
  C   C863      1.0  0.25735  0.81352  0.35086  1.0000
  H   H674      1.0  0.23007  0.99338  0.05011  1.0000
  H   H675      1.0  0.20695  0.90955  0.46067  1.0000
  C   C864      1.0  0.24552  0.88891  0.16318  1.0000
  C   C865      1.0  0.20300  0.68303  0.31112  1.0000
  C   C866      1.0  0.24906  0.85470  0.09934  1.0000
  C   C867      1.0  0.25072  0.87253  0.02970  1.0000
  C   C868      1.0  0.24633  0.86844  0.17508  1.0000
  H   H676      1.0  0.18206  0.71756  0.98577  1.0000
  C   C869      1.0  0.01635  0.99743  0.16504  1.0000
  C   C870      1.0  0.25419  0.88207  0.98347  1.0000
  C   C871      1.0  0.18549  0.68547  0.25583  1.0000
  H   H677      1.0  0.24707  0.67274  0.30392  1.0000
  Fe  Fe65      1.0  0.25955  0.94425  0.30919  1.0000
  C   C872      1.0  0.14917  0.67424  0.13706  1.0000
  H   H678      1.0  0.25781  0.89395  0.96887  1.0000
  C   C873      1.0  0.06707  0.00505  0.21960  1.0000
  H   H679      1.0  0.25944  0.99983  0.14036  1.0000
  C   C874      1.0  0.25924  0.71734  0.00654  1.0000
  C   C875      1.0  0.23265  0.71294  0.97099  1.0000
  H   H680      1.0  0.25964  0.89810  0.16344  1.0000
  H   H681      1.0  0.22691  0.94775  0.46728  1.0000
  C   C876      1.0  0.24997  0.00451  0.18133  1.0000
  H   H682      1.0  0.21769  0.67325  0.37614  1.0000
  C   C877      1.0  0.24952  0.77852  0.52625  1.0000
  H   H683      1.0  0.21940  0.80243  0.65491  1.0000
  C   C878      1.0  0.24006  0.80287  0.74458  1.0000
  H   H684      1.0  0.22355  0.94043  0.69989  1.0000
  H   H685      1.0  0.16815  0.67312  0.73417  1.0000
  H   H686      1.0  0.18613  0.99112  0.69591  1.0000
  C   C879      1.0  0.22246  0.79622  0.93761  1.0000
  S   S117      1.0  0.22665  0.92416  0.86917  1.0000
  C   C880      1.0  0.23140  0.77053  0.47612  1.0000
  C   C881      1.0  0.19857  0.69231  0.78480  1.0000
  S   S118      1.0  0.22373  0.93033  0.80394  1.0000
  C   C882      1.0  0.22264  0.84899  0.49419  1.0000
  Fe  Fe66      1.0  0.21647  0.95103  0.84065  1.0000
  Fe  Fe67      1.0  0.23720  0.90456  0.83271  1.0000
  S   S119      1.0  0.23020  0.86998  0.82444  1.0000
  C   C883      1.0  0.21362  0.88886  0.93560  1.0000
  C   C884      1.0  0.23835  0.94982  0.96393  1.0000
  H   H687      1.0  0.17542  0.93376  0.73809  1.0000
  H   H688      1.0  0.23649  0.95082  0.92088  1.0000
  C   C885      1.0  0.22208  0.83807  0.73186  1.0000
  C   C886      1.0  0.15701  0.67981  0.67709  1.0000
  C   C887      1.0  0.24451  0.82661  0.93427  1.0000
  H   H689      1.0  0.21692  0.97847  0.66632  1.0000
  P   P30       1.0  0.24757  0.85502  0.94024  1.0000
  C   C888      1.0  0.24702  0.94741  0.93809  1.0000
  S   S120      1.0  0.23232  0.73660  0.78610  1.0000
  C   C889      1.0  0.17286  0.97736  0.92388  1.0000
  C   C890      1.0  0.24279  0.78095  0.67677  1.0000
  Fe  Fe68      1.0  0.22597  0.75421  0.59990  1.0000
  S   S121      1.0  0.25496  0.90893  0.58603  1.0000
  S   S122      1.0  0.21948  0.79103  0.59547  1.0000
  Fe  Fe69      1.0  0.20785  0.70936  0.60443  1.0000
  C   C891      1.0  0.23005  0.88657  0.49773  1.0000
  S   S123      1.0  0.18245  0.68477  0.60282  1.0000
  C   C892      1.0  0.25348  0.77419  0.47847  1.0000
  C   C893      1.0  0.17283  0.68347  0.75033  1.0000
  H   H690      1.0  0.25212  0.98724  0.70147  1.0000
  H   H691      1.0  0.22163  0.99652  0.62371  1.0000
  S   S124      1.0  0.21450  0.73529  0.63453  1.0000
  S   S125      1.0  0.21525  0.73008  0.56942  1.0000
  C   C894      1.0  0.20165  0.83038  0.73637  1.0000
  C   C895      1.0  0.23896  0.78261  0.92528  1.0000
  C   C896      1.0  0.17391  0.98101  0.87567  1.0000
  C   C897      1.0  0.25154  0.84545  0.59087  1.0000
  C   C898      1.0  0.20030  0.85566  0.64559  1.0000
  H   H692      1.0  0.18476  0.80334  0.74880  1.0000
  H   H693      1.0  0.21775  0.99697  0.88562  1.0000
  S   S126      1.0  0.18588  0.97463  0.84425  1.0000
  H   H694      1.0  0.16655  0.92384  0.78418  1.0000
  C   C899      1.0  0.24296  0.72935  0.75445  1.0000
  H   H695      1.0  0.20615  0.86325  0.77544  1.0000
  C   C900      1.0  0.24919  0.84827  0.83471  1.0000
  C   C901      1.0  0.24480  0.82695  0.82885  1.0000
  C   C902      1.0  0.23763  0.72804  0.70629  1.0000
  C   C903      1.0  0.22959  0.73343  0.73182  1.0000
  H   H696      1.0  0.18978  0.72191  0.80669  1.0000
  H   H697      1.0  0.25720  0.82955  0.73255  1.0000
  H   H698      1.0  0.22705  0.73103  0.68913  1.0000
  H   H699      1.0  0.21289  0.74065  0.73407  1.0000
  H   H700      1.0  0.22617  0.90125  0.53665  1.0000
  C   C904      1.0  0.20497  0.85346  0.67286  1.0000
  H   H701      1.0  0.21210  0.82857  0.95127  1.0000
  H   H702      1.0  0.23173  0.76851  0.67864  1.0000
  C   C905      1.0  0.23974  0.71378  0.49913  1.0000
  C   C906      1.0  0.21798  0.84903  0.52142  1.0000
  C   C907      1.0  0.18180  0.91814  0.74591  1.0000
  C   C908      1.0  0.18953  0.89376  0.89700  1.0000
  H   H703      1.0  0.22776  0.71496  0.51478  1.0000
  H   H704      1.0  0.21647  0.70939  0.96470  1.0000
  C   C909      1.0  0.18272  0.97168  0.89924  1.0000
  H   H705      1.0  0.24448  0.83128  0.65111  1.0000
  C   C910      1.0  0.19553  0.90383  0.73033  1.0000
  C   C911      1.0  0.20051  0.80914  0.74504  1.0000
  H   H706      1.0  0.21409  0.68945  0.79531  1.0000
  H   H707      1.0  0.20347  0.87488  0.61058  1.0000
  C   C912      1.0  0.22489  0.87048  0.92356  1.0000
  C   C913      1.0  0.21920  0.67527  0.70803  1.0000
  H   H708      1.0  0.23007  0.82404  0.81780  1.0000
  C   C914      1.0  0.16759  0.68761  0.65492  1.0000
  C   C915      1.0  0.25589  0.00300  0.48855  1.0000
  H   H709      1.0  0.23690  0.76559  0.92188  1.0000
  C   C916      1.0  0.15903  0.70203  0.75693  1.0000
  C   C917      1.0  0.25940  0.80928  0.83712  1.0000
  H   H710      1.0  0.22576  0.69192  0.67202  1.0000
  C   C918      1.0  0.24077  0.80852  0.59419  1.0000
  C   C919      1.0  0.23518  0.83098  0.59179  1.0000
  H   H711      1.0  0.23550  0.94323  0.74716  1.0000
  C   C920      1.0  0.19904  0.87827  0.76664  1.0000
  C   C921      1.0  0.22512  0.88663  0.52482  1.0000
  H   H712      1.0  0.21808  0.83717  0.59077  1.0000
  H   H713      1.0  0.23221  0.89844  0.68208  1.0000
  H   H714      1.0  0.19959  0.90876  0.71058  1.0000
  H   H715      1.0  0.21891  0.77904  0.75634  1.0000
  C   C922      1.0  0.24129  0.82409  0.73588  1.0000
  H   H716      1.0  0.18209  0.88848  0.80258  1.0000
  H   H717      1.0  0.02583  0.00433  0.66531  1.0000
  C   C923      1.0  0.25045  0.87414  0.72753  1.0000
  C   C924      1.0  0.15519  0.99601  0.87698  1.0000
  S   S127      1.0  0.14241  0.99947  0.95662  1.0000
  H   H718      1.0  0.22701  0.85011  0.88810  1.0000
  H   H719      1.0  0.19592  0.87053  0.86506  1.0000
  H   H720      1.0  0.23534  0.90112  0.48919  1.0000
  S   S128      1.0  0.24620  0.94183  0.65053  1.0000
  C   C925      1.0  0.22836  0.86794  0.48195  1.0000
  H   H721      1.0  0.17613  0.90295  0.88655  1.0000
  C   C926      1.0  0.21844  0.88856  0.64502  1.0000
  C   C927      1.0  0.14525  0.00156  0.90157  1.0000
  H   H722      1.0  0.08555  0.99569  0.71090  1.0000
  H   H723      1.0  0.20135  0.76770  0.49702  1.0000
  S   S129      1.0  0.24913  0.96448  0.84028  1.0000
  C   C928      1.0  0.18536  0.89261  0.78217  1.0000
  C   C929      1.0  0.19607  0.90048  0.92229  1.0000
  H   H724      1.0  0.24699  0.86267  0.58933  1.0000
  C   C930      1.0  0.18478  0.71094  0.79129  1.0000
  C   C931      1.0  0.16499  0.71577  0.77744  1.0000
  H   H725      1.0  0.22505  0.68387  0.54544  1.0000
  C   C932      1.0  0.22742  0.77496  0.52379  1.0000
  C   C933      1.0  0.21836  0.77092  0.49877  1.0000
  H   H726      1.0  0.15963  0.00495  0.60146  1.0000
  H   H727      1.0  0.19171  0.84357  0.63514  1.0000
  C   C934      1.0  0.20422  0.88371  0.74054  1.0000
  C   C935      1.0  0.25559  0.88385  0.75195  1.0000
  C   C936      1.0  0.23573  0.80020  0.66366  1.0000
  S   S130      1.0  0.24193  0.69241  0.60632  1.0000
  C   C937      1.0  0.22109  0.67708  0.68047  1.0000
  H   H728      1.0  0.18661  0.84088  0.73344  1.0000
  Fe  Fe70      1.0  0.25734  0.94149  0.80605  1.0000
  C   C938      1.0  0.20548  0.99213  0.66052  1.0000
  H   H729      1.0  0.21367  0.83437  0.53079  1.0000
  H   H730      1.0  0.15445  0.73030  0.78241  1.0000
  H   H731      1.0  0.22242  0.68881  0.72081  1.0000
  Fe  Fe71      1.0  0.24965  0.71434  0.57323  1.0000
  H   H732      1.0  0.17329  0.70357  0.65566  1.0000
  P   P31       1.0  0.22338  0.86578  0.72148  1.0000
  C   C939      1.0  0.24806  0.71673  0.95156  1.0000
  S   S131      1.0  0.24938  0.75338  0.85800  1.0000
  Fe  Fe72      1.0  0.24891  0.71918  0.63455  1.0000
  C   C940      1.0  0.24062  0.94188  0.70461  1.0000
  H   H733      1.0  0.24378  0.88581  0.76787  1.0000
  H   H734      1.0  0.13466  0.99137  0.56794  1.0000
  C   C941      1.0  0.24984  0.81643  0.66151  1.0000
  H   H735      1.0  0.17981  0.97011  0.94201  1.0000
  C   C942      1.0  0.25579  0.94221  0.68392  1.0000
  H   H736      1.0  0.14378  0.70573  0.74597  1.0000
  H   H737      1.0  0.24699  0.98878  0.48974  1.0000
  C   C943      1.0  0.17673  0.91254  0.77184  1.0000
  H   H738      1.0  0.21735  0.77511  0.54139  1.0000
  C   C944      1.0  0.21834  0.86399  0.89803  1.0000
  H   H739      1.0  0.19712  0.96009  0.89853  1.0000
  C   C945      1.0  0.19253  0.67823  0.76446  1.0000
  C   C946      1.0  0.07627  0.00288  0.69412  1.0000
  H   H740      1.0  0.20757  0.78972  0.94373  1.0000
  C   C947      1.0  0.20066  0.87553  0.88490  1.0000
  H   H741      1.0  0.22182  0.83408  0.48302  1.0000
  C   C948      1.0  0.24734  0.94354  0.73143  1.0000
  C   C949      1.0  0.20700  0.87322  0.63170  1.0000
  H   H742      1.0  0.18767  0.91484  0.93148  1.0000
  H   H743      1.0  0.21823  0.89444  0.95515  1.0000
  S   S132      1.0  0.24040  0.71485  0.91747  1.0000
  C   C950      1.0  0.21972  0.79542  0.74924  1.0000
  C   C951      1.0  0.21661  0.86875  0.68639  1.0000
  C   C952      1.0  0.05464  0.99843  0.68957  1.0000
  H   H744      1.0  0.19978  0.83963  0.68307  1.0000
  H   H745      1.0  0.21506  0.86808  0.55760  1.0000
  H   H746      1.0  0.25482  0.79211  0.74794  1.0000
  C   C953      1.0  0.22512  0.81816  0.94190  1.0000
  H   H747      1.0  0.15455  0.69003  0.69458  1.0000
  C   C954      1.0  0.17029  0.67498  0.63172  1.0000
  Fe  Fe73      1.0  0.25554  0.73259  0.82137  1.0000
  C   C955      1.0  0.21892  0.86794  0.53662  1.0000
  C   C956      1.0  0.22323  0.88637  0.67221  1.0000
  H   H748      1.0  0.22373  0.90218  0.63431  1.0000
  H   H749      1.0  0.25921  0.88601  0.89948  1.0000
  C   C957      1.0  0.15408  0.99233  0.92518  1.0000
  H   H750      1.0  0.21431  0.99470  0.56915  1.0000
  S   S133      1.0  0.24620  0.94037  0.51879  1.0000
  C   C958      1.0  0.23293  0.71751  0.47256  1.0000
  H   H751      1.0  0.04709  0.98778  0.70285  1.0000
  C   C959      1.0  0.25827  0.94272  0.48739  1.0000
  H   H752      1.0  0.25725  0.99171  0.89573  1.0000
  H   H753      1.0  0.24983  0.98490  0.54775  1.0000
  Fe  Fe74      1.0  0.26016  0.72350  0.88163  1.0000
  C   C960      1.0  0.14621  0.00252  0.56212  1.0000
  H   H754      1.0  0.16868  0.00354  0.80120  1.0000
  C   C961      1.0  0.18808  0.99923  0.67719  1.0000
  H   H755      1.0  0.13631  0.00247  0.52069  1.0000
  H   H756      1.0  0.25626  0.78139  0.54586  1.0000
  H   H757      1.0  0.25599  0.79299  0.83195  1.0000
  H   H758      1.0  0.01122  0.99952  0.60879  1.0000
  C   C962      1.0  0.20809  0.00248  0.63628  1.0000
  H   H759      1.0  0.09114  0.00308  0.55875  1.0000
  H   H760      1.0  0.03551  0.00292  0.86697  1.0000
  H   H761      1.0  0.14826  0.00329  0.85887  1.0000
  C   C963      1.0  0.24669  0.00058  0.55760  1.0000
  S   S134      1.0  0.26071  0.73932  0.60188  1.0000
  C   C964      1.0  0.25802  0.79100  0.91698  1.0000
  C   C965      1.0  0.24861  0.00449  0.69805  1.0000
  Fe  Fe75      1.0  0.25968  0.93641  0.86689  1.0000
  C   C966      1.0  0.25910  0.71848  0.70317  1.0000
  H   H762      1.0  0.22107  0.95487  0.96645  1.0000
  H   H763      1.0  0.21571  0.72154  0.46806  1.0000
  H   H764      1.0  0.06454  0.00523  0.52083  1.0000
  H   H765      1.0  0.20828  0.00544  0.80986  1.0000
  Fe  Fe76      1.0  0.44355  0.08231  0.22121  1.0000
  S   S135      1.0  0.47839  0.09103  0.22368  1.0000
  Fe  Fe77      1.0  0.39546  0.10079  0.21817  1.0000
  S   S136      1.0  0.38338  0.06770  0.21951  1.0000
  S   S137      1.0  0.37203  0.13151  0.21544  1.0000
  Fe  Fe78      1.0  0.40934  0.06035  0.25137  1.0000
  Fe  Fe79      1.0  0.41025  0.05890  0.19013  1.0000
  S   S138      1.0  0.41925  0.09424  0.25259  1.0000
  S   S139      1.0  0.42091  0.09230  0.18710  1.0000
  Fe  Fe80      1.0  0.27718  0.22884  0.09906  1.0000
  H   H766      1.0  0.27429  0.18964  0.00833  1.0000
  S   S140      1.0  0.28825  0.26265  0.09979  1.0000
  Fe  Fe81      1.0  0.29193  0.18037  0.10397  1.0000
  C   C967      1.0  0.26779  0.02214  0.02136  1.0000
  S   S141      1.0  0.31831  0.15208  0.10773  1.0000
  H   H767      1.0  0.26753  0.07783  0.38918  1.0000
  S   S142      1.0  0.42773  0.02742  0.00848  1.0000
  C   C968      1.0  0.27566  0.09758  0.16318  1.0000
  S   S143      1.0  0.39971  0.08176  0.04060  1.0000
  S   S144      1.0  0.28786  0.20289  0.06874  1.0000
  S   S145      1.0  0.28496  0.20703  0.13416  1.0000
  H   H768      1.0  0.45323  0.12024  0.97394  1.0000
  H   H769      1.0  0.33025  0.10412  0.19171  1.0000
  C   C969      1.0  0.28551  0.31474  0.00142  1.0000
  H   H770      1.0  0.40645  0.01970  0.10125  1.0000
  H   H771      1.0  0.47540  0.07795  0.45649  1.0000
  H   H772      1.0  0.34130  0.03297  0.44334  1.0000
  H   H773      1.0  0.28389  0.11236  0.38989  1.0000
  C   C970      1.0  0.27629  0.29807  0.34085  1.0000
  H   H774      1.0  0.28136  0.06702  0.28556  1.0000
  C   C971      1.0  0.46495  0.02421  0.30957  1.0000
  P   P32       1.0  0.29452  0.05292  0.04134  1.0000
  C   C972      1.0  0.26399  0.12417  0.04504  1.0000
  H   H775      1.0  0.29301  0.29271  0.33551  1.0000
  S   S146      1.0  0.42292  0.02553  0.44242  1.0000
  C   C973      1.0  0.26990  0.02319  0.36433  1.0000
  C   C974      1.0  0.34546  0.01921  0.43040  1.0000
  H   H776      1.0  0.27186  0.10713  0.25793  1.0000
  C   C975      1.0  0.30646  0.06539  0.45245  1.0000
  H   H777      1.0  0.49464  0.12075  0.04334  1.0000
  C   C976      1.0  0.31983  0.02832  0.00427  1.0000
  C   C977      1.0  0.31094  0.06609  0.99277  1.0000
  H   H778      1.0  0.29158  0.30831  0.10658  1.0000
  C   C978      1.0  0.40405  0.05015  0.32013  1.0000
  H   H779      1.0  0.33617  0.08075  0.15132  1.0000
  H   H780      1.0  0.26848  0.26635  0.15175  1.0000
  C   C979      1.0  0.27169  0.18914  0.22584  1.0000
  C   C980      1.0  0.30909  0.04886  0.01032  1.0000
  C   C981      1.0  0.41115  0.13780  0.13495  1.0000
  C   C982      1.0  0.26847  0.28533  0.09678  1.0000
  H   H781      1.0  0.44840  0.01952  0.30908  1.0000
  H   H782      1.0  0.28931  0.18667  0.22845  1.0000
  C   C983      1.0  0.40277  0.15709  0.12282  1.0000
  H   H783      1.0  0.41814  0.14513  0.45997  1.0000
  C   C984      1.0  0.32872  0.08689  0.19272  1.0000
  H   H784      1.0  0.38785  0.09709  0.35358  1.0000
  H   H785      1.0  0.49015  0.00832  0.03274  1.0000
  H   H786      1.0  0.37503  0.00728  0.27377  1.0000
  C   C985      1.0  0.48857  0.12594  0.09769  1.0000
  C   C986      1.0  0.35816  0.13763  0.18488  1.0000
  C   C987      1.0  0.36047  0.12344  0.16299  1.0000
  C   C988      1.0  0.34843  0.12824  0.13934  1.0000
  C   C989      1.0  0.33380  0.14715  0.13745  1.0000
  C   C990      1.0  0.33160  0.16141  0.15927  1.0000
  C   C991      1.0  0.34390  0.15676  0.18277  1.0000
  H   H787      1.0  0.37140  0.10863  0.16434  1.0000
  H   H788      1.0  0.35038  0.11719  0.12249  1.0000
  H   H789      1.0  0.32048  0.17605  0.15805  1.0000
  H   H790      1.0  0.34213  0.16794  0.19950  1.0000
  C   C992      1.0  0.40254  0.07273  0.12038  1.0000
  C   C993      1.0  0.40126  0.08229  0.09508  1.0000
  H   H791      1.0  0.40143  0.08290  0.13795  1.0000
  H   H792      1.0  0.39941  0.09976  0.09338  1.0000
  C   C994      1.0  0.32237  0.06250  0.96893  1.0000
  H   H793      1.0  0.39409  0.08279  0.30757  1.0000
  H   H794      1.0  0.36106  0.03071  0.31226  1.0000
  C   C995      1.0  0.33660  0.29578  0.29117  1.0000
  C   C996      1.0  0.47849  0.01963  0.33184  1.0000
  Fe  Fe82      1.0  0.40418  0.01812  0.97664  1.0000
  C   C997      1.0  0.29563  0.29862  0.26557  1.0000
  C   C998      1.0  0.31011  0.27969  0.26271  1.0000
  C   C999      1.0  0.33075  0.27846  0.27541  1.0000
  P   P33       1.0  0.30268  0.25797  0.24123  1.0000
  C   C1000     1.0  0.26621  0.08831  0.02482  1.0000
  C   C1001     1.0  0.30813  0.26433  0.20704  1.0000
  C   C1002     1.0  0.30901  0.24797  0.18737  1.0000
  C   C1003     1.0  0.31467  0.25249  0.16127  1.0000
  C   C1004     1.0  0.31913  0.27338  0.15449  1.0000
  C   C1005     1.0  0.31815  0.28978  0.17384  1.0000
  C   C1006     1.0  0.31283  0.28527  0.20007  1.0000
  H   H795      1.0  0.50086  0.10599  0.44963  1.0000
  H   H796      1.0  0.30128  0.11546  0.14805  1.0000
  H   H797      1.0  0.36189  0.03114  0.11844  1.0000
  C   C1007     1.0  0.27369  0.00810  0.38478  1.0000
  C   C1008     1.0  0.27241  0.13649  0.15798  1.0000
  C   C1009     1.0  0.31896  0.23299  0.24988  1.0000
  C   C1010     1.0  0.33920  0.22724  0.23752  1.0000
  C   C1011     1.0  0.35168  0.20779  0.24392  1.0000
  C   C1012     1.0  0.34425  0.19411  0.26299  1.0000
  C   C1013     1.0  0.32431  0.19985  0.27562  1.0000
  C   C1014     1.0  0.31174  0.21924  0.26919  1.0000
  H   H798      1.0  0.38446  0.00555  0.03133  1.0000
  H   H799      1.0  0.37143  0.03403  0.41153  1.0000
  C   C1015     1.0  0.48921  0.14650  0.10953  1.0000
  C   C1016     1.0  0.49977  0.02597  0.33250  1.0000
  H   H800      1.0  0.34227  0.26415  0.27337  1.0000
  H   H801      1.0  0.30556  0.23166  0.19224  1.0000
  H   H802      1.0  0.31538  0.23990  0.14606  1.0000
  H   H803      1.0  0.32311  0.27687  0.13410  1.0000
  C   C1017     1.0  0.27266  0.19055  0.46669  1.0000
  H   H804      1.0  0.31265  0.29812  0.21477  1.0000
  H   H805      1.0  0.28373  0.12726  0.08049  1.0000
  C   C1018     1.0  0.43976  0.13257  0.10171  1.0000
  H   H806      1.0  0.27616  0.33268  0.40223  1.0000
  C   C1019     1.0  0.31592  0.02668  0.08077  1.0000
  C   C1020     1.0  0.27399  0.25488  0.24621  1.0000
  H   H807      1.0  0.34537  0.23770  0.22286  1.0000
  H   H808      1.0  0.36708  0.20322  0.23401  1.0000
  H   H809      1.0  0.35392  0.17902  0.26786  1.0000
  H   H810      1.0  0.31833  0.18914  0.29018  1.0000
  H   H811      1.0  0.29630  0.22325  0.27915  1.0000
  H   H812      1.0  0.28410  0.32936  0.21866  1.0000
  H   H813      1.0  0.27867  0.02068  0.34577  1.0000
  C   C1021     1.0  0.33358  0.07973  0.42452  1.0000
  C   C1022     1.0  0.28671  0.00708  0.16536  1.0000
  H   H814      1.0  0.40328  0.13221  0.15241  1.0000
  H   H815      1.0  0.32086  0.25488  0.05809  1.0000
  C   C1023     1.0  0.30694  0.22826  0.00179  1.0000
  C   C1024     1.0  0.27889  0.01228  0.21233  1.0000
  H   H816      1.0  0.31962  0.01498  0.01806  1.0000
  H   H817      1.0  0.30330  0.04644  0.38862  1.0000
  H   H818      1.0  0.50807  0.09675  0.08482  1.0000
  H   H819      1.0  0.33452  0.06880  0.38377  1.0000
  C   C1025     1.0  0.32623  0.06825  0.40265  1.0000
  C   C1026     1.0  0.35160  0.01053  0.24136  1.0000
  C   C1027     1.0  0.29436  0.26582  0.03136  1.0000
  C   C1028     1.0  0.29050  0.33524  0.01008  1.0000
  C   C1029     1.0  0.31222  0.25157  0.03974  1.0000
  C   C1030     1.0  0.30875  0.05563  0.40546  1.0000
  C   C1031     1.0  0.26524  0.30736  0.00751  1.0000
  H   H820      1.0  0.46218  0.03849  0.27063  1.0000
  H   H821      1.0  0.49965  0.04961  0.27132  1.0000
  H   H822      1.0  0.27967  0.29999  0.25585  1.0000
  C   C1032     1.0  0.26159  0.03381  0.06711  1.0000
  C   C1033     1.0  0.40477  0.04464  0.36834  1.0000
  S   S147      1.0  0.38457  0.05067  0.97534  1.0000
  C   C1034     1.0  0.40198  0.06931  0.07199  1.0000
  C   C1035     1.0  0.28922  0.24257  0.99318  1.0000
  C   C1036     1.0  0.49282  0.07386  0.45916  1.0000
  C   C1037     1.0  0.27249  0.09581  0.30959  1.0000
  H   H823      1.0  0.28540  0.04433  0.43212  1.0000
  C   C1038     1.0  0.28730  0.09453  0.06485  1.0000
  H   H824      1.0  0.33994  0.00916  0.97616  1.0000
  H   H825      1.0  0.27957  0.15112  0.15248  1.0000
  C   C1039     1.0  0.33259  0.02136  0.09956  1.0000
  C   C1040     1.0  0.26480  0.25868  0.27156  1.0000
  C   C1041     1.0  0.29877  0.05431  0.43024  1.0000
  H   H826      1.0  0.32152  0.30597  0.16843  1.0000
  C   C1042     1.0  0.36271  0.01967  0.41265  1.0000
  C   C1043     1.0  0.33195  0.07374  0.17004  1.0000
  C   C1044     1.0  0.26175  0.01077  0.40829  1.0000
  C   C1045     1.0  0.39353  0.08016  0.35050  1.0000
  C   C1046     1.0  0.32538  0.04219  0.19597  1.0000
  H   H827      1.0  0.47379  0.09482  0.13761  1.0000
  H   H828      1.0  0.40365  0.03660  0.05670  1.0000
  S   S148      1.0  0.26923  0.18845  0.41217  1.0000
  H   H829      1.0  0.26137  0.07770  0.00896  1.0000
  C   C1047     1.0  0.45705  0.05110  0.08759  1.0000
  C   C1048     1.0  0.45766  0.07242  0.07905  1.0000
  C   C1049     1.0  0.46021  0.11837  0.05114  1.0000
  C   C1050     1.0  0.43945  0.11783  0.03920  1.0000
  C   C1051     1.0  0.43693  0.11866  0.01152  1.0000
  C   C1052     1.0  0.45515  0.12008  0.99544  1.0000
  C   C1053     1.0  0.47587  0.12094  0.00712  1.0000
  C   C1054     1.0  0.47844  0.12011  0.03488  1.0000
  H   H830      1.0  0.45196  0.03893  0.07379  1.0000
  H   H831      1.0  0.45291  0.07627  0.05866  1.0000
  H   H832      1.0  0.42518  0.11638  0.05131  1.0000
  H   H833      1.0  0.42084  0.11764  0.00260  1.0000
  H   H834      1.0  0.27306  0.19060  0.18310  1.0000
  H   H835      1.0  0.34719  0.08941  0.42220  1.0000
  H   H836      1.0  0.32638  0.32775  0.30671  1.0000
  H   H837      1.0  0.33246  0.07446  0.05940  1.0000
  H   H838      1.0  0.43915  0.15808  0.07246  1.0000
  C   C1055     1.0  0.32204  0.31447  0.29408  1.0000
  H   H839      1.0  0.40419  0.11207  0.44084  1.0000
  H   H840      1.0  0.37001  0.09956  0.45768  1.0000
  H   H841      1.0  0.50975  0.16959  0.12628  1.0000
  C   C1056     1.0  0.30158  0.31590  0.28125  1.0000
  C   C1057     1.0  0.40519  0.03718  0.09963  1.0000
  C   C1058     1.0  0.42943  0.12551  0.12439  1.0000
  H   H842      1.0  0.27598  0.02307  0.00256  1.0000
  C   C1059     1.0  0.26201  0.19224  0.99269  1.0000
  C   C1060     1.0  0.32321  0.13283  0.37511  1.0000
  C   C1061     1.0  0.31219  0.15370  0.37500  1.0000
  C   C1062     1.0  0.29783  0.16004  0.35405  1.0000
  C   C1063     1.0  0.29408  0.14543  0.33346  1.0000
  C   C1064     1.0  0.30461  0.12425  0.33373  1.0000
  C   C1065     1.0  0.31952  0.11815  0.35453  1.0000
  P   P34       1.0  0.29919  0.10547  0.30721  1.0000
  C   C1066     1.0  0.27293  0.03519  0.04318  1.0000
  C   C1067     1.0  0.30087  0.11915  0.27582  1.0000
  C   C1068     1.0  0.28543  0.11671  0.25530  1.0000
  C   C1069     1.0  0.28734  0.12681  0.23083  1.0000
  C   C1070     1.0  0.30438  0.13962  0.22669  1.0000
  C   C1071     1.0  0.31966  0.14230  0.24702  1.0000
  C   C1072     1.0  0.31792  0.13220  0.27156  1.0000
  C   C1073     1.0  0.29413  0.01039  0.19157  1.0000
  Fe  Fe83      1.0  0.40930  0.06039  0.00522  1.0000
  P   P35       1.0  0.46294  0.11646  0.08702  1.0000
  C   C1074     1.0  0.27474  0.30625  0.10129  1.0000
  H   H843      1.0  0.51012  0.02212  0.34980  1.0000
  C   C1075     1.0  0.31899  0.08190  0.30868  1.0000
  C   C1076     1.0  0.33646  0.07913  0.29082  1.0000
  C   C1077     1.0  0.35113  0.06043  0.29170  1.0000
  C   C1078     1.0  0.34903  0.04472  0.31100  1.0000
  C   C1079     1.0  0.33178  0.04739  0.32901  1.0000
  C   C1080     1.0  0.31668  0.06585  0.32773  1.0000
  H   H844      1.0  0.33478  0.12811  0.39105  1.0000
  H   H845      1.0  0.31484  0.16511  0.39101  1.0000
  H   H846      1.0  0.28958  0.17636  0.35381  1.0000
  H   H847      1.0  0.28298  0.15071  0.31726  1.0000
  H   H848      1.0  0.32857  0.10227  0.35486  1.0000
  C   C1081     1.0  0.32382  0.07830  0.44939  1.0000
  H   H849      1.0  0.27557  0.12480  0.21506  1.0000
  H   H850      1.0  0.30563  0.14760  0.20776  1.0000
  H   H851      1.0  0.33299  0.15209  0.24364  1.0000
  H   H852      1.0  0.33000  0.13441  0.28705  1.0000
  H   H853      1.0  0.28943  0.27999  0.04352  1.0000
  C   C1082     1.0  0.47272  0.03495  0.28786  1.0000
  H   H854      1.0  0.46015  0.02949  0.12104  1.0000
  C   C1083     1.0  0.43152  0.15226  0.08997  1.0000
  H   H855      1.0  0.50306  0.11896  0.28319  1.0000
  H   H856      1.0  0.33909  0.09136  0.27634  1.0000
  H   H857      1.0  0.36452  0.05841  0.27775  1.0000
  H   H858      1.0  0.33031  0.03522  0.34404  1.0000
  H   H859      1.0  0.30334  0.06776  0.34176  1.0000
  C   C1084     1.0  0.46179  0.04575  0.11415  1.0000
  H   H860      1.0  0.29013  0.33024  0.28409  1.0000
  S   S149      1.0  0.39208  0.07713  0.40504  1.0000
  H   H861      1.0  0.30417  0.08242  0.99760  1.0000
  Fe  Fe84      1.0  0.40572  0.05921  0.44191  1.0000
  C   C1085     1.0  0.32362  0.07784  0.21690  1.0000
  H   H862      1.0  0.43502  0.11037  0.13382  1.0000
  C   C1086     1.0  0.27867  0.11632  0.06504  1.0000
  H   H863      1.0  0.33195  0.04159  0.15380  1.0000
  C   C1087     1.0  0.34812  0.05478  0.09029  1.0000
  C   C1088     1.0  0.32988  0.05151  0.17156  1.0000
  H   H864      1.0  0.30432  0.01498  0.07656  1.0000
  S   S150      1.0  0.40568  0.03762  0.15416  1.0000
  H   H865      1.0  0.47427  0.15695  0.11297  1.0000
  Fe  Fe85      1.0  0.44794  0.03835  0.97496  1.0000
  S   S151      1.0  0.48515  0.03211  0.97742  1.0000
  H   H866      1.0  0.29849  0.08901  0.08072  1.0000
  C   C1089     1.0  0.32195  0.05557  0.21861  1.0000
  S   S152      1.0  0.40681  0.03886  0.28760  1.0000
  H   H867      1.0  0.36587  0.01876  0.17502  1.0000
  H   H868      1.0  0.40640  0.17927  0.09088  1.0000
  C   C1090     1.0  0.46921  0.08273  0.12339  1.0000
  C   C1091     1.0  0.50001  0.07158  0.21443  1.0000
  C   C1092     1.0  0.28288  0.26164  0.00778  1.0000
  S   S153      1.0  0.43104  0.07205  0.97400  1.0000
  C   C1093     1.0  0.26844  0.07645  0.29637  1.0000
  H   H869      1.0  0.28402  0.01565  0.23254  1.0000
  H   H870      1.0  0.48996  0.12203  0.99457  1.0000
  C   C1094     1.0  0.39712  0.07210  0.32440  1.0000
  S   S154      1.0  0.27013  0.18656  0.28020  1.0000
  C   C1095     1.0  0.33129  0.02488  0.98048  1.0000
  C   C1096     1.0  0.31849  0.23278  0.02502  1.0000
  P   P36       1.0  0.32271  0.01355  0.19807  1.0000
  C   C1097     1.0  0.28470  0.11637  0.15560  1.0000
  H   H871      1.0  0.38822  0.16623  0.13073  1.0000
  H   H872      1.0  0.47145  0.05741  0.15266  1.0000
  C   C1098     1.0  0.34869  0.03541  0.10430  1.0000
  H   H873      1.0  0.47980  0.04729  0.20023  1.0000
  C   C1099     1.0  0.26684  0.25173  0.43993  1.0000
  C   C1100     1.0  0.41301  0.16437  0.10038  1.0000
  C   C1101     1.0  0.33182  0.05993  0.07108  1.0000
  H   H874      1.0  0.33202  0.22154  0.03189  1.0000
  C   C1102     1.0  0.46355  0.08847  0.09699  1.0000
  C   C1103     1.0  0.40773  0.03646  0.34221  1.0000
  C   C1104     1.0  0.46801  0.06152  0.13200  1.0000
  C   C1105     1.0  0.31512  0.04631  0.06680  1.0000
  C   C1106     1.0  0.39746  0.06651  0.37260  1.0000
  H   H875      1.0  0.31813  0.04881  0.23759  1.0000
  C   C1107     1.0  0.40465  0.05014  0.12274  1.0000
  C   C1108     1.0  0.49635  0.05145  0.20321  1.0000
  H   H876      1.0  0.41300  0.01948  0.33913  1.0000
  C   C1109     1.0  0.28169  0.08049  0.04419  1.0000
  C   C1110     1.0  0.39496  0.12139  0.45609  1.0000
  H   H877      1.0  0.35235  0.29467  0.30139  1.0000
  H   H878      1.0  0.28530  0.08199  0.16165  1.0000
  C   C1111     1.0  0.49394  0.04138  0.28847  1.0000
  H   H879      1.0  0.32130  0.08815  0.23432  1.0000
  S   S155      1.0  0.43502  0.04811  0.22180  1.0000
  C   C1112     1.0  0.40379  0.04673  0.07433  1.0000
  H   H880      1.0  0.26543  0.26598  0.33744  1.0000
  H   H881      1.0  0.40788  0.03397  0.38513  1.0000
  H   H882      1.0  0.29755  0.30453  0.99015  1.0000
  H   H883      1.0  0.51018  0.06341  0.35947  1.0000
  H   H884      1.0  0.36040  0.02231  0.23122  1.0000
  H   H885      1.0  0.36068  0.06558  0.09377  1.0000
  H   H886      1.0  0.27163  0.30319  0.16903  1.0000
  H   H887      1.0  0.27480  0.26305  0.28834  1.0000
  H   H888      1.0  0.28064  0.23845  0.97523  1.0000
  C   C1113     1.0  0.50734  0.08977  0.45528  1.0000
  H   H889      1.0  0.27005  0.23429  0.43751  1.0000
  H   H890      1.0  0.29794  0.00633  0.14881  1.0000
  C   C1114     1.0  0.50933  0.15374  0.11709  1.0000
  C   C1115     1.0  0.27036  0.32015  0.34651  1.0000
  H   H891      1.0  0.28935  0.19405  0.46341  1.0000
  H   H892      1.0  0.47239  0.01138  0.34869  1.0000
  H   H893      1.0  0.31156  0.21351  0.99056  1.0000
  C   C1116     1.0  0.50740  0.03747  0.31114  1.0000
  H   H894      1.0  0.50178  0.08384  0.30515  1.0000
  C   C1117     1.0  0.26629  0.11229  0.39125  1.0000
  H   H895      1.0  0.33353  0.00590  0.10964  1.0000
  C   C1118     1.0  0.50174  0.05244  0.96788  1.0000
  H   H896      1.0  0.26537  0.04374  0.08412  1.0000
  C   C1119     1.0  0.50826  0.11271  0.09374  1.0000
  C   C1120     1.0  0.49794  0.01050  0.05202  1.0000
  H   H897      1.0  0.26726  0.24505  0.20555  1.0000
  H   H898      1.0  0.28222  0.10341  0.45193  1.0000
  C   C1121     1.0  0.37548  0.11447  0.46541  1.0000
  C   C1122     1.0  0.27035  0.26156  0.46464  1.0000
  H   H899      1.0  0.34658  0.22014  0.45453  1.0000
  C   C1123     1.0  0.26249  0.19152  0.20012  1.0000
  C   C1124     1.0  0.27682  0.33767  0.44495  1.0000
  C   C1125     1.0  0.40278  0.14006  0.46682  1.0000
  H   H900      1.0  0.32991  0.08713  0.46623  1.0000
  C   C1126     1.0  0.50088  0.05281  0.46653  1.0000
  Fe  Fe86      1.0  0.44032  0.10059  0.72195  1.0000
  S   S156      1.0  0.47330  0.11422  0.72325  1.0000
  Fe  Fe87      1.0  0.39083  0.11160  0.71842  1.0000
  S   S157      1.0  0.38430  0.07663  0.71977  1.0000
  S   S158      1.0  0.36113  0.13634  0.71742  1.0000
  Fe  Fe88      1.0  0.40998  0.07364  0.75229  1.0000
  C   C1127     1.0  0.28799  0.27418  0.76580  1.0000
  S   S159      1.0  0.41469  0.10906  0.75320  1.0000
  S   S160      1.0  0.41692  0.10676  0.68732  1.0000
  H   H901      1.0  0.28564  0.19072  0.96106  1.0000
  H   H902      1.0  0.32023  0.22410  0.68093  1.0000
  S   S161      1.0  0.27332  0.26854  0.58126  1.0000
  Fe  Fe89      1.0  0.29212  0.19076  0.60202  1.0000
  H   H903      1.0  0.50130  0.09640  0.85664  1.0000
  S   S162      1.0  0.32632  0.17383  0.60588  1.0000
  H   H904      1.0  0.27809  0.06175  0.89996  1.0000
  C   C1128     1.0  0.45419  0.09429  0.90703  1.0000
  H   H905      1.0  0.33373  0.23578  0.63761  1.0000
  C   C1129     1.0  0.41081  0.05361  0.57539  1.0000
  S   S163      1.0  0.28240  0.20857  0.56435  1.0000
  S   S164      1.0  0.27860  0.21784  0.62869  1.0000
  S   S165      1.0  0.38271  0.05321  0.47476  1.0000
  H   H906      1.0  0.31713  0.12027  0.66724  1.0000
  H   H907      1.0  0.39393  0.13231  0.54021  1.0000
  C   C1130     1.0  0.47709  0.11492  0.88038  1.0000
  H   H908      1.0  0.39735  0.16629  0.49504  1.0000
  H   H909      1.0  0.31484  0.05921  0.74940  1.0000
  H   H910      1.0  0.27859  0.32346  0.72453  1.0000
  C   C1131     1.0  0.26128  0.14957  0.73860  1.0000
  H   H911      1.0  0.41809  0.13321  0.57953  1.0000
  P   P37       1.0  0.29373  0.06391  0.48450  1.0000
  C   C1132     1.0  0.27440  0.08777  0.48874  1.0000
  C   C1133     1.0  0.46819  0.02327  0.67101  1.0000
  H   H912      1.0  0.28486  0.30039  0.83532  1.0000
  H   H913      1.0  0.41938  0.02880  0.60454  1.0000
  P   P38       1.0  0.26467  0.28751  0.69031  1.0000
  Fe  Fe90      1.0  0.40125  0.02024  0.47742  1.0000
  C   C1134     1.0  0.29605  0.01103  0.73167  1.0000
  C   C1135     1.0  0.33236  0.14852  0.53153  1.0000
  H   H914      1.0  0.46316  0.02375  0.84680  1.0000
  H   H915      1.0  0.44065  0.09372  0.92060  1.0000
  H   H916      1.0  0.34862  0.12062  0.49229  1.0000
  H   H917      1.0  0.27669  0.31351  0.57306  1.0000
  H   H918      1.0  0.26217  0.07709  0.52613  1.0000
  C   C1136     1.0  0.40290  0.07525  0.57101  1.0000
  H   H919      1.0  0.28520  0.14511  0.70749  1.0000
  Fe  Fe91      1.0  0.41188  0.07162  0.69082  1.0000
  C   C1137     1.0  0.35146  0.19473  0.48368  1.0000
  H   H920      1.0  0.27197  0.20162  0.68232  1.0000
  C   C1138     1.0  0.26985  0.33140  0.77896  1.0000
  H   H921      1.0  0.28014  0.31735  0.78596  1.0000
  H   H922      1.0  0.28696  0.20540  0.72815  1.0000
  H   H923      1.0  0.45495  0.05728  0.62178  1.0000
  C   C1139     1.0  0.33846  0.09060  0.67038  1.0000
  C   C1140     1.0  0.47534  0.02889  0.55081  1.0000
  H   H924      1.0  0.39013  0.10382  0.86000  1.0000
  C   C1141     1.0  0.49472  0.07395  0.71246  1.0000
  P   P39       1.0  0.49607  0.02970  0.62850  1.0000
  C   C1142     1.0  0.46703  0.06722  0.62994  1.0000
  C   C1143     1.0  0.35177  0.14702  0.68641  1.0000
  C   C1144     1.0  0.36290  0.14106  0.66290  1.0000
  C   C1145     1.0  0.35486  0.14935  0.63834  1.0000
  C   C1146     1.0  0.33558  0.16357  0.63707  1.0000
  C   C1147     1.0  0.32432  0.16947  0.66053  1.0000
  C   C1148     1.0  0.33251  0.16134  0.68517  1.0000
  H   H925      1.0  0.37770  0.13005  0.66359  1.0000
  H   H926      1.0  0.36358  0.14468  0.62025  1.0000
  H   H927      1.0  0.30949  0.18051  0.65972  1.0000
  H   H928      1.0  0.32390  0.16619  0.70327  1.0000
  C   C1149     1.0  0.40003  0.08086  0.61916  1.0000
  C   C1150     1.0  0.39733  0.08879  0.59302  1.0000
  H   H929      1.0  0.39564  0.09141  0.63596  1.0000
  H   H930      1.0  0.39069  0.10541  0.58989  1.0000
  S   S166      1.0  0.39938  0.08569  0.53840  1.0000
  H   H931      1.0  0.39510  0.09308  0.81238  1.0000
  H   H932      1.0  0.32927  0.08675  0.56860  1.0000
  H   H933      1.0  0.31283  0.15927  0.49694  1.0000
  C   C1151     1.0  0.31310  0.15105  0.51590  1.0000
  C   C1152     1.0  0.32321  0.06047  0.69149  1.0000
  C   C1153     1.0  0.35360  0.02407  0.71231  1.0000
  C   C1154     1.0  0.30760  0.02941  0.72969  1.0000
  C   C1155     1.0  0.46860  0.01819  0.86631  1.0000
  C   C1156     1.0  0.29542  0.06109  0.89579  1.0000
  H   H934      1.0  0.27863  0.01029  0.54934  1.0000
  C   C1157     1.0  0.50821  0.10686  0.79591  1.0000
  H   H935      1.0  0.27301  0.25755  0.79715  1.0000
  H   H936      1.0  0.35839  0.05869  0.88628  1.0000
  C   C1158     1.0  0.48839  0.09565  0.87103  1.0000
  P   P40       1.0  0.29381  0.01708  0.88320  1.0000
  H   H937      1.0  0.41245  0.16338  0.61257  1.0000
  H   H938      1.0  0.51050  0.07972  0.51362  1.0000
  C   C1159     1.0  0.26516  0.18895  0.49291  1.0000
  C   C1160     1.0  0.32993  0.04088  0.88413  1.0000
  H   H939      1.0  0.29728  0.09469  0.90670  1.0000
  C   C1161     1.0  0.40539  0.14642  0.57623  1.0000
  H   H940      1.0  0.33323  0.14379  0.89383  1.0000
  C   C1162     1.0  0.31330  0.01174  0.83301  1.0000
  C   C1163     1.0  0.34239  0.21486  0.47416  1.0000
  C   C1164     1.0  0.26180  0.09604  0.78871  1.0000
  C   C1165     1.0  0.41325  0.04559  0.60143  1.0000
  H   H941      1.0  0.28924  0.06679  0.70269  1.0000
  H   H942      1.0  0.41490  0.04290  0.55879  1.0000
  C   C1166     1.0  0.50918  0.09171  0.55430  1.0000
  H   H943      1.0  0.35615  0.05943  0.67578  1.0000
  H   H944      1.0  0.31040  0.23132  0.52686  1.0000
  C   C1167     1.0  0.34072  0.05946  0.88841  1.0000
  C   C1168     1.0  0.48621  0.01469  0.65587  1.0000
  H   H945      1.0  0.47802  0.15820  0.82874  1.0000
  S   S167      1.0  0.48312  0.03248  0.47290  1.0000
  C   C1169     1.0  0.34600  0.18771  0.50908  1.0000
  C   C1170     1.0  0.28099  0.02421  0.77389  1.0000
  H   H946      1.0  0.30351  0.04193  0.65023  1.0000
  C   C1171     1.0  0.33227  0.04183  0.96262  1.0000
  C   C1172     1.0  0.33210  0.13810  0.55618  1.0000
  H   H947      1.0  0.46083  0.05981  0.90534  1.0000
  H   H948      1.0  0.50900  0.10298  0.66158  1.0000
  C   C1173     1.0  0.26113  0.20204  0.69914  1.0000
  H   H949      1.0  0.31462  0.02897  0.83332  1.0000
  C   C1174     1.0  0.28569  0.28201  0.73978  1.0000
  H   H950      1.0  0.34775  0.02735  0.75482  1.0000
  C   C1175     1.0  0.36976  0.01874  0.69307  1.0000
  C   C1176     1.0  0.49119  0.02030  0.90607  1.0000
  H   H951      1.0  0.28565  0.10501  0.68805  1.0000
  C   C1177     1.0  0.28665  0.27119  0.67356  1.0000
  C   C1178     1.0  0.29425  0.27748  0.64884  1.0000
  C   C1179     1.0  0.31128  0.26483  0.63608  1.0000
  H   H952      1.0  0.36101  0.05905  0.56484  1.0000
  C   C1180     1.0  0.31328  0.23924  0.67227  1.0000
  C   C1181     1.0  0.29607  0.25170  0.68493  1.0000
  S   S168      1.0  0.26168  0.19507  0.91175  1.0000
  C   C1182     1.0  0.36345  0.12647  0.48501  1.0000
  C   C1183     1.0  0.47449  0.12908  0.80603  1.0000
  H   H953      1.0  0.27107  0.04648  0.57077  1.0000
  C   C1184     1.0  0.27371  0.32974  0.70519  1.0000
  H   H954      1.0  0.27612  0.19110  0.50957  1.0000
  H   H955      1.0  0.38585  0.01635  0.76806  1.0000
  H   H956      1.0  0.31215  0.12495  0.58564  1.0000
  C   C1185     1.0  0.39728  0.01194  0.72787  1.0000
  C   C1186     1.0  0.46573  0.07499  0.89818  1.0000
  C   C1187     1.0  0.30627  0.07974  0.89987  1.0000
  H   H957      1.0  0.48483  0.05028  0.75476  1.0000
  H   H958      1.0  0.48154  0.13039  0.87366  1.0000
  H   H959      1.0  0.30313  0.27534  0.77689  1.0000
  H   H960      1.0  0.29937  0.28883  0.73072  1.0000
  C   C1188     1.0  0.26840  0.19284  0.96587  1.0000
  H   H961      1.0  0.28684  0.29182  0.63891  1.0000
  H   H962      1.0  0.31652  0.26951  0.61661  1.0000
  C   C1189     1.0  0.34070  0.06911  0.67899  1.0000
  H   H963      1.0  0.28995  0.24581  0.70334  1.0000
  C   C1190     1.0  0.26102  0.29109  0.91684  1.0000
  C   C1191     1.0  0.26653  0.31618  0.68495  1.0000
  S   S169      1.0  0.41181  0.04850  0.65576  1.0000
  C   C1192     1.0  0.50399  0.07154  0.64522  1.0000
  H   H964      1.0  0.26855  0.30878  0.95205  1.0000
  C   C1193     1.0  0.28249  0.14515  0.72878  1.0000
  C   C1194     1.0  0.48243  0.03589  0.57576  1.0000
  H   H965      1.0  0.35872  0.19263  0.56601  1.0000
  C   C1195     1.0  0.26817  0.30653  0.83989  1.0000
  H   H966      1.0  0.33754  0.09315  0.89978  1.0000
  C   C1196     1.0  0.30575  0.04510  0.75022  1.0000
  C   C1197     1.0  0.30319  0.07343  0.69422  1.0000
  H   H967      1.0  0.27790  0.13047  0.55836  1.0000
  C   C1198     1.0  0.47557  0.10155  0.64873  1.0000
  H   H968      1.0  0.26618  0.05029  0.85315  1.0000
  C   C1199     1.0  0.39095  0.15199  0.48660  1.0000
  C   C1200     1.0  0.48539  0.11077  0.79394  1.0000
  Fe  Fe92      1.0  0.40839  0.06350  0.50316  1.0000
  C   C1201     1.0  0.46041  0.08862  0.63746  1.0000
  S   S170      1.0  0.40903  0.05110  0.78757  1.0000
  H   H969      1.0  0.28083  0.09812  0.75325  1.0000
  C   C1202     1.0  0.49676  0.09567  0.71864  1.0000
  C   C1203     1.0  0.32891  0.07892  0.89608  1.0000
  C   C1204     1.0  0.50619  0.08836  0.95097  1.0000
  C   C1205     1.0  0.47727  0.08637  0.52644  1.0000
  C   C1206     1.0  0.46339  0.09378  0.54711  1.0000
  C   C1207     1.0  0.47227  0.10030  0.57130  1.0000
  C   C1208     1.0  0.49505  0.09909  0.57505  1.0000
  C   C1209     1.0  0.32091  0.24583  0.64786  1.0000
  Fe  Fe93      1.0  0.40812  0.05891  0.94396  1.0000
  C   C1210     1.0  0.40157  0.07226  0.87528  1.0000
  H   H970      1.0  0.38252  0.19285  0.60550  1.0000
  H   H971      1.0  0.41359  0.03924  0.88398  1.0000
  C   C1211     1.0  0.37493  0.16288  0.54930  1.0000
  C   C1212     1.0  0.33087  0.20097  0.52432  1.0000
  H   H972      1.0  0.47035  0.08120  0.50773  1.0000
  H   H973      1.0  0.44574  0.09442  0.54437  1.0000
  H   H974      1.0  0.46141  0.10618  0.58718  1.0000
  H   H975      1.0  0.48766  0.05200  0.57778  1.0000
  C   C1213     1.0  0.48645  0.14373  0.81988  1.0000
  P   P41       1.0  0.35619  0.16109  0.52128  1.0000
  C   C1214     1.0  0.48309  0.07553  0.88026  1.0000
  C   C1215     1.0  0.30033  0.14180  0.74643  1.0000
  C   C1216     1.0  0.29718  0.14356  0.77407  1.0000
  H   H976      1.0  0.36234  0.18471  0.47086  1.0000
  P   P42       1.0  0.32068  0.13986  0.79631  1.0000
  C   C1217     1.0  0.32861  0.11102  0.79800  1.0000
  C   C1218     1.0  0.34220  0.15465  0.78384  1.0000
  C   C1219     1.0  0.36427  0.14800  0.78996  1.0000
  C   C1220     1.0  0.38088  0.15962  0.78037  1.0000
  C   C1221     1.0  0.37556  0.17814  0.76502  1.0000
  C   C1222     1.0  0.35360  0.18528  0.75965  1.0000
  C   C1223     1.0  0.33695  0.17372  0.76922  1.0000
  C   C1224     1.0  0.34405  0.10082  0.78033  1.0000
  C   C1225     1.0  0.35121  0.07879  0.78317  1.0000
  C   C1226     1.0  0.34270  0.06672  0.80318  1.0000
  C   C1227     1.0  0.32653  0.07652  0.81996  1.0000
  C   C1228     1.0  0.31936  0.09853  0.81725  1.0000
  C   C1229     1.0  0.31591  0.15124  0.82928  1.0000
  C   C1230     1.0  0.32750  0.14191  0.85139  1.0000
  C   C1231     1.0  0.32425  0.15100  0.87685  1.0000
  C   C1232     1.0  0.30986  0.16974  0.88032  1.0000
  C   C1233     1.0  0.29903  0.17961  0.85829  1.0000
  C   C1234     1.0  0.30225  0.17059  0.83282  1.0000
  C   C1235     1.0  0.29017  0.01933  0.49064  1.0000
  H   H977      1.0  0.45969  0.03900  0.66681  1.0000
  H   H978      1.0  0.41418  0.00771  0.73394  1.0000
  H   H979      1.0  0.31670  0.13854  0.73849  1.0000
  C   C1236     1.0  0.46072  0.01148  0.69202  1.0000
  H   H980      1.0  0.36870  0.13374  0.80189  1.0000
  H   H981      1.0  0.39790  0.15409  0.78446  1.0000
  H   H982      1.0  0.38845  0.18686  0.75712  1.0000
  H   H983      1.0  0.34945  0.19961  0.74774  1.0000
  H   H984      1.0  0.32001  0.17966  0.76504  1.0000
  H   H985      1.0  0.35098  0.10995  0.76479  1.0000
  H   H986      1.0  0.36390  0.07117  0.77039  1.0000
  H   H987      1.0  0.34898  0.04988  0.80586  1.0000
  H   H988      1.0  0.32000  0.06727  0.83557  1.0000
  H   H989      1.0  0.30709  0.10597  0.83072  1.0000
  H   H990      1.0  0.33939  0.12790  0.84900  1.0000
  C   C1237     1.0  0.26283  0.01495  0.55831  1.0000
  C   C1238     1.0  0.30831  0.02469  0.65137  1.0000
  H   H991      1.0  0.28832  0.19445  0.86096  1.0000
  H   H992      1.0  0.29431  0.17894  0.81591  1.0000
  C   C1239     1.0  0.29258  0.04243  0.77226  1.0000
  C   C1240     1.0  0.47321  0.05787  0.82036  1.0000
  C   C1241     1.0  0.32771  0.22809  0.48976  1.0000
  C   C1242     1.0  0.31252  0.13149  0.56574  1.0000
  C   C1243     1.0  0.48874  0.05832  0.63445  1.0000
  H   H993      1.0  0.50334  0.02790  0.91779  1.0000
  H   H994      1.0  0.44671  0.01824  0.70336  1.0000
  H   H995      1.0  0.47616  0.10000  0.78215  1.0000
  C   C1244     1.0  0.49407  0.05184  0.83149  1.0000
  C   C1245     1.0  0.29325  0.13470  0.55048  1.0000
  H   H996      1.0  0.36414  0.03426  0.52584  1.0000
  C   C1246     1.0  0.32195  0.22114  0.51483  1.0000
  H   H997      1.0  0.29149  0.05440  0.78817  1.0000
  S   S171      1.0  0.42591  0.03021  0.50741  1.0000
  H   H998      1.0  0.33599  0.03708  0.49050  1.0000
  C   C1247     1.0  0.48502  0.02791  0.88054  1.0000
  S   S172      1.0  0.26714  0.20569  0.77973  1.0000
  H   H999      1.0  0.35218  0.09725  0.66114  1.0000
  H   H1000     1.0  0.36573  0.01954  0.67198  1.0000
  H   H1001     1.0  0.45372  0.06138  0.78438  1.0000
  S   S173      1.0  0.42629  0.02557  0.94287  1.0000
  C   C1248     1.0  0.39927  0.08136  0.82791  1.0000
  C   C1249     1.0  0.34993  0.04608  0.52767  1.0000
  C   C1250     1.0  0.34818  0.06005  0.54967  1.0000
  C   C1251     1.0  0.33020  0.07565  0.55176  1.0000
  C   C1252     1.0  0.31375  0.07709  0.53204  1.0000
  C   C1253     1.0  0.31517  0.06285  0.50995  1.0000
  C   C1254     1.0  0.33372  0.04766  0.50772  1.0000
  H   H1002     1.0  0.45929  0.06258  0.83302  1.0000
  C   C1255     1.0  0.41211  0.04491  0.84151  1.0000
  H   H1003     1.0  0.29640  0.01863  0.61157  1.0000
  C   C1256     1.0  0.31870  0.10357  0.67383  1.0000
  S   S174      1.0  0.43704  0.06495  0.72332  1.0000
  C   C1257     1.0  0.26454  0.02152  0.87687  1.0000
  P   P43       1.0  0.49738  0.05077  0.86730  1.0000
  H   H1004     1.0  0.45681  0.13213  0.80406  1.0000
  C   C1258     1.0  0.39643  0.08739  0.85489  1.0000
  S   S175      1.0  0.26208  0.17286  0.60196  1.0000
  H   H1005     1.0  0.47880  0.06854  0.70923  1.0000
  C   C1259     1.0  0.46896  0.00800  0.54765  1.0000
  S   S176      1.0  0.39635  0.08017  0.90877  1.0000
  C   C1260     1.0  0.40966  0.05104  0.86848  1.0000
  H   H1006     1.0  0.47029  0.11791  0.65548  1.0000
  H   H1007     1.0  0.49891  0.10387  0.94377  1.0000
  C   C1261     1.0  0.29364  0.14415  0.52540  1.0000
  H   H1008     1.0  0.44338  0.09500  0.63504  1.0000
  C   C1262     1.0  0.40804  0.05920  0.62341  1.0000
  C   C1263     1.0  0.40690  0.06000  0.82113  1.0000
  H   H1009     1.0  0.41795  0.02835  0.83642  1.0000
  H   H1010     1.0  0.27861  0.14714  0.51389  1.0000
  C   C1264     1.0  0.48754  0.05106  0.77606  1.0000
  P   P44       1.0  0.32567  0.03251  0.70203  1.0000
  C   C1265     1.0  0.30101  0.09496  0.68565  1.0000
  H   H1011     1.0  0.34659  0.13625  0.56886  1.0000
  C   C1266     1.0  0.38549  0.18005  0.59071  1.0000
  H   H1012     1.0  0.32573  0.19555  0.54349  1.0000
  C   C1267     1.0  0.30420  0.01158  0.62937  1.0000
  C   C1268     1.0  0.37191  0.17985  0.56809  1.0000
  H   H1013     1.0  0.30030  0.08958  0.53406  1.0000
  C   C1269     1.0  0.39167  0.14603  0.55377  1.0000
  C   C1270     1.0  0.40225  0.16338  0.59477  1.0000
  C   C1271     1.0  0.27575  0.14746  0.78381  1.0000
  C   C1272     1.0  0.46995  0.05716  0.79279  1.0000
  C   C1273     1.0  0.50002  0.08548  0.52992  1.0000
  C   C1274     1.0  0.37098  0.14552  0.49546  1.0000
  C   C1275     1.0  0.27900  0.03995  0.48612  1.0000
  C   C1276     1.0  0.35959  0.02319  0.73944  1.0000
  H   H1014     1.0  0.34160  0.03909  0.94450  1.0000
  H   H1015     1.0  0.47494  0.03955  0.53377  1.0000
  C   C1277     1.0  0.48329  0.02195  0.59771  1.0000
  C   C1278     1.0  0.49741  0.09312  0.65216  1.0000
  C   C1279     1.0  0.49258  0.07260  0.95865  1.0000
  H   H1016     1.0  0.32067  0.24366  0.48236  1.0000
  C   C1280     1.0  0.45994  0.11423  0.89831  1.0000
  H   H1017     1.0  0.45098  0.12912  0.90532  1.0000
  H   H1018     1.0  0.30736  0.17692  0.89999  1.0000
  C   C1281     1.0  0.30710  0.04167  0.88708  1.0000
  C   C1282     1.0  0.26962  0.20414  0.72515  1.0000
  H   H1019     1.0  0.50134  0.10379  0.59420  1.0000
  H   H1020     1.0  0.33952  0.02581  0.87889  1.0000
  H   H1021     1.0  0.30772  0.01707  0.49332  1.0000
  H   H1022     1.0  0.27209  0.10560  0.80074  1.0000
  H   H1023     1.0  0.27271  0.14863  0.80497  1.0000
  C   C1283     1.0  0.28281  0.00852  0.75366  1.0000
  H   H1024     1.0  0.32743  0.00733  0.79390  1.0000
  C   C1284     1.0  0.27214  0.10423  0.46949  1.0000
  C   C1285     1.0  0.26674  0.09174  0.76197  1.0000
  H   H1025     1.0  0.27628  0.25170  0.48144  1.0000
  H   H1026     1.0  0.27103  0.02188  0.79112  1.0000
  Fe  Fe94      1.0  0.26610  0.23445  0.59113  1.0000
  C   C1286     1.0  0.39149  0.01275  0.70086  1.0000
  C   C1287     1.0  0.27098  0.26430  0.77734  1.0000
  C   C1288     1.0  0.38129  0.01694  0.74712  1.0000
  H   H1027     1.0  0.32422  0.07589  0.95576  1.0000
  C   C1289     1.0  0.31896  0.01556  0.67418  1.0000
  H   H1028     1.0  0.27061  0.01337  0.93397  1.0000
  C   C1290     1.0  0.26314  0.32871  0.84542  1.0000
  C   C1291     1.0  0.50931  0.14002  0.82168  1.0000
  H   H1029     1.0  0.26394  0.11043  0.86915  1.0000
  C   C1292     1.0  0.26624  0.28016  0.72514  1.0000
  H   H1030     1.0  0.47501  0.07606  0.95736  1.0000
  S   S177      1.0  0.42958  0.07335  0.47009  1.0000
  H   H1031     1.0  0.26599  0.30329  0.90345  1.0000
  Fe  Fe95      1.0  0.44577  0.03936  0.47244  1.0000
  H   H1032     1.0  0.40393  0.00916  0.68584  1.0000
  C   C1293     1.0  0.50855  0.04603  0.78682  1.0000
  H   H1033     1.0  0.26347  0.14574  0.89333  1.0000
  C   C1294     1.0  0.26089  0.31209  0.58186  1.0000
  H   H1034     1.0  0.26917  0.29147  0.48690  1.0000
  C   C1295     1.0  0.26246  0.29410  0.94447  1.0000
  C   C1296     1.0  0.26082  0.08963  0.51115  1.0000
  C   C1297     1.0  0.26603  0.28407  0.46774  1.0000
  H   H1035     1.0  0.28418  0.66988  0.28593  1.0000
  Fe  Fe96      1.0  0.41729  0.60343  0.20313  1.0000
  S   S178      1.0  0.40652  0.56990  0.20204  1.0000
  S   S179      1.0  0.45187  0.61102  0.19464  1.0000
  Fe  Fe97      1.0  0.37166  0.62411  0.21666  1.0000
  S   S180      1.0  0.35728  0.59220  0.21665  1.0000
  H   H1036     1.0  0.26428  0.34057  0.10264  1.0000
  Fe  Fe98      1.0  0.38802  0.58040  0.23914  1.0000
  S   S181      1.0  0.38919  0.55688  0.27332  1.0000
  Fe  Fe99      1.0  0.37696  0.58477  0.17946  1.0000
  S   S182      1.0  0.36264  0.56663  0.14480  1.0000
  S   S183      1.0  0.40105  0.61292  0.24199  1.0000
  S   S184      1.0  0.38903  0.61767  0.17777  1.0000
  Fe  Fe100     1.0  0.28065  0.37556  0.34529  1.0000
  H   H1037     1.0  0.44794  0.62594  0.24780  1.0000
  Fe  Fe101     1.0  0.29610  0.42151  0.34816  1.0000
  H   H1038     1.0  0.42789  0.63827  0.28857  1.0000
  S   S185      1.0  0.32275  0.44486  0.34852  1.0000
  S   S186      1.0  0.40259  0.57883  0.45998  1.0000
  C   C1298     1.0  0.26835  0.47794  0.39436  1.0000
  C   C1299     1.0  0.26610  0.42021  0.23860  1.0000
  H   H1039     1.0  0.44748  0.58258  0.27109  1.0000
  S   S187      1.0  0.28958  0.39724  0.37935  1.0000
  S   S188      1.0  0.29114  0.39820  0.31394  1.0000
  C   C1300     1.0  0.27301  0.42089  0.21196  1.0000
  C   C1301     1.0  0.43445  0.63713  0.43811  1.0000
  H   H1040     1.0  0.33617  0.46397  0.97458  1.0000
  C   C1302     1.0  0.32074  0.65306  0.40188  1.0000
  S   S189      1.0  0.35495  0.56058  0.45327  1.0000
  C   C1303     1.0  0.27061  0.47223  0.28580  1.0000
  Fe  Fe102     1.0  0.38165  0.56869  0.42609  1.0000
  S   S190      1.0  0.37503  0.59182  0.39174  1.0000
  Fe  Fe103     1.0  0.37806  0.57309  0.98908  1.0000
  S   S191      1.0  0.37026  0.59554  0.02445  1.0000
  S   S192      1.0  0.39811  0.53475  0.42348  1.0000
  S   S193      1.0  0.39261  0.53852  0.99077  1.0000
  P   P45       1.0  0.29429  0.61915  0.40355  1.0000
  C   C1304     1.0  0.45990  0.53703  0.30772  1.0000
  H   H1041     1.0  0.43069  0.47747  0.39579  1.0000
  C   C1305     1.0  0.29890  0.66619  0.99402  1.0000
  P   P46       1.0  0.44028  0.63493  0.40299  1.0000
  C   C1306     1.0  0.28331  0.52508  0.07119  1.0000
  C   C1307     1.0  0.33299  0.40340  0.99069  1.0000
  C   C1308     1.0  0.31888  0.63193  0.41077  1.0000
  H   H1042     1.0  0.31980  0.36829  0.16818  1.0000
  H   H1043     1.0  0.41554  0.59169  0.04216  1.0000
  H   H1044     1.0  0.29119  0.61725  0.46121  1.0000
  C   C1309     1.0  0.34538  0.65397  0.10048  1.0000
  C   C1310     1.0  0.26758  0.50745  0.99914  1.0000
  C   C1311     1.0  0.30473  0.54532  0.41790  1.0000
  C   C1312     1.0  0.47988  0.62887  0.26507  1.0000
  H   H1045     1.0  0.44854  0.64765  0.32923  1.0000
  C   C1313     1.0  0.41495  0.63016  0.44758  1.0000
  C   C1314     1.0  0.28517  0.62222  0.36932  1.0000
  S   S194      1.0  0.27418  0.41354  0.02458  1.0000
  H   H1046     1.0  0.27598  0.40690  0.43194  1.0000
  H   H1047     1.0  0.41652  0.66724  0.11428  1.0000
  C   C1315     1.0  0.49529  0.66191  0.37900  1.0000
  C   C1316     1.0  0.28589  0.36665  0.15751  1.0000
  H   H1048     1.0  0.46080  0.66748  0.37094  1.0000
  H   H1049     1.0  0.48049  0.56647  0.11184  1.0000
  C   C1317     1.0  0.27831  0.62915  0.45411  1.0000
  C   C1318     1.0  0.33509  0.62203  0.42789  1.0000
  H   H1050     1.0  0.43354  0.60899  0.08027  1.0000
  H   H1051     1.0  0.29016  0.42190  0.20786  1.0000
  H   H1052     1.0  0.27789  0.42073  0.25479  1.0000
  C   C1319     1.0  0.33042  0.45981  0.37703  1.0000
  C   C1320     1.0  0.32456  0.45440  0.40278  1.0000
  C   C1321     1.0  0.33114  0.46648  0.42495  1.0000
  C   C1322     1.0  0.34361  0.48411  0.42174  1.0000
  C   C1323     1.0  0.34935  0.48966  0.39598  1.0000
  C   C1324     1.0  0.34284  0.47752  0.37379  1.0000
  H   H1053     1.0  0.31518  0.44074  0.40566  1.0000
  H   H1054     1.0  0.32677  0.46195  0.44479  1.0000
  H   H1055     1.0  0.35893  0.50317  0.39318  1.0000
  H   H1056     1.0  0.34745  0.48190  0.35403  1.0000
  C   C1325     1.0  0.37913  0.58197  0.35892  1.0000
  C   C1326     1.0  0.37581  0.59638  0.33753  1.0000
  C   C1327     1.0  0.37903  0.58894  0.31115  1.0000
  C   C1328     1.0  0.38551  0.56701  0.30607  1.0000
  C   C1329     1.0  0.38891  0.55265  0.32747  1.0000
  C   C1330     1.0  0.38560  0.56006  0.35379  1.0000
  H   H1057     1.0  0.37064  0.61331  0.34135  1.0000
  H   H1058     1.0  0.37625  0.60009  0.29476  1.0000
  H   H1059     1.0  0.39398  0.53569  0.32371  1.0000
  H   H1060     1.0  0.38805  0.54880  0.37003  1.0000
  C   C1331     1.0  0.36639  0.57412  0.11136  1.0000
  C   C1332     1.0  0.35858  0.56141  0.09065  1.0000
  C   C1333     1.0  0.36082  0.56709  0.06380  1.0000
  C   C1334     1.0  0.37023  0.58601  0.05752  1.0000
  C   C1335     1.0  0.37793  0.59881  0.07824  1.0000
  C   C1336     1.0  0.37633  0.59272  0.10503  1.0000
  H   H1061     1.0  0.35046  0.54729  0.09548  1.0000
  H   H1062     1.0  0.35455  0.55729  0.04802  1.0000
  H   H1063     1.0  0.38482  0.61368  0.07358  1.0000
  H   H1064     1.0  0.38223  0.60275  0.12077  1.0000
  H   H1065     1.0  0.36056  0.63484  0.27297  1.0000
  C   C1337     1.0  0.47269  0.59072  0.20399  1.0000
  C   C1338     1.0  0.49456  0.59315  0.19795  1.0000
  C   C1339     1.0  0.45734  0.64250  0.31133  1.0000
  Fe  Fe104     1.0  0.37250  0.52695  0.45257  1.0000
  C   C1340     1.0  0.48449  0.55591  0.22407  1.0000
  C   C1341     1.0  0.46773  0.57214  0.21726  1.0000
  C   C1342     1.0  0.48027  0.64095  0.31112  1.0000
  S   S195      1.0  0.26727  0.42269  0.15757  1.0000
  H   H1066     1.0  0.48047  0.54149  0.23411  1.0000
  H   H1067     1.0  0.45097  0.57014  0.22215  1.0000
  C   C1343     1.0  0.46827  0.64045  0.39771  1.0000
  C   C1344     1.0  0.26419  0.61686  0.36192  1.0000
  H   H1068     1.0  0.30614  0.34085  0.00531  1.0000
  H   H1069     1.0  0.44262  0.46730  0.34989  1.0000
  C   C1345     1.0  0.26536  0.34493  0.18608  1.0000
  H   H1070     1.0  0.32129  0.60808  0.08644  1.0000
  H   H1071     1.0  0.38372  0.64880  0.04260  1.0000
  C   C1346     1.0  0.28447  0.33961  0.20139  1.0000
  C   C1347     1.0  0.44964  0.48040  0.36034  1.0000
  H   H1072     1.0  0.30335  0.63423  0.30780  1.0000
  H   H1073     1.0  0.50376  0.65899  0.24266  1.0000
  H   H1074     1.0  0.29158  0.52936  0.98992  1.0000
  C   C1348     1.0  0.26352  0.63475  0.03058  1.0000
  C   C1349     1.0  0.38476  0.64683  0.02121  1.0000
  H   H1075     1.0  0.33424  0.54608  0.39537  1.0000
  C   C1350     1.0  0.34671  0.66194  0.07464  1.0000
  H   H1076     1.0  0.31585  0.63188  0.35444  1.0000
  H   H1077     1.0  0.47331  0.60039  0.08882  1.0000
  C   C1351     1.0  0.45696  0.63036  0.26540  1.0000
  H   H1078     1.0  0.27009  0.37459  0.97952  1.0000
  C   C1352     1.0  0.27144  0.62408  0.31570  1.0000
  H   H1079     1.0  0.30770  0.52807  0.42185  1.0000
  C   C1353     1.0  0.43444  0.58264  0.35370  1.0000
  C   C1354     1.0  0.43649  0.56522  0.37125  1.0000
  C   C1355     1.0  0.43990  0.56891  0.39841  1.0000
  C   C1356     1.0  0.44101  0.59001  0.40810  1.0000
  C   C1357     1.0  0.43841  0.60765  0.39071  1.0000
  C   C1358     1.0  0.43569  0.60374  0.36330  1.0000
  C   C1359     1.0  0.32780  0.62344  0.08318  1.0000
  C   C1360     1.0  0.29544  0.48797  0.25610  1.0000
  H   H1080     1.0  0.43111  0.57985  0.33276  1.0000
  H   H1081     1.0  0.43500  0.54893  0.36385  1.0000
  H   H1082     1.0  0.44139  0.55543  0.41205  1.0000
  H   H1083     1.0  0.44362  0.59252  0.42917  1.0000
  H   H1084     1.0  0.43379  0.61700  0.34941  1.0000
  H   H1085     1.0  0.28124  0.63203  0.03180  1.0000
  H   H1086     1.0  0.40397  0.62263  0.43403  1.0000
  C   C1361     1.0  0.44295  0.48607  0.38619  1.0000
  C   C1362     1.0  0.29932  0.62828  0.34955  1.0000
  C   C1363     1.0  0.48530  0.62747  0.41051  1.0000
  C   C1364     1.0  0.31806  0.65229  0.99875  1.0000
  C   C1365     1.0  0.41918  0.65369  0.38811  1.0000
  C   C1366     1.0  0.50074  0.55668  0.38162  1.0000
  H   H1087     1.0  0.47455  0.52702  0.39861  1.0000
  C   C1367     1.0  0.50711  0.63172  0.40762  1.0000
  C   C1368     1.0  0.30406  0.34793  0.19493  1.0000
  C   C1369     1.0  0.49169  0.63473  0.28778  1.0000
  H   H1088     1.0  0.27810  0.47515  0.32779  1.0000
  C   C1370     1.0  0.47799  0.54323  0.32242  1.0000
  H   H1089     1.0  0.28719  0.46228  0.45634  1.0000
  C   C1371     1.0  0.29236  0.62940  0.32290  1.0000
  H   H1090     1.0  0.50020  0.66960  0.13514  1.0000
  H   H1091     1.0  0.47022  0.48707  0.32785  1.0000
  C   C1372     1.0  0.30475  0.36151  0.17302  1.0000
  C   C1373     1.0  0.44830  0.64722  0.45585  1.0000
  C   C1374     1.0  0.28038  0.49509  0.38785  1.0000
  H   H1092     1.0  0.44704  0.50704  0.41993  1.0000
  H   H1093     1.0  0.33129  0.38656  0.99491  1.0000
  C   C1375     1.0  0.34446  0.65613  0.30266  1.0000
  C   C1376     1.0  0.28609  0.55742  0.42790  1.0000
  H   H1094     1.0  0.45429  0.52120  0.30990  1.0000
  C   C1377     1.0  0.31645  0.57786  0.39860  1.0000
  H   H1095     1.0  0.29774  0.49418  0.39255  1.0000
  Fe  Fe105     1.0  0.41741  0.54444  0.45958  1.0000
  H   H1096     1.0  0.33376  0.60607  0.43584  1.0000
  C   C1378     1.0  0.37123  0.45671  0.31163  1.0000
  C   C1379     1.0  0.39111  0.46556  0.31569  1.0000
  C   C1380     1.0  0.39365  0.48633  0.30637  1.0000
  C   C1381     1.0  0.37618  0.49835  0.29341  1.0000
  C   C1382     1.0  0.35594  0.48984  0.29005  1.0000
  C   C1383     1.0  0.35378  0.46867  0.29859  1.0000
  P   P47       1.0  0.33350  0.50602  0.27399  1.0000
  C   C1384     1.0  0.32892  0.53213  0.29047  1.0000
  C   C1385     1.0  0.34170  0.50819  0.23972  1.0000
  C   C1386     1.0  0.34962  0.52726  0.23056  1.0000
  C   C1387     1.0  0.35638  0.52862  0.20419  1.0000
  C   C1388     1.0  0.35579  0.51088  0.18691  1.0000
  C   C1389     1.0  0.34883  0.49153  0.19615  1.0000
  C   C1390     1.0  0.34209  0.49009  0.22256  1.0000
  C   C1391     1.0  0.31704  0.54960  0.27746  1.0000
  C   C1392     1.0  0.31396  0.56999  0.28990  1.0000
  C   C1393     1.0  0.32219  0.57289  0.31565  1.0000
  C   C1394     1.0  0.33313  0.55535  0.32914  1.0000
  C   C1395     1.0  0.33647  0.53502  0.31670  1.0000
  C   C1396     1.0  0.30831  0.49359  0.27803  1.0000
  C   C1397     1.0  0.30148  0.48936  0.30388  1.0000
  H   H1097     1.0  0.36907  0.44069  0.31906  1.0000
  H   H1098     1.0  0.40448  0.45630  0.32605  1.0000
  H   H1099     1.0  0.40907  0.49322  0.30923  1.0000
  H   H1100     1.0  0.37832  0.51439  0.28619  1.0000
  H   H1101     1.0  0.33860  0.46135  0.29575  1.0000
  H   H1102     1.0  0.35108  0.54099  0.24374  1.0000
  H   H1103     1.0  0.36235  0.54341  0.19717  1.0000
  H   H1104     1.0  0.36110  0.51213  0.16650  1.0000
  H   H1105     1.0  0.34888  0.47760  0.18292  1.0000
  H   H1106     1.0  0.33732  0.47482  0.22965  1.0000
  H   H1107     1.0  0.31060  0.54758  0.25748  1.0000
  H   H1108     1.0  0.30551  0.58362  0.27942  1.0000
  H   H1109     1.0  0.32035  0.58874  0.32510  1.0000
  H   H1110     1.0  0.33964  0.55767  0.34898  1.0000
  H   H1111     1.0  0.34519  0.52174  0.32752  1.0000
  H   H1112     1.0  0.31108  0.49353  0.32114  1.0000
  C   C1398     1.0  0.29826  0.59029  0.40950  1.0000
  H   H1113     1.0  0.33430  0.62009  0.99143  1.0000
  H   H1114     1.0  0.49917  0.56883  0.32855  1.0000
  H   H1115     1.0  0.26743  0.47186  0.24306  1.0000
  C   C1399     1.0  0.33835  0.65080  0.05281  1.0000
  H   H1116     1.0  0.43720  0.56556  0.01290  1.0000
  C   C1400     1.0  0.28200  0.65939  0.97798  1.0000
  H   H1117     1.0  0.47964  0.59351  0.29664  1.0000
  H   H1118     1.0  0.46324  0.65322  0.44914  1.0000
  C   C1401     1.0  0.33546  0.44708  0.97935  1.0000
  C   C1402     1.0  0.46779  0.51415  0.38748  1.0000
  C   C1403     1.0  0.36793  0.64819  0.97718  1.0000
  C   C1404     1.0  0.31972  0.55549  0.40293  1.0000
  H   H1119     1.0  0.50118  0.53548  0.45889  1.0000
  H   H1120     1.0  0.27914  0.36442  0.03173  1.0000
  H   H1121     1.0  0.48914  0.64433  0.32916  1.0000
  C   C1405     1.0  0.27003  0.51340  0.37526  1.0000
  C   C1406     1.0  0.45595  0.57167  0.28545  1.0000
  H   H1122     1.0  0.26810  0.58886  0.43121  1.0000
  H   H1123     1.0  0.40197  0.65956  0.15862  1.0000
  H   H1124     1.0  0.26260  0.66876  0.04059  1.0000
  C   C1407     1.0  0.32934  0.41911  0.01084  1.0000
  C   C1408     1.0  0.33107  0.44109  0.00546  1.0000
  H   H1125     1.0  0.27643  0.46363  0.40392  1.0000
  P   P48       1.0  0.32615  0.46190  0.03092  1.0000
  C   C1409     1.0  0.30326  0.47993  0.01878  1.0000
  C   C1410     1.0  0.32090  0.45025  0.06290  1.0000
  C   C1411     1.0  0.30193  0.45695  0.07746  1.0000
  C   C1412     1.0  0.29846  0.44768  0.10215  1.0000
  C   C1413     1.0  0.31398  0.43194  0.11270  1.0000
  C   C1414     1.0  0.33323  0.42572  0.09882  1.0000
  C   C1415     1.0  0.33679  0.43499  0.07416  1.0000
  C   C1416     1.0  0.30657  0.50024  0.00825  1.0000
  C   C1417     1.0  0.28878  0.51390  0.99842  1.0000
  C   C1418     1.0  0.33913  0.66364  0.40886  1.0000
  H   H1126     1.0  0.42161  0.62803  0.97420  1.0000
  C   C1419     1.0  0.28206  0.47326  0.01842  1.0000
  C   C1420     1.0  0.34963  0.47700  0.03657  1.0000
  C   C1421     1.0  0.36747  0.47545  0.01910  1.0000
  C   C1422     1.0  0.38501  0.48787  0.02366  1.0000
  C   C1423     1.0  0.38509  0.50168  0.04584  1.0000
  C   C1424     1.0  0.36765  0.50302  0.06357  1.0000
  C   C1425     1.0  0.34991  0.49089  0.05888  1.0000
  H   H1127     1.0  0.36987  0.66151  0.43052  1.0000
  H   H1128     1.0  0.49852  0.60745  0.18763  1.0000
  H   H1129     1.0  0.32444  0.41401  0.03019  1.0000
  C   C1426     1.0  0.30800  0.35514  0.46205  1.0000
  H   H1130     1.0  0.28974  0.46926  0.07004  1.0000
  C   C1427     1.0  0.26424  0.48712  0.00921  1.0000
  P   P49       1.0  0.34003  0.66111  0.01932  1.0000
  H   H1131     1.0  0.34534  0.41362  0.10710  1.0000
  H   H1132     1.0  0.35182  0.43006  0.06364  1.0000
  H   H1133     1.0  0.32289  0.50542  0.00706  1.0000
  H   H1134     1.0  0.49558  0.52727  0.05027  1.0000
  H   H1135     1.0  0.48167  0.61437  0.42335  1.0000
  C   C1428     1.0  0.27380  0.66433  0.24550  1.0000
  H   H1136     1.0  0.27928  0.45736  0.02543  1.0000
  H   H1137     1.0  0.36804  0.46493  0.00181  1.0000
  C   C1429     1.0  0.26481  0.41013  0.44821  1.0000
  H   H1138     1.0  0.39863  0.51143  0.04920  1.0000
  H   H1139     1.0  0.36790  0.51357  0.08089  1.0000
  H   H1140     1.0  0.33640  0.49234  0.07268  1.0000
  H   H1141     1.0  0.39823  0.62895  0.37592  1.0000
  C   C1430     1.0  0.46532  0.49166  0.34796  1.0000
  C   C1431     1.0  0.44568  0.63725  0.28844  1.0000
  C   C1432     1.0  0.32912  0.63133  0.05730  1.0000
  H   H1142     1.0  0.30800  0.66143  0.38953  1.0000
  H   H1143     1.0  0.48824  0.62275  0.24721  1.0000
  C   C1433     1.0  0.30087  0.66966  0.15541  1.0000
  H   H1144     1.0  0.32835  0.58556  0.38719  1.0000
  C   C1434     1.0  0.26621  0.35839  0.16392  1.0000
  C   C1435     1.0  0.29085  0.67091  0.13019  1.0000
  S   S196      1.0  0.35127  0.49874  0.45051  1.0000
  C   C1436     1.0  0.49498  0.55191  0.46420  1.0000
  S   S197      1.0  0.29016  0.33908  0.34388  1.0000
  H   H1145     1.0  0.41888  0.63439  0.02285  1.0000
  C   C1437     1.0  0.28273  0.57981  0.42354  1.0000
  C   C1438     1.0  0.40033  0.64608  0.37658  1.0000
  C   C1439     1.0  0.47345  0.65752  0.38156  1.0000
  H   H1146     1.0  0.28644  0.37753  0.14089  1.0000
  C   C1440     1.0  0.35034  0.64982  0.27652  1.0000
  H   H1147     1.0  0.35003  0.64580  0.31907  1.0000
  H   H1148     1.0  0.31103  0.42460  0.13167  1.0000
  H   H1149     1.0  0.49066  0.55329  0.15669  1.0000
  H   H1150     1.0  0.43522  0.54624  0.27780  1.0000
  H   H1151     1.0  0.29973  0.49174  0.23601  1.0000
  S   S198      1.0  0.45445  0.53677  0.46197  1.0000
  H   H1152     1.0  0.33047  0.36445  0.43263  1.0000
  C   C1441     1.0  0.33587  0.63478  0.10477  1.0000
  H   H1153     1.0  0.32353  0.62181  0.04088  1.0000
  H   H1154     1.0  0.36583  0.62465  0.44789  1.0000
  C   C1442     1.0  0.28272  0.47880  0.30771  1.0000
  C   C1443     1.0  0.27346  0.56366  0.07667  1.0000
  C   C1444     1.0  0.47432  0.50886  0.36127  1.0000
  H   H1155     1.0  0.39846  0.48697  0.00974  1.0000
  C   C1445     1.0  0.48497  0.56377  0.31819  1.0000
  C   C1446     1.0  0.27039  0.66789  0.27272  1.0000
  C   C1447     1.0  0.47395  0.57790  0.29989  1.0000
  H   H1156     1.0  0.48374  0.56269  0.37840  1.0000
  C   C1448     1.0  0.36610  0.65137  0.00488  1.0000
  C   C1449     1.0  0.44899  0.55120  0.28932  1.0000
  H   H1157     1.0  0.33524  0.62840  0.12476  1.0000
  H   H1158     1.0  0.26621  0.62468  0.29498  1.0000
  C   C1450     1.0  0.47777  0.57680  0.05669  1.0000
  C   C1451     1.0  0.31976  0.63122  0.98779  1.0000
  H   H1159     1.0  0.47648  0.55647  0.02124  1.0000
  C   C1452     1.0  0.27520  0.63280  0.42668  1.0000
  H   H1160     1.0  0.28361  0.45251  0.11310  1.0000
  C   C1453     1.0  0.40476  0.63868  0.01008  1.0000
  H   H1161     1.0  0.27940  0.52667  0.37021  1.0000
  C   C1454     1.0  0.46551  0.59233  0.07254  1.0000
  C   C1455     1.0  0.44308  0.59749  0.06755  1.0000
  C   C1456     1.0  0.43287  0.58772  0.04618  1.0000
  C   C1457     1.0  0.44506  0.57288  0.02974  1.0000
  C   C1458     1.0  0.46742  0.56753  0.03482  1.0000
  S   S199      1.0  0.35075  0.65592  0.22215  1.0000
  H   H1162     1.0  0.50289  0.62994  0.14306  1.0000
  H   H1163     1.0  0.50608  0.58144  0.41082  1.0000
  H   H1164     1.0  0.29185  0.42219  0.97370  1.0000
  C   C1459     1.0  0.26289  0.52098  0.08101  1.0000
  H   H1165     1.0  0.29493  0.51175  0.06486  1.0000
  C   C1460     1.0  0.27533  0.34851  0.02499  1.0000
  H   H1166     1.0  0.30455  0.54954  0.06167  1.0000
  C   C1461     1.0  0.45213  0.50281  0.39978  1.0000
  S   S200      1.0  0.26208  0.38765  0.09292  1.0000
  C   C1462     1.0  0.35334  0.63270  0.43503  1.0000
  H   H1167     1.0  0.36875  0.65468  0.35815  1.0000
  C   C1463     1.0  0.35551  0.65341  0.42533  1.0000
  C   C1464     1.0  0.27684  0.47702  0.26002  1.0000
  P   P50       1.0  0.50694  0.57081  0.06295  1.0000
  P   P51       1.0  0.49349  0.52421  0.34430  1.0000
  C   C1465     1.0  0.28868  0.54640  0.06922  1.0000
  H   H1168     1.0  0.26736  0.67039  0.97422  1.0000
  H   H1169     1.0  0.29684  0.65755  0.16942  1.0000
  H   H1170     1.0  0.27432  0.54941  0.43912  1.0000
  C   C1466     1.0  0.34306  0.66295  0.25506  1.0000
  H   H1171     1.0  0.27749  0.58020  0.07475  1.0000
  C   C1467     1.0  0.49745  0.56098  0.11597  1.0000
  C   C1468     1.0  0.40629  0.63508  0.98261  1.0000
  H   H1172     1.0  0.35176  0.66257  0.11728  1.0000
  H   H1173     1.0  0.29024  0.66355  0.23758  1.0000
  H   H1174     1.0  0.49857  0.60348  0.02184  1.0000
  H   H1175     1.0  0.27894  0.65984  0.12465  1.0000
  C   C1469     1.0  0.27430  0.42278  0.97140  1.0000
  C   C1470     1.0  0.30274  0.62437  0.97196  1.0000
  C   C1471     1.0  0.50631  0.55816  0.21766  1.0000
  C   C1472     1.0  0.28880  0.34538  0.46652  1.0000
  C   C1473     1.0  0.38338  0.66065  0.36662  1.0000
  C   C1474     1.0  0.50309  0.55322  0.14148  1.0000
  H   H1176     1.0  0.31862  0.34411  0.20715  1.0000
  C   C1475     1.0  0.50998  0.53819  0.36784  1.0000
  S   S201      1.0  0.26137  0.43688  0.34603  1.0000
  C   C1476     1.0  0.30428  0.34840  0.41471  1.0000
  H   H1177     1.0  0.31031  0.34945  0.39463  1.0000
  C   C1477     1.0  0.31569  0.35675  0.43614  1.0000
  C   C1478     1.0  0.28490  0.33890  0.41907  1.0000
  C   C1479     1.0  0.51018  0.52984  0.03929  1.0000
  C   C1480     1.0  0.26130  0.41995  0.99357  1.0000
  C   C1481     1.0  0.50967  0.56781  0.46752  1.0000
  C   C1482     1.0  0.47235  0.55718  0.46734  1.0000
  C   C1483     1.0  0.44640  0.50992  0.87370  1.0000
  Fe  Fe106     1.0  0.42935  0.61308  0.70803  1.0000
  S   S202      1.0  0.42211  0.57848  0.70657  1.0000
  S   S203      1.0  0.46385  0.62333  0.70678  1.0000
  Fe  Fe107     1.0  0.38085  0.62909  0.71369  1.0000
  S   S204      1.0  0.37026  0.59533  0.71227  1.0000
  C   C1484     1.0  0.26473  0.42608  0.94604  1.0000
  Fe  Fe108     1.0  0.39905  0.58763  0.74013  1.0000
  S   S205      1.0  0.40080  0.56547  0.77586  1.0000
  Fe  Fe109     1.0  0.39431  0.58964  0.67861  1.0000
  S   S206      1.0  0.39115  0.56741  0.64237  1.0000
  S   S207      1.0  0.40809  0.62165  0.74341  1.0000
  S   S208      1.0  0.40295  0.62403  0.67802  1.0000
  Fe  Fe110     1.0  0.27777  0.38265  0.84799  1.0000
  C   C1485     1.0  0.49493  0.55353  0.96602  1.0000
  Fe  Fe111     1.0  0.29642  0.42697  0.85293  1.0000
  C   C1486     1.0  0.46909  0.63681  0.62316  1.0000
  S   S209      1.0  0.32659  0.44544  0.85701  1.0000
  H   H1178     1.0  0.36092  0.52926  0.86875  1.0000
  H   H1179     1.0  0.30527  0.65528  0.92446  1.0000
  S   S210      1.0  0.34589  0.50751  0.95499  1.0000
  H   H1180     1.0  0.47314  0.61074  0.48305  1.0000
  S   S211      1.0  0.28663  0.40324  0.88302  1.0000
  S   S212      1.0  0.29132  0.40447  0.81800  1.0000
  H   H1181     1.0  0.29318  0.57351  0.82690  1.0000
  C   C1487     1.0  0.29552  0.44783  0.60322  1.0000
  H   H1182     1.0  0.33605  0.65410  0.66582  1.0000
  H   H1183     1.0  0.26798  0.47832  0.94071  1.0000
  C   C1488     1.0  0.29093  0.51790  0.53708  1.0000
  C   C1489     1.0  0.34655  0.66450  0.75104  1.0000
  Fe  Fe112     1.0  0.38082  0.57378  0.92765  1.0000
  S   S213      1.0  0.37308  0.59646  0.89287  1.0000
  Fe  Fe113     1.0  0.37755  0.56737  0.48727  1.0000
  S   S214      1.0  0.36510  0.58962  0.52144  1.0000
  S   S215      1.0  0.39581  0.53923  0.92523  1.0000
  S   S216      1.0  0.39349  0.53314  0.48889  1.0000
  S   S217      1.0  0.26863  0.42581  0.65954  1.0000
  C   C1490     1.0  0.50187  0.58920  0.47388  1.0000
  C   C1491     1.0  0.44934  0.52293  0.89611  1.0000
  S   S218      1.0  0.26306  0.44535  0.84856  1.0000
  H   H1184     1.0  0.28687  0.36958  0.93501  1.0000
  H   H1185     1.0  0.49829  0.64859  0.60848  1.0000
  H   H1186     1.0  0.45868  0.65131  0.61779  1.0000
  H   H1187     1.0  0.28986  0.66377  0.76149  1.0000
  H   H1188     1.0  0.48470  0.58788  0.55155  1.0000
  C   C1492     1.0  0.27845  0.35140  0.77770  1.0000
  H   H1189     1.0  0.29437  0.52149  0.91530  1.0000
  S   S219      1.0  0.28459  0.34593  0.84581  1.0000
  C   C1493     1.0  0.28952  0.52486  0.79731  1.0000
  H   H1190     1.0  0.41943  0.64466  0.51292  1.0000
  C   C1494     1.0  0.41604  0.60929  0.55179  1.0000
  H   H1191     1.0  0.31339  0.54602  0.48801  1.0000
  H   H1192     1.0  0.44461  0.51778  0.91559  1.0000
  C   C1495     1.0  0.41093  0.64583  0.83678  1.0000
  H   H1193     1.0  0.43114  0.58222  0.88398  1.0000
  H   H1194     1.0  0.27496  0.42835  0.92918  1.0000
  C   C1496     1.0  0.47226  0.55992  0.96493  1.0000
  C   C1497     1.0  0.28386  0.63846  0.96705  1.0000
  C   C1498     1.0  0.49631  0.57364  0.54937  1.0000
  H   H1195     1.0  0.28296  0.52370  0.49534  1.0000
  H   H1196     1.0  0.30104  0.43545  0.61760  1.0000
  H   H1197     1.0  0.43936  0.49469  0.87580  1.0000
  C   C1499     1.0  0.35286  0.65074  0.77227  1.0000
  P   P52       1.0  0.26981  0.49992  0.54213  1.0000
  H   H1198     1.0  0.29186  0.42749  0.70937  1.0000
  H   H1199     1.0  0.27975  0.42831  0.75650  1.0000
  C   C1500     1.0  0.33075  0.46381  0.88355  1.0000
  C   C1501     1.0  0.34946  0.47522  0.88354  1.0000
  C   C1502     1.0  0.35394  0.48918  0.90486  1.0000
  C   C1503     1.0  0.33977  0.49183  0.92649  1.0000
  C   C1504     1.0  0.32073  0.48087  0.92617  1.0000
  C   C1505     1.0  0.31621  0.46694  0.90482  1.0000
  H   H1200     1.0  0.36076  0.47293  0.86715  1.0000
  H   H1201     1.0  0.36867  0.49742  0.90493  1.0000
  H   H1202     1.0  0.30961  0.48284  0.94278  1.0000
  H   H1203     1.0  0.30182  0.45817  0.90515  1.0000
  C   C1506     1.0  0.38226  0.58829  0.86068  1.0000
  C   C1507     1.0  0.37838  0.60263  0.83929  1.0000
  C   C1508     1.0  0.38473  0.59622  0.81327  1.0000
  C   C1509     1.0  0.39471  0.57525  0.80845  1.0000
  C   C1510     1.0  0.39926  0.56122  0.82998  1.0000
  C   C1511     1.0  0.39312  0.56770  0.85598  1.0000
  H   H1204     1.0  0.37013  0.61865  0.84277  1.0000
  H   H1205     1.0  0.38132  0.60726  0.79689  1.0000
  H   H1206     1.0  0.40734  0.54515  0.82644  1.0000
  H   H1207     1.0  0.39649  0.55658  0.87224  1.0000
  C   C1512     1.0  0.38405  0.57438  0.60893  1.0000
  C   C1513     1.0  0.37351  0.59467  0.60200  1.0000
  C   C1514     1.0  0.36732  0.59898  0.57523  1.0000
  C   C1515     1.0  0.37217  0.58330  0.55509  1.0000
  C   C1516     1.0  0.38271  0.56306  0.56207  1.0000
  C   C1517     1.0  0.38833  0.55856  0.58887  1.0000
  H   H1208     1.0  0.36986  0.60688  0.61731  1.0000
  H   H1209     1.0  0.35902  0.61464  0.57005  1.0000
  H   H1210     1.0  0.38652  0.55082  0.54686  1.0000
  H   H1211     1.0  0.39617  0.54273  0.59405  1.0000
  H   H1212     1.0  0.28609  0.54193  0.79307  1.0000
  C   C1518     1.0  0.48658  0.60345  0.70964  1.0000
  C   C1519     1.0  0.46019  0.62017  0.63651  1.0000
  H   H1213     1.0  0.44299  0.62176  0.64165  1.0000
  H   H1214     1.0  0.43744  0.59280  0.83671  1.0000
  H   H1215     1.0  0.45320  0.49976  0.49719  1.0000
  C   C1520     1.0  0.48381  0.58141  0.71150  1.0000
  H   H1216     1.0  0.43012  0.60315  0.79030  1.0000
  H   H1217     1.0  0.41197  0.61134  0.91098  1.0000
  H   H1218     1.0  0.49718  0.58354  0.77071  1.0000
  H   H1219     1.0  0.46758  0.57621  0.71171  1.0000
  H   H1220     1.0  0.41481  0.59517  0.51257  1.0000
  H   H1221     1.0  0.41108  0.64551  0.79389  1.0000
  C   C1521     1.0  0.48849  0.54348  0.62031  1.0000
  H   H1222     1.0  0.34044  0.39742  0.94919  1.0000
  C   C1522     1.0  0.27549  0.65959  0.77187  1.0000
  H   H1223     1.0  0.45023  0.50660  0.83117  1.0000
  C   C1523     1.0  0.46461  0.57843  0.47451  1.0000
  H   H1224     1.0  0.27380  0.58175  0.66032  1.0000
  H   H1225     1.0  0.31414  0.59245  0.52719  1.0000
  S   S220      1.0  0.40298  0.58329  0.96071  1.0000
  H   H1226     1.0  0.28515  0.47154  0.63316  1.0000
  H   H1227     1.0  0.46053  0.55254  0.91104  1.0000
  H   H1228     1.0  0.50612  0.58580  0.64592  1.0000
  C   C1524     1.0  0.27475  0.42657  0.71378  1.0000
  C   C1525     1.0  0.44954  0.50375  0.51784  1.0000
  H   H1229     1.0  0.35145  0.51211  0.78601  1.0000
  C   C1526     1.0  0.42979  0.49774  0.55797  1.0000
  C   C1527     1.0  0.43489  0.49223  0.53157  1.0000
  H   H1230     1.0  0.33326  0.63242  0.89858  1.0000
  H   H1231     1.0  0.33847  0.55379  0.52528  1.0000
  C   C1528     1.0  0.45407  0.52651  0.55699  1.0000
  C   C1529     1.0  0.43927  0.51480  0.57062  1.0000
  P   P53       1.0  0.46482  0.55002  0.57214  1.0000
  C   C1530     1.0  0.46770  0.54675  0.60792  1.0000
  C   C1531     1.0  0.44290  0.64980  0.48276  1.0000
  H   H1232     1.0  0.26852  0.63925  0.49377  1.0000
  C   C1532     1.0  0.44891  0.54771  0.62378  1.0000
  C   C1533     1.0  0.45076  0.54458  0.65123  1.0000
  C   C1534     1.0  0.47141  0.54085  0.66329  1.0000
  C   C1535     1.0  0.48038  0.59756  0.96396  1.0000
  H   H1233     1.0  0.33301  0.53931  0.57018  1.0000
  C   C1536     1.0  0.43701  0.57581  0.53837  1.0000
  H   H1234     1.0  0.41821  0.48898  0.56854  1.0000
  H   H1235     1.0  0.42726  0.47925  0.52163  1.0000
  H   H1236     1.0  0.40742  0.65000  0.87896  1.0000
  H   H1237     1.0  0.35506  0.55414  0.78909  1.0000
  H   H1238     1.0  0.43467  0.51879  0.59086  1.0000
  C   C1537     1.0  0.31077  0.53984  0.50771  1.0000
  H   H1239     1.0  0.43607  0.54519  0.66316  1.0000
  H   H1240     1.0  0.47270  0.53840  0.68461  1.0000
  C   C1538     1.0  0.33796  0.40952  0.96492  1.0000
  C   C1539     1.0  0.30014  0.55635  0.66399  1.0000
  H   H1241     1.0  0.44127  0.56379  0.52300  1.0000
  C   C1540     1.0  0.32004  0.66189  0.91831  1.0000
  C   C1541     1.0  0.46262  0.62908  0.91161  1.0000
  C   C1542     1.0  0.32075  0.54794  0.65491  1.0000
  H   H1242     1.0  0.30119  0.46321  0.81085  1.0000
  C   C1543     1.0  0.27574  0.51028  0.78629  1.0000
  C   C1544     1.0  0.31184  0.62672  0.53543  1.0000
  C   C1545     1.0  0.30941  0.60517  0.54158  1.0000
  C   C1546     1.0  0.30138  0.59999  0.56642  1.0000
  C   C1547     1.0  0.29645  0.61633  0.58567  1.0000
  C   C1548     1.0  0.29836  0.63803  0.57907  1.0000
  P   P54       1.0  0.28550  0.60985  0.61750  1.0000
  C   C1549     1.0  0.27976  0.47937  0.56594  1.0000
  C   C1550     1.0  0.29880  0.58488  0.63092  1.0000
  C   C1551     1.0  0.31981  0.57665  0.62244  1.0000
  C   C1552     1.0  0.33060  0.55815  0.63424  1.0000
  C   C1553     1.0  0.26794  0.42698  0.74048  1.0000
  C   C1554     1.0  0.27993  0.48807  0.79116  1.0000
  H   H1243     1.0  0.45379  0.65733  0.49641  1.0000
  C   C1555     1.0  0.27688  0.65500  0.79905  1.0000
  H   H1244     1.0  0.29937  0.58322  0.57072  1.0000
  C   C1556     1.0  0.30759  0.51728  0.81335  1.0000
  C   C1557     1.0  0.29198  0.63008  0.64172  1.0000
  C   C1558     1.0  0.31375  0.63504  0.64457  1.0000
  C   C1559     1.0  0.31922  0.65037  0.66354  1.0000
  C   C1560     1.0  0.26817  0.36073  0.67590  1.0000
  C   C1561     1.0  0.33910  0.43137  0.95924  1.0000
  H   H1245     1.0  0.44785  0.58733  0.96324  1.0000
  C   C1562     1.0  0.49029  0.54058  0.64793  1.0000
  H   H1246     1.0  0.47462  0.61461  0.96352  1.0000
  H   H1247     1.0  0.27154  0.38541  0.76926  1.0000
  C   C1563     1.0  0.26502  0.36982  0.76989  1.0000
  H   H1248     1.0  0.29384  0.65107  0.59314  1.0000
  H   H1249     1.0  0.32829  0.58480  0.60737  1.0000
  H   H1250     1.0  0.34697  0.55211  0.62794  1.0000
  C   C1564     1.0  0.27867  0.48397  0.59344  1.0000
  C   C1565     1.0  0.26553  0.64157  0.47265  1.0000
  C   C1566     1.0  0.46335  0.59478  0.77776  1.0000
  C   C1567     1.0  0.40558  0.65439  0.81165  1.0000
  C   C1568     1.0  0.47929  0.59437  0.47763  1.0000
  H   H1251     1.0  0.32539  0.48863  0.83051  1.0000
  H   H1252     1.0  0.32656  0.62697  0.63229  1.0000
  C   C1569     1.0  0.27463  0.35189  0.70059  1.0000
  H   H1253     1.0  0.30293  0.42702  0.56918  1.0000
  C   C1570     1.0  0.45897  0.52089  0.53037  1.0000
  C   C1571     1.0  0.29663  0.44310  0.57598  1.0000
  C   C1572     1.0  0.49605  0.59988  0.63873  1.0000
  C   C1573     1.0  0.45090  0.59149  0.82291  1.0000
  C   C1574     1.0  0.30604  0.64318  0.55403  1.0000
  H   H1254     1.0  0.35278  0.58908  0.76641  1.0000
  C   C1575     1.0  0.47362  0.60165  0.64404  1.0000
  C   C1576     1.0  0.51024  0.56908  0.96577  1.0000
  C   C1577     1.0  0.34546  0.65607  0.79815  1.0000
  H   H1255     1.0  0.32940  0.53388  0.66437  1.0000
  H   H1256     1.0  0.34260  0.43621  0.93916  1.0000
  C   C1578     1.0  0.30500  0.52279  0.55820  1.0000
  C   C1579     1.0  0.32190  0.53592  0.55398  1.0000
  H   H1257     1.0  0.29662  0.47946  0.49900  1.0000
  C   C1580     1.0  0.40958  0.63281  0.47453  1.0000
  Fe  Fe114     1.0  0.41651  0.54848  0.96051  1.0000
  H   H1258     1.0  0.32515  0.58058  0.90925  1.0000
  C   C1581     1.0  0.42502  0.60714  0.57744  1.0000
  H   H1259     1.0  0.46969  0.53004  0.51896  1.0000
  C   C1582     1.0  0.28140  0.65569  0.67738  1.0000
  H   H1260     1.0  0.42045  0.63022  0.83850  1.0000
  H   H1261     1.0  0.26192  0.51615  0.77377  1.0000
  C   C1583     1.0  0.33569  0.64909  0.90357  1.0000
  P   P55       1.0  0.47666  0.57474  0.86516  1.0000
  H   H1262     1.0  0.46675  0.58909  0.65511  1.0000
  C   C1584     1.0  0.42357  0.64260  0.49208  1.0000
  C   C1585     1.0  0.43999  0.58934  0.58358  1.0000
  H   H1263     1.0  0.30291  0.51270  0.86844  1.0000
  C   C1586     1.0  0.27951  0.47900  0.49346  1.0000
  C   C1587     1.0  0.46268  0.59524  0.88653  1.0000
  H   H1264     1.0  0.26944  0.47667  0.78251  1.0000
  C   C1588     1.0  0.27588  0.64025  0.65858  1.0000
  H   H1265     1.0  0.30326  0.51622  0.57782  1.0000
  C   C1589     1.0  0.30304  0.66077  0.67985  1.0000
  H   H1266     1.0  0.28939  0.45431  0.53652  1.0000
  C   C1590     1.0  0.44023  0.59507  0.89174  1.0000
  H   H1267     1.0  0.47147  0.64201  0.91963  1.0000
  H   H1268     1.0  0.26705  0.48380  0.89178  1.0000
  C   C1591     1.0  0.28878  0.45875  0.55740  1.0000
  H   H1269     1.0  0.43174  0.64143  0.92864  1.0000
  H   H1270     1.0  0.50295  0.51923  0.56084  1.0000
  S   S221      1.0  0.35643  0.65876  0.71856  1.0000
  H   H1271     1.0  0.29228  0.65562  0.80976  1.0000
  H   H1272     1.0  0.38890  0.63668  0.94488  1.0000
  H   H1273     1.0  0.44656  0.58792  0.60357  1.0000
  H   H1274     1.0  0.39464  0.62713  0.48192  1.0000
  H   H1275     1.0  0.33409  0.57201  0.86261  1.0000
  C   C1592     1.0  0.44585  0.57334  0.56423  1.0000
  H   H1276     1.0  0.29129  0.60865  0.80379  1.0000
  H   H1277     1.0  0.41986  0.61889  0.59282  1.0000
  Fe  Fe115     1.0  0.37038  0.53295  0.95545  1.0000
  C   C1593     1.0  0.42219  0.59375  0.53223  1.0000
  H   H1278     1.0  0.32110  0.61661  0.77357  1.0000
  H   H1279     1.0  0.35388  0.65175  0.96406  1.0000
  S   S222      1.0  0.45343  0.53987  0.96548  1.0000
  H   H1280     1.0  0.46654  0.54091  0.82638  1.0000
  S   S223      1.0  0.35433  0.56723  0.95605  1.0000
  C   C1594     1.0  0.46485  0.54934  0.86849  1.0000
  S   S224      1.0  0.26937  0.41081  0.52871  1.0000
  C   C1595     1.0  0.46184  0.53616  0.84601  1.0000
  C   C1596     1.0  0.28651  0.46824  0.61196  1.0000
  H   H1281     1.0  0.29000  0.40377  0.47831  1.0000
  H   H1282     1.0  0.49985  0.54894  0.71512  1.0000
  C   C1597     1.0  0.45257  0.51658  0.84863  1.0000
  H   H1283     1.0  0.30748  0.65999  0.54909  1.0000
  H   H1284     1.0  0.40366  0.62252  0.54735  1.0000
  C   C1598     1.0  0.47208  0.58328  0.83107  1.0000
  H   H1285     1.0  0.30431  0.60817  0.96336  1.0000
  H   H1286     1.0  0.36577  0.64772  0.88249  1.0000
  C   C1599     1.0  0.27004  0.36626  0.93785  1.0000
  H   H1287     1.0  0.27070  0.63326  0.95466  1.0000
  H   H1288     1.0  0.31835  0.63064  0.51630  1.0000
  H   H1289     1.0  0.36357  0.63609  0.76879  1.0000
  C   C1600     1.0  0.45842  0.54260  0.89352  1.0000
  H   H1290     1.0  0.43270  0.55102  0.61499  1.0000
  C   C1601     1.0  0.27276  0.40846  0.47455  1.0000
  C   C1602     1.0  0.32494  0.54420  0.52869  1.0000
  C   C1603     1.0  0.40351  0.65712  0.85969  1.0000
  C   C1604     1.0  0.44662  0.59728  0.79644  1.0000
  C   C1605     1.0  0.47375  0.61246  0.89654  1.0000
  H   H1291     1.0  0.50201  0.54553  0.90287  1.0000
  H   H1292     1.0  0.35061  0.64548  0.81452  1.0000
  H   H1293     1.0  0.28037  0.36228  0.71614  1.0000
  C   C1606     1.0  0.38744  0.50992  0.85029  1.0000
  C   C1607     1.0  0.39535  0.49951  0.82701  1.0000
  C   C1608     1.0  0.38238  0.50048  0.80386  1.0000
  C   C1609     1.0  0.36139  0.51164  0.80405  1.0000
  C   C1610     1.0  0.35329  0.52209  0.82738  1.0000
  C   C1611     1.0  0.36656  0.52129  0.85047  1.0000
  P   P56       1.0  0.32581  0.53572  0.82756  1.0000
  C   C1612     1.0  0.31836  0.54214  0.86161  1.0000
  C   C1613     1.0  0.32406  0.56094  0.80944  1.0000
  C   C1614     1.0  0.30613  0.57660  0.81342  1.0000
  C   C1615     1.0  0.30500  0.59654  0.80040  1.0000
  C   C1616     1.0  0.32175  0.60103  0.78335  1.0000
  C   C1617     1.0  0.33956  0.58551  0.77921  1.0000
  C   C1618     1.0  0.34078  0.56557  0.79220  1.0000
  C   C1619     1.0  0.30731  0.52786  0.87680  1.0000
  C   C1620     1.0  0.30245  0.53277  0.90348  1.0000
  C   C1621     1.0  0.30877  0.55177  0.91520  1.0000
  C   C1622     1.0  0.31982  0.56601  0.90019  1.0000
  C   C1623     1.0  0.32476  0.56115  0.87359  1.0000
  C   C1624     1.0  0.50301  0.59121  0.96451  1.0000
  C   C1625     1.0  0.28932  0.57490  0.65228  1.0000
  C   C1626     1.0  0.50213  0.56593  0.71332  1.0000
  H   H1294     1.0  0.30561  0.55515  0.93608  1.0000
  C   C1627     1.0  0.29785  0.48044  0.80709  1.0000
  C   C1628     1.0  0.48436  0.58599  0.78545  1.0000
  H   H1295     1.0  0.39748  0.50935  0.86823  1.0000
  H   H1296     1.0  0.41155  0.49078  0.82684  1.0000
  H   H1297     1.0  0.38857  0.49259  0.78573  1.0000
  C   C1629     1.0  0.48867  0.57993  0.81194  1.0000
  C   C1630     1.0  0.42921  0.61167  0.90695  1.0000
  H   H1298     1.0  0.27159  0.49962  0.60062  1.0000
  C   C1631     1.0  0.31160  0.49494  0.81816  1.0000
  C   C1632     1.0  0.44036  0.62866  0.91686  1.0000
  C   C1633     1.0  0.49152  0.63512  0.61780  1.0000
  C   C1634     1.0  0.49116  0.55322  0.55772  1.0000
  C   C1635     1.0  0.50522  0.61663  0.62559  1.0000
  H   H1299     1.0  0.29282  0.54879  0.68057  1.0000
  H   H1300     1.0  0.45986  0.59924  0.75722  1.0000
  H   H1301     1.0  0.31681  0.36158  0.47872  1.0000
  H   H1302     1.0  0.49103  0.61309  0.89304  1.0000
  C   C1636     1.0  0.35427  0.65791  0.89442  1.0000
  C   C1637     1.0  0.29367  0.52695  0.51192  1.0000
  H   H1303     1.0  0.26889  0.37788  0.67232  1.0000
  H   H1304     1.0  0.50336  0.54329  0.60894  1.0000
  H   H1305     1.0  0.26890  0.66399  0.68991  1.0000
  C   C1638     1.0  0.38789  0.63987  0.96615  1.0000
  C   C1639     1.0  0.50789  0.60986  0.70989  1.0000
  H   H1306     1.0  0.50476  0.57224  0.81716  1.0000
  C   C1640     1.0  0.27427  0.46940  0.46917  1.0000
  H   H1307     1.0  0.29534  0.35273  0.78364  1.0000
  C   C1641     1.0  0.50535  0.57153  0.87506  1.0000
  H   H1308     1.0  0.26480  0.35829  0.89661  1.0000
  H   H1309     1.0  0.50632  0.53824  0.65754  1.0000
  H   H1310     1.0  0.44732  0.58267  0.47758  1.0000
  C   C1642     1.0  0.46512  0.58206  0.96391  1.0000
  C   C1643     1.0  0.50662  0.53509  0.55445  1.0000
  C   C1644     1.0  0.26280  0.48761  0.51062  1.0000
  H   H1311     1.0  0.50069  0.53648  0.96702  1.0000
  H   H1312     1.0  0.28333  0.34407  0.48680  1.0000
  C   C1645     1.0  0.26077  0.34743  0.65579  1.0000
  H   H1313     1.0  0.51014  0.62688  0.70889  1.0000
  H   H1314     1.0  0.29345  0.78032  0.11759  1.0000
  C   C1646     1.0  0.27148  0.86510  0.22586  1.0000
  H   H1315     1.0  0.33267  0.72441  0.45509  1.0000
  C   C1647     1.0  0.28991  0.94456  0.45904  1.0000
  H   H1316     1.0  0.35432  0.73326  0.98604  1.0000
  C   C1648     1.0  0.37740  0.92819  0.45800  1.0000
  H   H1317     1.0  0.30686  0.73332  0.19083  1.0000
  H   H1318     1.0  0.35857  0.91179  0.38715  1.0000
  H   H1319     1.0  0.32352  0.69209  0.24322  1.0000
  C   C1649     1.0  0.36610  0.70323  0.14220  1.0000
  C   C1650     1.0  0.27493  0.88129  0.46073  1.0000
  H   H1320     1.0  0.28926  0.94268  0.17529  1.0000
  Fe  Fe116     1.0  0.30597  0.94345  0.08163  1.0000
  S   S225      1.0  0.27333  0.96335  0.08340  1.0000
  S   S226      1.0  0.33545  0.96300  0.08106  1.0000
  C   C1651     1.0  0.37806  0.94272  0.43702  1.0000
  H   H1321     1.0  0.42223  0.98000  0.31902  1.0000
  S   S227      1.0  0.29865  0.92235  0.11623  1.0000
  C   C1652     1.0  0.38484  0.68294  0.36843  1.0000
  C   C1653     1.0  0.34862  0.70184  0.00098  1.0000
  Fe  Fe117     1.0  0.28469  0.90059  0.08532  1.0000
  C   C1654     1.0  0.36125  0.72692  0.23151  1.0000
  C   C1655     1.0  0.26342  0.72144  0.25269  1.0000
  S   S228      1.0  0.32479  0.68346  0.34060  1.0000
  H   H1322     1.0  0.35855  0.69328  0.98587  1.0000
  C   C1656     1.0  0.37144  0.93707  0.41118  1.0000
  H   H1323     1.0  0.38561  0.97373  0.33510  1.0000
  H   H1324     1.0  0.26325  0.77344  0.46066  1.0000
  H   H1325     1.0  0.26191  0.79271  0.08743  1.0000
  H   H1326     1.0  0.30056  0.74418  0.13790  1.0000
  C   C1657     1.0  0.28408  0.80004  0.28579  1.0000
  H   H1327     1.0  0.28496  0.93647  0.99999  1.0000
  S   S229      1.0  0.28002  0.94828  0.27234  1.0000
  S   S230      1.0  0.29106  0.86366  0.08586  1.0000
  H   H1328     1.0  0.27152  0.79913  0.41279  1.0000
  C   C1658     1.0  0.34166  0.72357  0.18942  1.0000
  H   H1329     1.0  0.28369  0.83306  0.29949  1.0000
  H   H1330     1.0  0.36987  0.75131  0.13957  1.0000
  C   C1659     1.0  0.33300  0.73601  0.01988  1.0000
  C   C1660     1.0  0.27303  0.87968  0.27893  1.0000
  S   S231      1.0  0.29151  0.73976  0.31954  1.0000
  C   C1661     1.0  0.27001  0.84653  0.09105  1.0000
  C   C1662     1.0  0.32070  0.70048  0.14514  1.0000
  C   C1663     1.0  0.27759  0.94478  0.19130  1.0000
  C   C1664     1.0  0.37122  0.98178  0.00586  1.0000
  S   S232      1.0  0.38546  0.98821  0.97688  1.0000
  C   C1665     1.0  0.36262  0.98685  0.05285  1.0000
  C   C1666     1.0  0.34839  0.97041  0.05156  1.0000
  C   C1667     1.0  0.34549  0.95979  0.02721  1.0000
  C   C1668     1.0  0.35715  0.96521  0.00462  1.0000
  C   C1669     1.0  0.34893  0.77801  0.12343  1.0000
  C   C1670     1.0  0.34916  0.98650  0.27871  1.0000
  H   H1331     1.0  0.33480  0.94693  0.02598  1.0000
  H   H1332     1.0  0.35541  0.95639  0.98614  1.0000
  C   C1671     1.0  0.28424  0.89377  0.40919  1.0000
  C   C1672     1.0  0.27423  0.93929  0.98294  1.0000
  H   H1333     1.0  0.28637  0.70703  0.22380  1.0000
  C   C1673     1.0  0.29165  0.86871  0.26748  1.0000
  C   C1674     1.0  0.27247  0.82726  0.18791  1.0000
  H   H1334     1.0  0.38859  0.99671  0.14267  1.0000
  H   H1335     1.0  0.27048  0.83660  0.43012  1.0000
  H   H1336     1.0  0.36529  0.99498  0.07161  1.0000
  C   C1675     1.0  0.29090  0.86141  0.24105  1.0000
  C   C1676     1.0  0.27045  0.71099  0.45797  1.0000
  C   C1677     1.0  0.32211  0.73134  0.20204  1.0000
  C   C1678     1.0  0.29439  0.86673  0.17574  1.0000
  C   C1679     1.0  0.30483  0.85563  0.15417  1.0000
  C   C1680     1.0  0.32281  0.86370  0.14226  1.0000
  C   C1681     1.0  0.33044  0.88289  0.15169  1.0000
  C   C1682     1.0  0.32001  0.89417  0.17299  1.0000
  C   C1683     1.0  0.30198  0.88622  0.18488  1.0000
  C   C1684     1.0  0.27449  0.82125  0.28952  1.0000
  H   H1337     1.0  0.50549  0.67677  0.30455  1.0000
  H   H1338     1.0  0.30750  0.94377  0.45679  1.0000
  C   C1685     1.0  0.32205  0.72480  0.03869  1.0000
  Fe  Fe118     1.0  0.29805  0.71100  0.34638  1.0000
  H   H1339     1.0  0.31478  0.69377  0.05252  1.0000
  C   C1686     1.0  0.27977  0.81346  0.20895  1.0000
  C   C1687     1.0  0.28000  0.79092  0.20590  1.0000
  C   C1688     1.0  0.27610  0.94787  0.43657  1.0000
  C   C1689     1.0  0.36138  0.72202  0.20421  1.0000
  C   C1690     1.0  0.29480  0.88963  0.45557  1.0000
  H   H1340     1.0  0.30663  0.86580  0.27915  1.0000
  H   H1341     1.0  0.27317  0.71550  0.26967  1.0000
  C   C1691     1.0  0.40250  0.67732  0.12201  1.0000
  C   C1692     1.0  0.32369  0.68852  0.28596  1.0000
  H   H1342     1.0  0.30552  0.85310  0.23231  1.0000
  H   H1343     1.0  0.29884  0.84112  0.14592  1.0000
  H   H1344     1.0  0.33024  0.85549  0.12495  1.0000
  H   H1345     1.0  0.34396  0.88940  0.14188  1.0000
  H   H1346     1.0  0.32551  0.90939  0.17981  1.0000
  H   H1347     1.0  0.29374  0.89555  0.20086  1.0000
  C   C1693     1.0  0.34160  0.73413  0.24404  1.0000
  H   H1348     1.0  0.27798  0.87068  0.35430  1.0000
  C   C1694     1.0  0.27450  0.82407  0.08684  1.0000
  H   H1349     1.0  0.29111  0.72416  0.99317  1.0000
  H   H1350     1.0  0.28545  0.99397  0.38219  1.0000
  H   H1351     1.0  0.28511  0.81988  0.22775  1.0000
  H   H1352     1.0  0.28582  0.78025  0.22194  1.0000
  H   H1353     1.0  0.31102  0.73366  0.05263  1.0000
  H   H1354     1.0  0.35805  0.88611  0.42412  1.0000
  C   C1695     1.0  0.26432  0.88554  0.41430  1.0000
  H   H1355     1.0  0.29686  0.68228  0.00270  1.0000
  H   H1356     1.0  0.37687  0.71702  0.19486  1.0000
  S   S233      1.0  0.29559  0.91987  0.05085  1.0000
  H   H1357     1.0  0.28236  0.70979  0.44218  1.0000
  H   H1358     1.0  0.31495  0.96840  0.97730  1.0000
  S   S234      1.0  0.26306  0.70311  0.34740  1.0000
  H   H1359     1.0  0.30228  0.94142  0.22247  1.0000
  C   C1696     1.0  0.26548  0.81806  0.16397  1.0000
  H   H1360     1.0  0.27214  0.76464  0.18012  1.0000
  C   C1697     1.0  0.29603  0.68663  0.11221  1.0000
  C   C1698     1.0  0.32208  0.98738  0.24301  1.0000
  H   H1361     1.0  0.37638  0.72497  0.24302  1.0000
  H   H1362     1.0  0.39839  0.69742  0.08721  1.0000
  P   P57       1.0  0.34127  0.71824  0.15395  1.0000
  C   C1699     1.0  0.27938  0.81544  0.35708  1.0000
  C   C1700     1.0  0.40311  0.69072  0.38079  1.0000
  C   C1701     1.0  0.36423  0.91650  0.40666  1.0000
  C   C1702     1.0  0.33590  0.74456  0.13881  1.0000
  H   H1363     1.0  0.30368  0.83785  0.36352  1.0000
  H   H1364     1.0  0.27343  0.88498  0.29953  1.0000
  H   H1365     1.0  0.31337  0.70343  0.28934  1.0000
  C   C1703     1.0  0.36287  0.93322  0.33916  1.0000
  H   H1366     1.0  0.35559  0.97988  0.29743  1.0000
  S   S235      1.0  0.26811  0.71768  0.17228  1.0000
  H   H1367     1.0  0.45117  0.95607  0.39281  1.0000
  S   S236      1.0  0.29576  0.73103  0.38425  1.0000
  C   C1704     1.0  0.28668  0.83619  0.35870  1.0000
  C   C1705     1.0  0.28490  0.94415  0.21806  1.0000
  H   H1368     1.0  0.29863  0.80047  0.45403  1.0000
  H   H1369     1.0  0.30681  0.74212  0.23891  1.0000
  C   C1706     1.0  0.35904  0.98224  0.40006  1.0000
  C   C1707     1.0  0.42056  0.97298  0.33852  1.0000
  C   C1708     1.0  0.33778  0.69044  0.01994  1.0000
  H   H1370     1.0  0.45511  0.97124  0.34775  1.0000
  H   H1371     1.0  0.37975  0.92632  0.34137  1.0000
  C   C1709     1.0  0.34670  0.96498  0.14735  1.0000
  H   H1372     1.0  0.27953  0.99086  0.97370  1.0000
  H   H1373     1.0  0.35709  0.91389  0.30425  1.0000
  H   H1374     1.0  0.30790  0.98083  0.23421  1.0000
  C   C1710     1.0  0.37368  0.99278  0.03005  1.0000
  C   C1711     1.0  0.41613  0.95570  0.38922  1.0000
  C   C1712     1.0  0.33024  0.97922  0.26740  1.0000
  H   H1375     1.0  0.31823  0.92875  0.29922  1.0000
  H   H1376     1.0  0.36228  0.78777  0.11991  1.0000
  C   C1713     1.0  0.36376  0.90189  0.42767  1.0000
  C   C1714     1.0  0.39745  0.96045  0.37300  1.0000
  H   H1377     1.0  0.32406  0.80229  0.10877  1.0000
  C   C1715     1.0  0.43685  0.95953  0.38007  1.0000
  S   S237      1.0  0.26764  0.71496  0.04048  1.0000
  P   P58       1.0  0.37034  0.95704  0.38504  1.0000
  C   C1716     1.0  0.43907  0.96813  0.35473  1.0000
  C   C1717     1.0  0.31012  0.77385  0.12222  1.0000
  H   H1378     1.0  0.37149  0.69411  0.36076  1.0000
  C   C1718     1.0  0.37320  0.99137  0.14905  1.0000
  C   C1719     1.0  0.49020  0.00098  0.07468  1.0000
  C   C1720     1.0  0.35379  0.94884  0.35745  1.0000
  C   C1721     1.0  0.32426  0.70212  0.03860  1.0000
  H   H1379     1.0  0.31439  0.90318  0.42591  1.0000
  H   H1380     1.0  0.27904  0.76795  0.27151  1.0000
  C   C1722     1.0  0.31426  0.75323  0.13336  1.0000
  H   H1381     1.0  0.28819  0.68767  0.09270  1.0000
  H   H1382     1.0  0.30221  0.95686  0.33073  1.0000
  H   H1383     1.0  0.28772  0.89905  0.38937  1.0000
  C   C1723     1.0  0.32822  0.93448  0.31531  1.0000
  H   H1384     1.0  0.36594  0.71976  0.10435  1.0000
  C   C1724     1.0  0.35010  0.92607  0.31819  1.0000
  C   C1725     1.0  0.39982  0.96929  0.34765  1.0000
  H   H1385     1.0  0.40391  0.70804  0.38287  1.0000
  H   H1386     1.0  0.31851  0.97155  0.17196  1.0000
  C   C1726     1.0  0.37408  0.70716  0.11678  1.0000
  H   H1387     1.0  0.29052  0.81763  0.08001  1.0000
  H   H1388     1.0  0.30071  0.79550  0.29277  1.0000
  H   H1389     1.0  0.35437  0.67670  0.07173  1.0000
  C   C1727     1.0  0.34625  0.72453  0.00100  1.0000
  C   C1728     1.0  0.27190  0.78455  0.27403  1.0000
  H   H1390     1.0  0.49465  0.99604  0.11694  1.0000
  C   C1729     1.0  0.36634  0.97208  0.13883  1.0000
  S   S238      1.0  0.27443  0.91942  0.33833  1.0000
  C   C1730     1.0  0.31918  0.95029  0.33315  1.0000
  S   S239      1.0  0.28740  0.95031  0.40465  1.0000
  H   H1391     1.0  0.32329  0.68320  0.18255  1.0000
  C   C1731     1.0  0.27214  0.85481  0.35359  1.0000
  H   H1392     1.0  0.31513  0.71306  0.10519  1.0000
  C   C1732     1.0  0.29942  0.89593  0.42980  1.0000
  H   H1393     1.0  0.32194  0.96699  0.27724  1.0000
  H   H1394     1.0  0.34139  0.95005  0.13925  1.0000
  H   H1395     1.0  0.31799  0.78486  0.41449  1.0000
  C   C1733     1.0  0.35317  0.75730  0.13437  1.0000
  S   S240      1.0  0.29810  0.79224  0.36260  1.0000
  H   H1396     1.0  0.32425  0.96913  0.36828  1.0000
  C   C1734     1.0  0.32207  0.73659  0.22922  1.0000
  H   H1397     1.0  0.34144  0.73758  0.26526  1.0000
  C   C1735     1.0  0.33182  0.95735  0.35430  1.0000
  H   H1398     1.0  0.37610  0.96272  0.12406  1.0000
  C   C1736     1.0  0.31734  0.77521  0.43230  1.0000
  C   C1737     1.0  0.31577  0.68437  0.16288  1.0000
  C   C1738     1.0  0.32741  0.78623  0.11722  1.0000
  H   H1399     1.0  0.38338  0.95859  0.44107  1.0000
  C   C1739     1.0  0.27469  0.72122  0.98710  1.0000
  C   C1740     1.0  0.34089  0.98236  0.41688  1.0000
  Fe  Fe119     1.0  0.28559  0.75921  0.35725  1.0000
  C   C1741     1.0  0.33129  0.67561  0.30750  1.0000
  H   H1400     1.0  0.41481  0.94937  0.40906  1.0000
  C   C1742     1.0  0.27242  0.78204  0.18225  1.0000
  Fe  Fe120     1.0  0.26431  0.94386  0.37040  1.0000
  H   H1401     1.0  0.33261  0.96784  0.41932  1.0000
  C   C1743     1.0  0.31110  0.70121  0.11952  1.0000
  C   C1744     1.0  0.33415  0.00080  0.43203  1.0000
  H   H1402     1.0  0.33071  0.75359  0.01953  1.0000
  C   C1745     1.0  0.32703  0.75384  0.43251  1.0000
  Fe  Fe121     1.0  0.26519  0.94062  0.11558  1.0000
  C   C1746     1.0  0.37596  0.68563  0.15691  1.0000
  C   C1747     1.0  0.30648  0.78403  0.45482  1.0000
  C   C1748     1.0  0.33360  0.97745  0.16551  1.0000
  P   P59       1.0  0.27114  0.85655  0.19133  1.0000
  H   H1403     1.0  0.33519  0.74699  0.41488  1.0000
  C   C1749     1.0  0.26992  0.94728  0.23909  1.0000
  H   H1404     1.0  0.36924  0.68135  0.17582  1.0000
  C   C1750     1.0  0.32567  0.74117  0.45517  1.0000
  H   H1405     1.0  0.43364  0.68246  0.40151  1.0000
  H   H1406     1.0  0.34062  0.67973  0.40130  1.0000
  C   C1751     1.0  0.39431  0.67298  0.14702  1.0000
  C   C1752     1.0  0.32950  0.68214  0.25983  1.0000
  H   H1407     1.0  0.47633  0.99147  0.07302  1.0000
  C   C1753     1.0  0.39232  0.69434  0.10683  1.0000
  C   C1754     1.0  0.37025  0.90777  0.45335  1.0000
  H   H1408     1.0  0.41103  0.68446  0.97948  1.0000
  C   C1755     1.0  0.27087  0.71668  0.22671  1.0000
  C   C1756     1.0  0.42008  0.67617  0.39096  1.0000
  H   H1409     1.0  0.26425  0.99860  0.42373  1.0000
  C   C1757     1.0  0.26478  0.00383  0.16036  1.0000
  C   C1758     1.0  0.33985  0.99742  0.17485  1.0000
  H   H1410     1.0  0.32086  0.00040  0.44594  1.0000
  C   C1759     1.0  0.26506  0.79564  0.16135  1.0000
  Fe  Fe122     1.0  0.26249  0.93877  0.05416  1.0000
  H   H1411     1.0  0.49916  0.67539  0.36704  1.0000
  C   C1760     1.0  0.50046  0.00364  0.09941  1.0000
  C   C1761     1.0  0.36952  0.00126  0.39747  1.0000
  H   H1412     1.0  0.38357  0.00177  0.38478  1.0000
  C   C1762     1.0  0.35998  0.00199  0.26551  1.0000
  C   C1763     1.0  0.33238  0.00351  0.23013  1.0000
  C   C1764     1.0  0.36012  0.00394  0.16719  1.0000
  H   H1413     1.0  0.45853  0.68721  0.91769  1.0000
  H   H1414     1.0  0.34253  0.71477  0.86245  1.0000
  Fe  Fe123     1.0  0.28884  0.89176  0.58643  1.0000
  S   S241      1.0  0.28143  0.93975  0.90294  1.0000
  C   C1765     1.0  0.27719  0.70658  0.48452  1.0000
  C   C1766     1.0  0.35361  0.72655  0.86823  1.0000
  C   C1767     1.0  0.32530  0.99314  0.67465  1.0000
  C   C1768     1.0  0.26273  0.77826  0.50360  1.0000
  C   C1769     1.0  0.42476  0.68897  0.90463  1.0000
  S   S242      1.0  0.27803  0.94993  0.77105  1.0000
  H   H1415     1.0  0.34372  0.70911  0.91994  1.0000
  H   H1416     1.0  0.30133  0.94861  0.72176  1.0000
  Fe  Fe124     1.0  0.30993  0.93474  0.58323  1.0000
  C   C1770     1.0  0.49654  0.99406  0.66215  1.0000
  S   S243      1.0  0.34038  0.95290  0.58262  1.0000
  C   C1771     1.0  0.29114  0.99089  0.95767  1.0000
  S   S244      1.0  0.30043  0.91095  0.55214  1.0000
  S   S245      1.0  0.30183  0.91378  0.61769  1.0000
  H   H1417     1.0  0.29478  0.89615  0.88459  1.0000
  C   C1772     1.0  0.28688  0.87922  0.71168  1.0000
  H   H1418     1.0  0.37441  0.70035  0.82996  1.0000
  H   H1419     1.0  0.29887  0.87772  0.69593  1.0000
  C   C1773     1.0  0.33182  0.67522  0.80304  1.0000
  H   H1420     1.0  0.35458  0.72583  0.72891  1.0000
  H   H1421     1.0  0.29773  0.83701  0.86816  1.0000
  S   S246      1.0  0.32373  0.68183  0.83603  1.0000
  P   P60       1.0  0.38105  0.69142  0.88757  1.0000
  H   H1422     1.0  0.27411  0.99418  0.75515  1.0000
  C   C1774     1.0  0.39799  0.68751  0.93946  1.0000
  C   C1775     1.0  0.45855  0.00120  0.87752  1.0000
  H   H1423     1.0  0.30014  0.93182  0.95469  1.0000
  C   C1776     1.0  0.28285  0.93678  0.95719  1.0000
  Fe  Fe125     1.0  0.28513  0.75769  0.85567  1.0000
  C   C1777     1.0  0.40281  0.68896  0.91233  1.0000
  C   C1778     1.0  0.31338  0.81987  0.50180  1.0000
  H   H1424     1.0  0.29635  0.80886  0.59496  1.0000
  C   C1779     1.0  0.26653  0.87120  0.70777  1.0000
  H   H1425     1.0  0.33089  0.82179  0.61537  1.0000
  C   C1780     1.0  0.30554  0.77161  0.47796  1.0000
  H   H1426     1.0  0.30206  0.87247  0.52093  1.0000
  H   H1427     1.0  0.48578  0.99774  0.93704  1.0000
  H   H1428     1.0  0.46397  0.97813  0.56706  1.0000
  H   H1429     1.0  0.34350  0.70172  0.69257  1.0000
  H   H1430     1.0  0.31432  0.70336  0.78515  1.0000
  C   C1781     1.0  0.36785  0.98296  0.50807  1.0000
  C   C1782     1.0  0.28296  0.83412  0.85721  1.0000
  C   C1783     1.0  0.36690  0.97860  0.55616  1.0000
  C   C1784     1.0  0.34997  0.96495  0.55361  1.0000
  C   C1785     1.0  0.34164  0.96075  0.52815  1.0000
  C   C1786     1.0  0.35065  0.96960  0.50550  1.0000
  S   S247      1.0  0.29574  0.72906  0.88185  1.0000
  C   C1787     1.0  0.36146  0.76402  0.87070  1.0000
  H   H1431     1.0  0.32865  0.95026  0.52588  1.0000
  H   H1432     1.0  0.34447  0.96584  0.48586  1.0000
  H   H1433     1.0  0.26925  0.76266  0.69748  1.0000
  H   H1434     1.0  0.33378  0.98576  0.69187  1.0000
  H   H1435     1.0  0.32708  0.69385  0.73946  1.0000
  H   H1436     1.0  0.27163  0.87664  0.48078  1.0000
  C   C1788     1.0  0.27107  0.81329  0.67213  1.0000
  C   C1789     1.0  0.31625  0.84176  0.50571  1.0000
  C   C1790     1.0  0.27334  0.86217  0.92782  1.0000
  C   C1791     1.0  0.29301  0.85276  0.93929  1.0000
  H   H1437     1.0  0.30671  0.95016  0.82922  1.0000
  C   C1792     1.0  0.30891  0.96730  0.83044  1.0000
  S   S248      1.0  0.29505  0.85495  0.59011  1.0000
  C   C1793     1.0  0.37573  0.98766  0.53355  1.0000
  C   C1794     1.0  0.32318  0.68340  0.92448  1.0000
  C   C1795     1.0  0.32590  0.97721  0.93865  1.0000
  H   H1438     1.0  0.26212  0.82010  0.52759  1.0000
  C   C1796     1.0  0.31063  0.98933  0.63001  1.0000
  H   H1439     1.0  0.30633  0.89177  0.47169  1.0000
  C   C1797     1.0  0.26441  0.71965  0.75140  1.0000
  C   C1798     1.0  0.27706  0.82595  0.52066  1.0000
  H   H1440     1.0  0.29176  0.93901  0.50154  1.0000
  C   C1799     1.0  0.28439  0.94657  0.71704  1.0000
  H   H1441     1.0  0.28954  0.94484  0.67444  1.0000
  C   C1800     1.0  0.26299  0.80071  0.59553  1.0000
  H   H1442     1.0  0.26315  0.86330  0.68902  1.0000
  H   H1443     1.0  0.35645  0.78103  0.86704  1.0000
  S   S249      1.0  0.27072  0.70165  0.53824  1.0000
  H   H1444     1.0  0.47706  0.98999  0.61098  1.0000
  C   C1801     1.0  0.32506  0.68872  0.78171  1.0000
  S   S250      1.0  0.27125  0.91456  0.83279  1.0000
  S   S251      1.0  0.37972  0.99240  0.47889  1.0000
  H   H1445     1.0  0.30704  0.89639  0.73849  1.0000
  H   H1446     1.0  0.33222  0.98802  0.89940  1.0000
  H   H1447     1.0  0.39250  0.76967  0.88858  1.0000
  H   H1448     1.0  0.31394  0.73979  0.49499  1.0000
  H   H1449     1.0  0.32680  0.80910  0.49388  1.0000
  C   C1802     1.0  0.30042  0.00185  0.91323  1.0000
  C   C1803     1.0  0.30702  0.73981  0.56680  1.0000
  C   C1804     1.0  0.32071  0.75071  0.58357  1.0000
  C   C1805     1.0  0.32560  0.77154  0.57711  1.0000
  C   C1806     1.0  0.31679  0.78148  0.55389  1.0000
  C   C1807     1.0  0.27246  0.71427  0.72581  1.0000
  C   C1808     1.0  0.27930  0.81513  0.59421  1.0000
  C   C1809     1.0  0.46924  0.99422  0.56952  1.0000
  H   H1450     1.0  0.38789  0.68045  0.78986  1.0000
  C   C1810     1.0  0.29696  0.79526  0.77863  1.0000
  C   C1811     1.0  0.28103  0.94171  0.48437  1.0000
  H   H1451     1.0  0.46542  0.98203  0.71462  1.0000
  C   C1812     1.0  0.27845  0.81276  0.85154  1.0000
  H   H1452     1.0  0.29488  0.82421  0.80298  1.0000
  Fe  Fe126     1.0  0.29752  0.70969  0.84338  1.0000
  H   H1453     1.0  0.38214  0.93301  0.47795  1.0000
  H   H1454     1.0  0.28690  0.74147  0.53137  1.0000
  H   H1455     1.0  0.30308  0.72368  0.57178  1.0000
  H   H1456     1.0  0.32735  0.74305  0.60165  1.0000
  H   H1457     1.0  0.33605  0.78010  0.59023  1.0000
  C   C1813     1.0  0.28599  0.00320  0.93484  1.0000
  S   S252      1.0  0.27723  0.95461  0.58386  1.0000
  C   C1814     1.0  0.35735  0.67968  0.89997  1.0000
  H   H1458     1.0  0.29432  0.70199  0.48901  1.0000
  C   C1815     1.0  0.31109  0.97798  0.95961  1.0000
  H   H1459     1.0  0.33186  0.75349  0.85371  1.0000
  H   H1460     1.0  0.31085  0.69335  0.93564  1.0000
  Fe  Fe127     1.0  0.26832  0.93190  0.61563  1.0000
  C   C1816     1.0  0.31803  0.97740  0.80914  1.0000
  C   C1817     1.0  0.38504  0.68547  0.83230  1.0000
  C   C1818     1.0  0.27866  0.79352  0.68415  1.0000
  H   H1461     1.0  0.38122  0.68763  0.94587  1.0000
  P   P61       1.0  0.30607  0.78962  0.69800  1.0000
  C   C1819     1.0  0.32438  0.80410  0.67864  1.0000
  C   C1820     1.0  0.30375  0.80020  0.73159  1.0000
  C   C1821     1.0  0.29996  0.78660  0.75291  1.0000
  H   H1462     1.0  0.44559  0.99408  0.86670  1.0000
  S   S253      1.0  0.26972  0.71162  0.67135  1.0000
  C   C1822     1.0  0.30068  0.83116  0.76196  1.0000
  C   C1823     1.0  0.30375  0.82260  0.73625  1.0000
  C   C1824     1.0  0.34237  0.81272  0.69090  1.0000
  C   C1825     1.0  0.35593  0.82477  0.67606  1.0000
  C   C1826     1.0  0.35173  0.82812  0.64889  1.0000
  C   C1827     1.0  0.33429  0.81898  0.63639  1.0000
  C   C1828     1.0  0.32092  0.80665  0.65108  1.0000
  C   C1829     1.0  0.31752  0.76162  0.69664  1.0000
  C   C1830     1.0  0.31175  0.74796  0.67573  1.0000
  C   C1831     1.0  0.32120  0.72648  0.67425  1.0000
  C   C1832     1.0  0.33655  0.71852  0.69344  1.0000
  C   C1833     1.0  0.34272  0.73213  0.71399  1.0000
  C   C1834     1.0  0.33344  0.75367  0.71545  1.0000
  H   H1463     1.0  0.32286  0.96804  0.79142  1.0000
  C   C1835     1.0  0.31316  0.85873  0.93079  1.0000
  C   C1836     1.0  0.48911  0.98236  0.68331  1.0000
  C   C1837     1.0  0.33236  0.68333  0.75580  1.0000
  H   H1464     1.0  0.28161  0.82619  0.67047  1.0000
  C   C1838     1.0  0.29428  0.88390  0.89972  1.0000
  H   H1465     1.0  0.32066  0.79771  0.54954  1.0000
  C   C1839     1.0  0.31499  0.75000  0.47784  1.0000
  H   H1466     1.0  0.30053  0.84844  0.76554  1.0000
  H   H1467     1.0  0.30569  0.83351  0.71996  1.0000
  H   H1468     1.0  0.34581  0.81028  0.71194  1.0000
  H   H1469     1.0  0.36959  0.83168  0.68568  1.0000
  S   S254      1.0  0.26254  0.70207  0.84493  1.0000
  H   H1470     1.0  0.37345  0.98195  0.57574  1.0000
  H   H1471     1.0  0.30759  0.79952  0.64104  1.0000
  H   H1472     1.0  0.29975  0.75371  0.66071  1.0000
  H   H1473     1.0  0.31614  0.71580  0.65858  1.0000
  H   H1474     1.0  0.36959  0.89661  0.46972  1.0000
  C   C1840     1.0  0.27408  0.87802  0.90821  1.0000
  H   H1475     1.0  0.33865  0.76404  0.73132  1.0000
  C   C1841     1.0  0.38168  0.75758  0.88290  1.0000
  C   C1842     1.0  0.31379  0.87430  0.91098  1.0000
  C   C1843     1.0  0.39073  0.67718  0.85767  1.0000
  C   C1844     1.0  0.26908  0.72114  0.95974  1.0000
  H   H1476     1.0  0.33156  0.84784  0.50047  1.0000
  H   H1477     1.0  0.36194  0.83783  0.63748  1.0000
  C   C1845     1.0  0.27777  0.94436  0.69023  1.0000
  C   C1846     1.0  0.34752  0.74848  0.86323  1.0000
  S   S255      1.0  0.29068  0.73892  0.81743  1.0000
  H   H1478     1.0  0.27959  0.89982  0.77440  1.0000
  C   C1847     1.0  0.44162  0.68728  0.92379  1.0000
  C   C1848     1.0  0.32059  0.98904  0.91551  1.0000
  H   H1479     1.0  0.27061  0.78054  0.90690  1.0000
  C   C1849     1.0  0.30428  0.00162  0.85460  1.0000
  C   C1850     1.0  0.29365  0.81184  0.50897  1.0000
  H   H1480     1.0  0.26770  0.78356  0.59748  1.0000
  H   H1481     1.0  0.29391  0.78484  0.79513  1.0000
  C   C1851     1.0  0.29788  0.74987  0.54388  1.0000
  H   H1482     1.0  0.28907  0.70685  0.72357  1.0000
  C   C1852     1.0  0.30213  0.97933  0.85309  1.0000
  C   C1853     1.0  0.37377  0.71988  0.88066  1.0000
  C   C1854     1.0  0.32108  0.98009  0.65264  1.0000
  C   C1855     1.0  0.27373  0.83757  0.59194  1.0000
  C   C1856     1.0  0.30283  0.77066  0.53705  1.0000
  C   C1857     1.0  0.43670  0.68560  0.95076  1.0000
  H   H1483     1.0  0.27475  0.71615  0.76875  1.0000
  C   C1858     1.0  0.34179  0.69228  0.91541  1.0000
  C   C1859     1.0  0.26187  0.70806  0.50523  1.0000
  C   C1860     1.0  0.29739  0.81750  0.78312  1.0000
  H   H1484     1.0  0.42884  0.69037  0.88381  1.0000
  H   H1485     1.0  0.29875  0.76943  0.74967  1.0000
  H   H1486     1.0  0.28742  0.98520  0.49543  1.0000
  C   C1861     1.0  0.47653  0.00108  0.59444  1.0000
  C   C1862     1.0  0.27601  0.89168  0.75585  1.0000
  H   H1487     1.0  0.26481  0.00319  0.66029  1.0000
  H   H1488     1.0  0.29484  0.97129  0.86925  1.0000
  C   C1863     1.0  0.28004  0.84782  0.52461  1.0000
  P   P62       1.0  0.29125  0.78309  0.50692  1.0000
  C   C1864     1.0  0.47121  0.99108  0.69825  1.0000
  C   C1865     1.0  0.29964  0.85566  0.51727  1.0000
  H   H1489     1.0  0.32632  0.96284  0.65276  1.0000
  H   H1490     1.0  0.30794  0.97926  0.61276  1.0000
  C   C1866     1.0  0.46488  0.99370  0.90289  1.0000
  H   H1491     1.0  0.32935  0.87915  0.90452  1.0000
  C   C1867     1.0  0.29152  0.88966  0.73562  1.0000
  H   H1492     1.0  0.45679  0.98084  0.91182  1.0000
  H   H1493     1.0  0.27205  0.86820  0.85286  1.0000
  S   S256      1.0  0.29728  0.79075  0.86150  1.0000
  H   H1494     1.0  0.34147  0.96730  0.94030  1.0000
  H   H1495     1.0  0.40358  0.73104  0.89727  1.0000
  C   C1868     1.0  0.26842  0.85182  0.84867  1.0000
  C   C1869     1.0  0.38787  0.73559  0.88782  1.0000
  C   C1870     1.0  0.26412  0.77764  0.68720  1.0000
  C   C1871     1.0  0.26923  0.94610  0.73774  1.0000
  H   H1496     1.0  0.38904  0.99777  0.53583  1.0000
  H   H1497     1.0  0.44980  0.68414  0.96556  1.0000
  H   H1498     1.0  0.29725  0.99846  0.71649  1.0000
  H   H1499     1.0  0.28106  0.72419  0.94498  1.0000
  H   H1500     1.0  0.32827  0.85144  0.93974  1.0000
  H   H1501     1.0  0.49724  0.96653  0.68813  1.0000
  H   H1502     1.0  0.26751  0.85855  0.53439  1.0000
  H   H1503     1.0  0.27546  0.81901  0.91392  1.0000
  Fe  Fe128     1.0  0.26735  0.92985  0.55443  1.0000
  H   H1504     1.0  0.30729  0.67276  0.69444  1.0000
  C   C1872     1.0  0.39265  0.67419  0.80941  1.0000
  C   C1873     1.0  0.26939  0.94109  0.93471  1.0000
  C   C1874     1.0  0.41488  0.68579  0.95859  1.0000
  C   C1875     1.0  0.27866  0.00100  0.49178  1.0000
  H   H1505     1.0  0.29271  0.84088  0.95492  1.0000
  H   H1506     1.0  0.46378  0.00250  0.52820  1.0000
  C   C1876     1.0  0.48123  0.00320  0.91709  1.0000
  C   C1877     1.0  0.32045  0.99957  0.81053  1.0000
  H   H1507     1.0  0.51033  0.98696  0.65069  1.0000
  C   C1878     1.0  0.26077  0.81292  0.92124  1.0000
  H   H1508     1.0  0.72032  0.33082  0.29701  1.0000
  H   H1509     1.0  0.72085  0.16232  0.97789  1.0000
  H   H1510     1.0  0.64453  0.01201  0.00239  1.0000
  H   H1511     1.0  0.60236  0.12925  0.27990  1.0000
  C   C1879     1.0  0.72116  0.05027  0.18252  1.0000
  C   C1880     1.0  0.54703  0.08829  0.15504  1.0000
  H   H1512     1.0  0.51136  0.02143  0.18624  1.0000
  S   S257      1.0  0.73213  0.21427  0.02411  1.0000
  C   C1881     1.0  0.53011  0.08481  0.45830  1.0000
  S   S258      1.0  0.73333  0.21297  0.15690  1.0000
  H   H1513     1.0  0.73304  0.26346  0.43163  1.0000
  C   C1882     1.0  0.52802  0.07908  0.14725  1.0000
  Fe  Fe129     1.0  0.72233  0.26583  0.35019  1.0000
  C   C1883     1.0  0.57069  0.06753  0.04824  1.0000
  H   H1514     1.0  0.68227  0.04112  0.43004  1.0000
  Fe  Fe130     1.0  0.70259  0.22207  0.34978  1.0000
  S   S259      1.0  0.73560  0.20316  0.34468  1.0000
  S   S260      1.0  0.67259  0.20336  0.35203  1.0000
  Fe  Fe131     1.0  0.74602  0.22592  0.37639  1.0000
  H   H1515     1.0  0.74862  0.10049  0.40443  1.0000
  Fe  Fe132     1.0  0.74209  0.22875  0.31500  1.0000
  H   H1516     1.0  0.71257  0.07451  0.09017  1.0000
  S   S261      1.0  0.71288  0.24384  0.38265  1.0000
  S   S262      1.0  0.70818  0.24608  0.31743  1.0000
  Fe  Fe133     1.0  0.62801  0.12108  0.45105  1.0000
  S   S263      1.0  0.64828  0.08890  0.45142  1.0000
  H   H1517     1.0  0.74243  0.28764  0.09481  1.0000
  C   C1884     1.0  0.51425  0.03680  0.19535  1.0000
  C   C1885     1.0  0.67011  0.03063  0.43593  1.0000
  C   C1886     1.0  0.63544  0.14819  0.30725  1.0000
  Fe  Fe134     1.0  0.62188  0.08004  0.97981  1.0000
  S   S264      1.0  0.63154  0.05777  0.01461  1.0000
  Fe  Fe135     1.0  0.62393  0.07876  0.42120  1.0000
  S   S265      1.0  0.63735  0.05927  0.38572  1.0000
  S   S266      1.0  0.60241  0.11277  0.97983  1.0000
  S   S267      1.0  0.60488  0.11145  0.41889  1.0000
  Fe  Fe136     1.0  0.62684  0.05978  0.17183  1.0000
  S   S268      1.0  0.63237  0.08261  0.13796  1.0000
  Fe  Fe137     1.0  0.61909  0.06195  0.23241  1.0000
  S   S269      1.0  0.61131  0.02743  0.23436  1.0000
  S   S270      1.0  0.61378  0.08593  0.26640  1.0000
  Fe  Fe138     1.0  0.59186  0.03483  0.19663  1.0000
  H   H1518     1.0  0.67898  0.11484  0.33026  1.0000
  S   S271      1.0  0.64925  0.05501  0.20772  1.0000
  S   S272      1.0  0.59750  0.06987  0.19678  1.0000
  C   C1887     1.0  0.53584  0.04203  0.19924  1.0000
  C   C1888     1.0  0.53936  0.06186  0.21121  1.0000
  C   C1889     1.0  0.56151  0.12979  0.33519  1.0000
  H   H1519     1.0  0.53704  0.12753  0.26108  1.0000
  S   S273      1.0  0.74447  0.24284  0.09195  1.0000
  H   H1520     1.0  0.55579  0.06596  0.21484  1.0000
  H   H1521     1.0  0.68664  0.01335  0.14499  1.0000
  H   H1522     1.0  0.62954  0.29261  0.12509  1.0000
  C   C1890     1.0  0.59371  0.22927  0.35547  1.0000
  C   C1891     1.0  0.59029  0.14214  0.27346  1.0000
  C   C1892     1.0  0.52466  0.04818  0.96931  1.0000
  H   H1523     1.0  0.52600  0.01800  0.12089  1.0000
  H   H1524     1.0  0.56106  0.02573  0.42580  1.0000
  C   C1893     1.0  0.63078  0.06738  0.35277  1.0000
  C   C1894     1.0  0.61219  0.08152  0.34675  1.0000
  C   C1895     1.0  0.60699  0.08680  0.32010  1.0000
  C   C1896     1.0  0.62021  0.07792  0.29934  1.0000
  C   C1897     1.0  0.63887  0.06392  0.30534  1.0000
  C   C1898     1.0  0.64425  0.05887  0.33204  1.0000
  H   H1525     1.0  0.60188  0.08854  0.36254  1.0000
  H   H1526     1.0  0.59271  0.09780  0.31550  1.0000
  H   H1527     1.0  0.64936  0.05729  0.28947  1.0000
  H   H1528     1.0  0.65879  0.04811  0.33663  1.0000
  C   C1899     1.0  0.63108  0.06507  0.04878  1.0000
  C   C1900     1.0  0.63289  0.04858  0.06794  1.0000
  C   C1901     1.0  0.63273  0.05367  0.09535  1.0000
  C   C1902     1.0  0.63128  0.07534  0.10381  1.0000
  C   C1903     1.0  0.62962  0.09181  0.08463  1.0000
  C   C1904     1.0  0.62931  0.08673  0.05722  1.0000
  H   H1529     1.0  0.63439  0.03178  0.06155  1.0000
  H   H1530     1.0  0.63412  0.04084  0.10991  1.0000
  H   H1531     1.0  0.62858  0.10861  0.09104  1.0000
  H   H1532     1.0  0.62803  0.09955  0.04267  1.0000
  C   C1905     1.0  0.66664  0.18853  0.38071  1.0000
  C   C1906     1.0  0.65193  0.17266  0.37816  1.0000
  C   C1907     1.0  0.64611  0.16084  0.40029  1.0000
  C   C1908     1.0  0.65495  0.16476  0.42544  1.0000
  C   C1909     1.0  0.66991  0.18050  0.42814  1.0000
  C   C1910     1.0  0.67578  0.19231  0.40587  1.0000
  H   H1533     1.0  0.64515  0.16941  0.35885  1.0000
  H   H1534     1.0  0.63458  0.14885  0.39803  1.0000
  H   H1535     1.0  0.67693  0.18363  0.44751  1.0000
  H   H1536     1.0  0.68712  0.20450  0.40825  1.0000
  H   H1537     1.0  0.56169  0.00961  0.33610  1.0000
  H   H1538     1.0  0.75292  0.27763  0.14430  1.0000
  C   C1911     1.0  0.58257  0.14201  0.24714  1.0000
  C   C1912     1.0  0.74395  0.21449  0.99219  1.0000
  H   H1539     1.0  0.54489  0.03372  0.25729  1.0000
  C   C1913     1.0  0.73410  0.21849  0.44664  1.0000
  C   C1914     1.0  0.75757  0.13341  0.40692  1.0000
  H   H1540     1.0  0.59423  0.24558  0.36330  1.0000
  H   H1541     1.0  0.65134  0.20628  0.18340  1.0000
  H   H1542     1.0  0.72318  0.21793  0.42964  1.0000
  H   H1543     1.0  0.51506  0.06725  0.04859  1.0000
  C   C1915     1.0  0.55395  0.02221  0.27045  1.0000
  H   H1544     1.0  0.52187  0.02940  0.03604  1.0000
  H   H1545     1.0  0.68244  0.06275  0.12162  1.0000
  C   C1916     1.0  0.73249  0.21916  0.23780  1.0000
  C   C1917     1.0  0.72630  0.21634  0.21090  1.0000
  C   C1918     1.0  0.55325  0.09255  0.01596  1.0000
  C   C1919     1.0  0.54818  0.11873  0.35156  1.0000
  H   H1546     1.0  0.72060  0.21847  0.25343  1.0000
  H   H1547     1.0  0.70957  0.21356  0.20595  1.0000
  C   C1920     1.0  0.69208  0.16736  0.00150  1.0000
  C   C1921     1.0  0.56625  0.17473  0.28252  1.0000
  C   C1922     1.0  0.66234  0.03148  0.46199  1.0000
  C   C1923     1.0  0.58212  0.01502  0.05917  1.0000
  C   C1924     1.0  0.74473  0.10135  0.00269  1.0000
  C   C1925     1.0  0.61310  0.01291  0.98269  1.0000
  C   C1926     1.0  0.72839  0.16122  0.39474  1.0000
  C   C1927     1.0  0.71427  0.14530  0.38955  1.0000
  C   C1928     1.0  0.72170  0.12344  0.39288  1.0000
  C   C1929     1.0  0.75415  0.28490  0.25816  1.0000
  H   H1548     1.0  0.72255  0.17819  0.39229  1.0000
  H   H1549     1.0  0.69753  0.14994  0.38302  1.0000
  C   C1930     1.0  0.67004  0.13720  0.00450  1.0000
  C   C1931     1.0  0.56693  0.06882  0.11941  1.0000
  C   C1932     1.0  0.53276  0.08654  0.02303  1.0000
  H   H1550     1.0  0.65621  0.28228  0.08562  1.0000
  H   H1551     1.0  0.71675  0.27721  0.12156  1.0000
  S   S274      1.0  0.71612  0.30265  0.35204  1.0000
  H   H1552     1.0  0.65241  0.29485  0.21805  1.0000
  H   H1553     1.0  0.55963  0.18742  0.29595  1.0000
  C   C1933     1.0  0.56345  0.00874  0.31468  1.0000
  H   H1554     1.0  0.56180  0.07010  0.41647  1.0000
  H   H1555     1.0  0.71679  0.29901  0.41442  1.0000
  H   H1556     1.0  0.51305  0.08284  0.15834  1.0000
  C   C1934     1.0  0.52888  0.14059  0.11269  1.0000
  C   C1935     1.0  0.53486  0.07142  0.29431  1.0000
  H   H1557     1.0  0.72062  0.27952  0.96890  1.0000
  C   C1936     1.0  0.73211  0.30985  0.98166  1.0000
  C   C1937     1.0  0.54754  0.12310  0.37893  1.0000
  H   H1558     1.0  0.73320  0.25994  0.00977  1.0000
  C   C1938     1.0  0.73031  0.21516  0.96946  1.0000
  H   H1559     1.0  0.69509  0.18382  0.00686  1.0000
  H   H1560     1.0  0.57390  0.02087  0.12615  1.0000
  H   H1561     1.0  0.61008  0.02386  0.31431  1.0000
  H   H1562     1.0  0.54448  0.14622  0.11841  1.0000
  H   H1563     1.0  0.66191  0.26330  0.04274  1.0000
  C   C1939     1.0  0.67369  0.15851  0.01119  1.0000
  C   C1940     1.0  0.70331  0.06609  0.18434  1.0000
  H   H1564     1.0  0.71453  0.31923  0.09965  1.0000
  H   H1565     1.0  0.54678  0.09909  0.17218  1.0000
  H   H1566     1.0  0.73121  0.04613  0.20000  1.0000
  H   H1567     1.0  0.51337  0.05834  0.11926  1.0000
  P   P63       1.0  0.53448  0.04651  0.31239  1.0000
  C   C1941     1.0  0.62000  0.14464  0.32677  1.0000
  H   H1568     1.0  0.58458  0.16034  0.38280  1.0000
  C   C1942     1.0  0.74011  0.27268  0.18324  1.0000
  C   C1943     1.0  0.65664  0.13752  0.30856  1.0000
  H   H1569     1.0  0.58217  0.06510  0.10884  1.0000
  H   H1570     1.0  0.66846  0.14036  0.29347  1.0000
  H   H1571     1.0  0.74892  0.05482  0.08050  1.0000
  C   C1944     1.0  0.75123  0.33711  0.16547  1.0000
  H   H1572     1.0  0.56194  0.12603  0.31412  1.0000
  C   C1945     1.0  0.64041  0.30527  0.12740  1.0000
  H   H1573     1.0  0.74712  0.03225  0.33108  1.0000
  H   H1574     1.0  0.58938  0.05654  0.38330  1.0000
  C   C1946     1.0  0.53424  0.06711  0.39008  1.0000
  C   C1947     1.0  0.51744  0.10725  0.28321  1.0000
  C   C1948     1.0  0.58246  0.15865  0.29126  1.0000
  C   C1949     1.0  0.68259  0.30809  0.22810  1.0000
  C   C1950     1.0  0.61973  0.00847  0.35165  1.0000
  C   C1951     1.0  0.75762  0.03982  0.08724  1.0000
  C   C1952     1.0  0.68601  0.04233  0.03382  1.0000
  Fe  Fe139     1.0  0.75414  0.21814  0.06012  1.0000
  C   C1953     1.0  0.59294  0.18654  0.33635  1.0000
  H   H1575     1.0  0.58556  0.06071  0.05815  1.0000
  C   C1954     1.0  0.66261  0.12320  0.32931  1.0000
  H   H1576     1.0  0.69957  0.07434  0.20314  1.0000
  C   C1955     1.0  0.65360  0.32659  0.20119  1.0000
  C   C1956     1.0  0.71229  0.04421  0.13581  1.0000
  C   C1957     1.0  0.74771  0.31272  0.41392  1.0000
  C   C1958     1.0  0.55835  0.17445  0.25621  1.0000
  C   C1959     1.0  0.51579  0.02283  0.05408  1.0000
  C   C1960     1.0  0.67636  0.31681  0.13680  1.0000
  C   C1961     1.0  0.66974  0.25643  0.06064  1.0000
  C   C1962     1.0  0.68322  0.23693  0.05903  1.0000
  C   C1963     1.0  0.69355  0.22814  0.08195  1.0000
  C   C1964     1.0  0.69061  0.23892  0.10646  1.0000
  C   C1965     1.0  0.67702  0.25851  0.10842  1.0000
  C   C1966     1.0  0.66656  0.26716  0.08519  1.0000
  P   P64       1.0  0.67312  0.27210  0.14048  1.0000
  C   C1967     1.0  0.65537  0.25743  0.16064  1.0000
  C   C1968     1.0  0.63577  0.00769  0.98452  1.0000
  C   C1969     1.0  0.62481  0.25683  0.19101  1.0000
  H   H1577     1.0  0.52218  0.07327  0.40457  1.0000
  C   C1970     1.0  0.63773  0.26831  0.17456  1.0000
  H   H1578     1.0  0.61118  0.26529  0.20162  1.0000
  H   H1579     1.0  0.68598  0.22876  0.03996  1.0000
  H   H1580     1.0  0.70439  0.21322  0.08055  1.0000
  H   H1581     1.0  0.69946  0.23218  0.12370  1.0000
  H   H1582     1.0  0.57782  0.04724  0.33769  1.0000
  C   C1971     1.0  0.70126  0.26864  0.18495  1.0000
  H   H1583     1.0  0.63407  0.28567  0.17326  1.0000
  C   C1972     1.0  0.57210  0.05773  0.37804  1.0000
  C   C1973     1.0  0.70664  0.15505  0.98476  1.0000
  C   C1974     1.0  0.52154  0.07672  0.21813  1.0000
  C   C1975     1.0  0.68459  0.12483  0.98779  1.0000
  H   H1584     1.0  0.60444  0.02143  0.99900  1.0000
  C   C1976     1.0  0.52837  0.06486  0.12538  1.0000
  H   H1585     1.0  0.76047  0.16808  0.40699  1.0000
  C   C1977     1.0  0.72557  0.03928  0.15839  1.0000
  C   C1978     1.0  0.71808  0.27501  0.14284  1.0000
  C   C1979     1.0  0.68652  0.06473  0.03182  1.0000
  S   S275      1.0  0.55817  0.02390  0.18863  1.0000
  S   S276      1.0  0.60271  0.06572  0.45220  1.0000
  C   C1980     1.0  0.74705  0.01874  0.31720  1.0000
  C   C1981     1.0  0.55022  0.06105  0.05508  1.0000
  C   C1982     1.0  0.74836  0.30982  0.02587  1.0000
  H   H1586     1.0  0.67545  0.08252  0.16379  1.0000
  C   C1983     1.0  0.56041  0.13837  0.38997  1.0000
  H   H1587     1.0  0.75190  0.17055  0.19791  1.0000
  C   C1984     1.0  0.74998  0.15535  0.40323  1.0000
  H   H1588     1.0  0.75720  0.13229  0.21265  1.0000
  H   H1589     1.0  0.68151  0.10838  0.98274  1.0000
  H   H1590     1.0  0.61967  0.22557  0.20689  1.0000
  H   H1591     1.0  0.56021  0.22717  0.36665  1.0000
  C   C1985     1.0  0.70276  0.13378  0.97736  1.0000
  H   H1592     1.0  0.53190  0.03264  0.97642  1.0000
  C   C1986     1.0  0.53116  0.07119  0.04291  1.0000
  C   C1987     1.0  0.56545  0.05213  0.35237  1.0000
  P   P65       1.0  0.71722  0.02860  0.10550  1.0000
  H   H1593     1.0  0.69626  0.09364  0.05070  1.0000
  C   C1988     1.0  0.74340  0.27623  0.42788  1.0000
  C   C1989     1.0  0.69496  0.03136  0.05626  1.0000
  C   C1990     1.0  0.51812  0.01623  0.10160  1.0000
  C   C1991     1.0  0.57218  0.08308  0.02866  1.0000
  H   H1594     1.0  0.75000  0.11225  0.45494  1.0000
  C   C1992     1.0  0.73841  0.27550  0.15572  1.0000
  H   H1595     1.0  0.71090  0.32520  0.23515  1.0000
  C   C1993     1.0  0.52553  0.02643  0.07907  1.0000
  H   H1596     1.0  0.55927  0.18977  0.34968  1.0000
  C   C1994     1.0  0.70524  0.06529  0.07456  1.0000
  H   H1597     1.0  0.51817  0.09352  0.01271  1.0000
  H   H1598     1.0  0.73393  0.04156  0.98963  1.0000
  H   H1599     1.0  0.57527  0.02044  0.04009  1.0000
  H   H1600     1.0  0.68722  0.26555  0.19660  1.0000
  H   H1601     1.0  0.74718  0.11813  0.00706  1.0000
  H   H1602     1.0  0.63113  0.15927  0.29105  1.0000
  H   H1603     1.0  0.71277  0.21521  0.97165  1.0000
  H   H1604     1.0  0.53850  0.10661  0.34306  1.0000
  H   H1605     1.0  0.67798  0.03362  0.01829  1.0000
  H   H1606     1.0  0.58811  0.08771  0.02339  1.0000
  S   S277      1.0  0.61998  0.02494  0.16924  1.0000
  H   H1607     1.0  0.53733  0.11450  0.39174  1.0000
  C   C1995     1.0  0.74163  0.21706  0.19040  1.0000
  C   C1996     1.0  0.74744  0.30372  0.09580  1.0000
  S   S278      1.0  0.64718  0.15069  0.45385  1.0000
  C   C1997     1.0  0.69617  0.07621  0.05214  1.0000
  C   C1998     1.0  0.72196  0.29777  0.28333  1.0000
  C   C1999     1.0  0.73426  0.29629  0.41850  1.0000
  C   C2000     1.0  0.57252  0.02305  0.08301  1.0000
  Fe  Fe140     1.0  0.64008  0.02066  0.20715  1.0000
  C   C2001     1.0  0.51666  0.08711  0.29523  1.0000
  C   C2002     1.0  0.57447  0.14519  0.34610  1.0000
  C   C2003     1.0  0.57409  0.14915  0.37373  1.0000
  C   C2004     1.0  0.64741  0.11961  0.34883  1.0000
  C   C2005     1.0  0.62621  0.13027  0.34757  1.0000
  C   C2006     1.0  0.61227  0.21856  0.34357  1.0000
  C   C2007     1.0  0.61184  0.19740  0.33379  1.0000
  H   H1608     1.0  0.55446  0.10444  0.00052  1.0000
  H   H1609     1.0  0.67429  0.22623  0.15486  1.0000
  H   H1610     1.0  0.68909  0.29407  0.23947  1.0000
  H   H1611     1.0  0.52441  0.09240  0.22610  1.0000
  H   H1612     1.0  0.61480  0.12716  0.36292  1.0000
  H   H1613     1.0  0.65196  0.10843  0.36490  1.0000
  C   C2008     1.0  0.56658  0.15815  0.23849  1.0000
  H   H1614     1.0  0.62724  0.22645  0.34231  1.0000
  H   H1615     1.0  0.62651  0.18960  0.32474  1.0000
  H   H1616     1.0  0.54347  0.10993  0.09739  1.0000
  H   H1617     1.0  0.60071  0.02339  0.41638  1.0000
  C   C2009     1.0  0.52749  0.06130  0.36453  1.0000
  C   C2010     1.0  0.55480  0.09663  0.27004  1.0000
  C   C2011     1.0  0.55412  0.07649  0.28209  1.0000
  Fe  Fe141     1.0  0.58501  0.09919  0.45219  1.0000
  C   C2012     1.0  0.73168  0.32169  0.09818  1.0000
  C   C2013     1.0  0.70454  0.04277  0.07697  1.0000
  C   C2014     1.0  0.55227  0.02452  0.29820  1.0000
  C   C2015     1.0  0.57461  0.21886  0.35742  1.0000
  H   H1618     1.0  0.75549  0.33771  0.27778  1.0000
  H   H1619     1.0  0.69347  0.31358  0.14230  1.0000
  C   C2016     1.0  0.58133  0.01531  0.10747  1.0000
  C   C2017     1.0  0.69395  0.05964  0.13806  1.0000
  H   H1620     1.0  0.72310  0.32752  0.18496  1.0000
  C   C2018     1.0  0.73730  0.05818  0.99305  1.0000
  H   H1621     1.0  0.56049  0.15790  0.21812  1.0000
  H   H1622     1.0  0.75590  0.32102  0.15748  1.0000
  C   C2019     1.0  0.56958  0.01049  0.41910  1.0000
  H   H1623     1.0  0.75081  0.27925  0.04637  1.0000
  C   C2020     1.0  0.75419  0.22236  0.24441  1.0000
  C   C2021     1.0  0.54792  0.05940  0.11154  1.0000
  C   C2022     1.0  0.63243  0.32672  0.12182  1.0000
  C   C2023     1.0  0.54303  0.05323  0.34569  1.0000
  C   C2024     1.0  0.66148  0.01697  0.41700  1.0000
  H   H1624     1.0  0.58892  0.12916  0.23360  1.0000
  H   H1625     1.0  0.56947  0.10017  0.25996  1.0000
  H   H1626     1.0  0.56867  0.06499  0.28182  1.0000
  C   C2025     1.0  0.66245  0.30011  0.13511  1.0000
  C   C2026     1.0  0.69938  0.27166  0.15733  1.0000
  H   H1627     1.0  0.70697  0.29462  0.29314  1.0000
  C   C2027     1.0  0.62301  0.01450  0.32534  1.0000
  C   C2028     1.0  0.68972  0.07073  0.16214  1.0000
  C   C2029     1.0  0.66025  0.23499  0.16424  1.0000
  C   C2030     1.0  0.73427  0.28114  0.26964  1.0000
  H   H1628     1.0  0.72311  0.26610  0.21893  1.0000
  P   P66       1.0  0.54853  0.04243  0.08212  1.0000
  C   C2031     1.0  0.74325  0.11749  0.40152  1.0000
  C   C2032     1.0  0.74219  0.32094  0.00226  1.0000
  H   H1629     1.0  0.58120  0.09053  0.14675  1.0000
  C   C2033     1.0  0.73821  0.31901  0.35043  1.0000
  H   H1630     1.0  0.67887  0.07324  0.01480  1.0000
  H   H1631     1.0  0.75588  0.27250  0.19318  1.0000
  C   C2034     1.0  0.56642  0.08332  0.14094  1.0000
  H   H1632     1.0  0.65560  0.13047  0.01170  1.0000
  H   H1633     1.0  0.73892  0.02648  0.15760  1.0000
  C   C2035     1.0  0.62957  0.23447  0.19403  1.0000
  H   H1634     1.0  0.66218  0.16822  0.02370  1.0000
  P   P67       1.0  0.59265  0.15866  0.32524  1.0000
  H   H1635     1.0  0.71063  0.11116  0.38902  1.0000
  H   H1636     1.0  0.74058  0.32822  0.40653  1.0000
  H   H1637     1.0  0.60405  0.01322  0.36064  1.0000
  C   C2036     1.0  0.57418  0.19761  0.34786  1.0000
  C   C2037     1.0  0.66194  0.30851  0.21592  1.0000
  C   C2038     1.0  0.72951  0.31823  0.28550  1.0000
  C   C2039     1.0  0.73562  0.27693  0.00773  1.0000
  C   C2040     1.0  0.55653  0.06533  0.39681  1.0000
  C   C2041     1.0  0.64735  0.22358  0.18074  1.0000
  H   H1638     1.0  0.66727  0.01710  0.39675  1.0000
  C   C2042     1.0  0.53654  0.11205  0.27072  1.0000
  C   C2043     1.0  0.73350  0.09588  0.97937  1.0000
  C   C2044     1.0  0.74657  0.02423  0.10029  1.0000
  S   S279      1.0  0.75629  0.24946  0.34655  1.0000
  C   C2045     1.0  0.72157  0.26922  0.19782  1.0000
  H   H1639     1.0  0.54581  0.18687  0.24957  1.0000
  H   H1640     1.0  0.56017  0.14137  0.41131  1.0000
  C   C2046     1.0  0.72869  0.28800  0.98457  1.0000
  C   C2047     1.0  0.52833  0.12013  0.10089  1.0000
  H   H1641     1.0  0.72889  0.26500  0.26883  1.0000
  H   H1642     1.0  0.75547  0.31814  0.04239  1.0000
  S   S280      1.0  0.54768  0.10525  0.45203  1.0000
  C   C2048     1.0  0.72941  0.07421  0.97501  1.0000
  Fe  Fe142     1.0  0.75558  0.21695  0.12157  1.0000
  C   C2049     1.0  0.74547  0.28785  0.02837  1.0000
  H   H1643     1.0  0.74217  0.16800  0.45976  1.0000
  C   C2050     1.0  0.69487  0.32576  0.22570  1.0000
  C   C2051     1.0  0.64329  0.00914  0.31340  1.0000
  C   C2052     1.0  0.75271  0.08524  0.02065  1.0000
  C   C2053     1.0  0.74910  0.06363  0.01572  1.0000
  H   H1644     1.0  0.75523  0.05111  0.02956  1.0000
  H   H1645     1.0  0.64587  0.01402  0.29309  1.0000
  C   C2054     1.0  0.74952  0.32204  0.27436  1.0000
  C   C2055     1.0  0.59206  0.00904  0.41401  1.0000
  C   C2056     1.0  0.75679  0.21667  0.44301  1.0000
  H   H1646     1.0  0.69395  0.01410  0.05745  1.0000
  H   H1647     1.0  0.63762  0.32691  0.19162  1.0000
  H   H1648     1.0  0.61547  0.33054  0.11568  1.0000
  C   C2057     1.0  0.76002  0.31015  0.34792  1.0000
  C   C2058     1.0  0.66841  0.33813  0.13073  1.0000
  C   C2059     1.0  0.53823  0.06369  0.46537  1.0000
  C   C2060     1.0  0.52544  0.02312  0.62627  1.0000
  C   C2061     1.0  0.70613  0.02124  0.51609  1.0000
  H   H1649     1.0  0.74843  0.10686  0.50330  1.0000
  H   H1650     1.0  0.65929  0.02543  0.91850  1.0000
  H   H1651     1.0  0.74939  0.07378  0.84123  1.0000
  C   C2062     1.0  0.56835  0.14634  0.51870  1.0000
  H   H1652     1.0  0.74246  0.29353  0.60075  1.0000
  S   S281      1.0  0.72821  0.22377  0.52694  1.0000
  H   H1653     1.0  0.72681  0.31789  0.96341  1.0000
  S   S282      1.0  0.73779  0.21096  0.65853  1.0000
  H   H1654     1.0  0.56667  0.07586  0.90276  1.0000
  H   H1655     1.0  0.68673  0.05611  0.59067  1.0000
  Fe  Fe143     1.0  0.72478  0.25753  0.84183  1.0000
  C   C2063     1.0  0.70972  0.10602  0.92784  1.0000
  H   H1656     1.0  0.68345  0.08235  0.86422  1.0000
  Fe  Fe144     1.0  0.71018  0.21147  0.84408  1.0000
  S   S283      1.0  0.74499  0.19589  0.84384  1.0000
  S   S284      1.0  0.68315  0.18882  0.84345  1.0000
  H   H1657     1.0  0.52222  0.04176  0.77364  1.0000
  H   H1658     1.0  0.64893  0.01947  0.76817  1.0000
  H   H1659     1.0  0.51952  0.11954  0.72537  1.0000
  C   C2064     1.0  0.51780  0.10267  0.72097  1.0000
  S   S285      1.0  0.71584  0.23648  0.87559  1.0000
  S   S286      1.0  0.71526  0.23410  0.81006  1.0000
  Fe  Fe145     1.0  0.62511  0.12108  0.94724  1.0000
  S   S287      1.0  0.64625  0.08932  0.95004  1.0000
  S   S288      1.0  0.64102  0.15261  0.94733  1.0000
  Fe  Fe146     1.0  0.58269  0.09886  0.94679  1.0000
  C   C2065     1.0  0.55883  0.06236  0.89440  1.0000
  H   H1660     1.0  0.57808  0.11147  0.57016  1.0000
  Fe  Fe147     1.0  0.62517  0.07935  0.48256  1.0000
  S   S289      1.0  0.63683  0.05906  0.51857  1.0000
  Fe  Fe148     1.0  0.62341  0.07827  0.91864  1.0000
  S   S290      1.0  0.63612  0.05776  0.88363  1.0000
  S   S291      1.0  0.60629  0.11218  0.48442  1.0000
  S   S292      1.0  0.60355  0.11033  0.91430  1.0000
  Fe  Fe149     1.0  0.62569  0.07376  0.67506  1.0000
  S   S293      1.0  0.62783  0.09406  0.63789  1.0000
  Fe  Fe150     1.0  0.62796  0.07865  0.73591  1.0000
  S   S294      1.0  0.61543  0.04653  0.74307  1.0000
  S   S295      1.0  0.63672  0.10072  0.76958  1.0000
  Fe  Fe151     1.0  0.59175  0.05548  0.70960  1.0000
  H   H1661     1.0  0.53840  0.12004  0.86587  1.0000
  S   S296      1.0  0.65280  0.06653  0.70545  1.0000
  S   S297      1.0  0.60194  0.08887  0.70536  1.0000
  C   C2066     1.0  0.53435  0.06594  0.71267  1.0000
  C   C2067     1.0  0.53660  0.08789  0.71763  1.0000
  H   H1662     1.0  0.74834  0.29761  0.78813  1.0000
  C   C2068     1.0  0.54009  0.12172  0.52038  1.0000
  C   C2069     1.0  0.52043  0.12144  0.80986  1.0000
  H   H1663     1.0  0.55275  0.09339  0.71959  1.0000
  H   H1664     1.0  0.55275  0.13900  0.90483  1.0000
  H   H1665     1.0  0.73377  0.32492  0.46825  1.0000
  C   C2070     1.0  0.73934  0.27503  0.91975  1.0000
  H   H1666     1.0  0.52073  0.06512  0.64935  1.0000
  C   C2071     1.0  0.55038  0.06452  0.54286  1.0000
  S   S298      1.0  0.55708  0.04632  0.71001  1.0000
  C   C2072     1.0  0.52909  0.08418  0.95261  1.0000
  C   C2073     1.0  0.63689  0.07025  0.85229  1.0000
  C   C2074     1.0  0.63121  0.09253  0.84917  1.0000
  C   C2075     1.0  0.63146  0.10185  0.82378  1.0000
  C   C2076     1.0  0.63692  0.08887  0.80132  1.0000
  C   C2077     1.0  0.64293  0.06667  0.80449  1.0000
  C   C2078     1.0  0.64320  0.05747  0.82995  1.0000
  H   H1667     1.0  0.62666  0.10266  0.86620  1.0000
  H   H1668     1.0  0.62708  0.11909  0.82150  1.0000
  H   H1669     1.0  0.64771  0.05666  0.78736  1.0000
  H   H1670     1.0  0.64823  0.04039  0.83227  1.0000
  C   C2079     1.0  0.63263  0.06886  0.55153  1.0000
  C   C2080     1.0  0.63494  0.05417  0.57276  1.0000
  C   C2081     1.0  0.63268  0.06153  0.59934  1.0000
  C   C2082     1.0  0.62843  0.08371  0.60487  1.0000
  C   C2083     1.0  0.62605  0.09837  0.58361  1.0000
  C   C2084     1.0  0.62794  0.09099  0.55704  1.0000
  H   H1671     1.0  0.63855  0.03703  0.56865  1.0000
  H   H1672     1.0  0.63479  0.05013  0.61557  1.0000
  H   H1673     1.0  0.62297  0.11557  0.58776  1.0000
  H   H1674     1.0  0.62635  0.10247  0.54090  1.0000
  C   C2085     1.0  0.67210  0.17858  0.87267  1.0000
  C   C2086     1.0  0.65632  0.16368  0.87013  1.0000
  C   C2087     1.0  0.64693  0.15536  0.89282  1.0000
  C   C2088     1.0  0.65306  0.16207  0.91831  1.0000
  C   C2089     1.0  0.66903  0.17678  0.92089  1.0000
  C   C2090     1.0  0.67863  0.18490  0.89819  1.0000
  H   H1675     1.0  0.65116  0.15871  0.85049  1.0000
  H   H1676     1.0  0.63462  0.14413  0.89055  1.0000
  H   H1677     1.0  0.67392  0.18198  0.94055  1.0000
  H   H1678     1.0  0.69079  0.19630  0.90044  1.0000
  C   C2091     1.0  0.73518  0.15020  0.92668  1.0000
  C   C2092     1.0  0.70428  0.09205  0.55507  1.0000
  H   H1679     1.0  0.71334  0.08181  0.56960  1.0000
  C   C2093     1.0  0.73947  0.22106  0.49476  1.0000
  H   H1680     1.0  0.57024  0.00933  0.87705  1.0000
  C   C2094     1.0  0.73924  0.21585  0.94385  1.0000
  C   C2095     1.0  0.69217  0.05847  0.61097  1.0000
  C   C2096     1.0  0.53851  0.02761  0.87300  1.0000
  C   C2097     1.0  0.52615  0.04776  0.87679  1.0000
  H   H1681     1.0  0.72856  0.21621  0.92654  1.0000
  H   H1682     1.0  0.68619  0.25542  0.75585  1.0000
  H   H1683     1.0  0.52826  0.04239  0.82232  1.0000
  H   H1684     1.0  0.51610  0.09286  0.78569  1.0000
  C   C2098     1.0  0.73087  0.02136  0.55417  1.0000
  C   C2099     1.0  0.74120  0.21432  0.73920  1.0000
  C   C2100     1.0  0.73356  0.21330  0.71271  1.0000
  C   C2101     1.0  0.74619  0.01372  0.61604  1.0000
  C   C2102     1.0  0.74844  0.30926  0.59930  1.0000
  H   H1685     1.0  0.72987  0.21396  0.75547  1.0000
  H   H1686     1.0  0.71630  0.21220  0.70877  1.0000
  H   H1687     1.0  0.69997  0.26315  0.71164  1.0000
  C   C2103     1.0  0.53651  0.06511  0.88767  1.0000
  H   H1688     1.0  0.70859  0.06764  0.68490  1.0000
  H   H1689     1.0  0.68811  0.28199  0.79287  1.0000
  C   C2104     1.0  0.54247  0.10923  0.60838  1.0000
  H   H1690     1.0  0.71248  0.19445  0.56297  1.0000
  H   H1691     1.0  0.62012  0.01578  0.83006  1.0000
  C   C2105     1.0  0.70287  0.30515  0.76904  1.0000
  H   H1692     1.0  0.74905  0.33393  0.76902  1.0000
  H   H1693     1.0  0.73938  0.08657  0.91611  1.0000
  H   H1694     1.0  0.66167  0.10913  0.89244  1.0000
  C   C2106     1.0  0.54642  0.08989  0.59354  1.0000
  S   S299      1.0  0.60092  0.06574  0.94842  1.0000
  H   H1695     1.0  0.75178  0.32787  0.66517  1.0000
  C   C2107     1.0  0.69460  0.18221  0.62416  1.0000
  H   H1696     1.0  0.74194  0.11562  0.72181  1.0000
  C   C2108     1.0  0.70683  0.04297  0.62384  1.0000
  H   H1697     1.0  0.70790  0.22216  0.47507  1.0000
  S   S300      1.0  0.54558  0.10472  0.94349  1.0000
  H   H1698     1.0  0.72389  0.03462  0.66093  1.0000
  H   H1699     1.0  0.66079  0.21869  0.48674  1.0000
  C   C2109     1.0  0.71023  0.26534  0.65998  1.0000
  C   C2110     1.0  0.69915  0.25579  0.63914  1.0000
  C   C2111     1.0  0.68600  0.26868  0.62140  1.0000
  C   C2112     1.0  0.72547  0.22076  0.47244  1.0000
  H   H1700     1.0  0.75411  0.29000  0.64908  1.0000
  C   C2113     1.0  0.71647  0.13483  0.85453  1.0000
  H   H1701     1.0  0.72247  0.07111  0.87604  1.0000
  H   H1702     1.0  0.72687  0.02438  0.89697  1.0000
  H   H1703     1.0  0.52730  0.14859  0.77041  1.0000
  H   H1704     1.0  0.71835  0.32458  0.74136  1.0000
  H   H1705     1.0  0.55587  0.06055  0.96320  1.0000
  H   H1706     1.0  0.57558  0.15935  0.50892  1.0000
  C   C2114     1.0  0.69429  0.30079  0.64596  1.0000
  C   C2115     1.0  0.70462  0.19324  0.60434  1.0000
  H   H1707     1.0  0.70110  0.01215  0.84169  1.0000
  H   H1708     1.0  0.72093  0.25508  0.67299  1.0000
  H   H1709     1.0  0.70107  0.23835  0.63657  1.0000
  H   H1710     1.0  0.67783  0.26120  0.60493  1.0000
  C   C2116     1.0  0.72232  0.09135  0.91127  1.0000
  C   C2117     1.0  0.55766  0.07165  0.60568  1.0000
  C   C2118     1.0  0.68365  0.29119  0.62474  1.0000
  C   C2119     1.0  0.54908  0.11010  0.63511  1.0000
  H   H1711     1.0  0.64000  0.01918  0.48942  1.0000
  H   H1712     1.0  0.70047  0.11023  0.79766  1.0000
  C   C2120     1.0  0.57858  0.13647  0.54112  1.0000
  Fe  Fe152     1.0  0.63879  0.03474  0.71096  1.0000
  C   C2121     1.0  0.74804  0.11636  0.83208  1.0000
  C   C2122     1.0  0.68987  0.08065  0.65111  1.0000
  H   H1713     1.0  0.62354  0.20642  0.48895  1.0000
  H   H1714     1.0  0.59376  0.14183  0.54881  1.0000
  C   C2123     1.0  0.71247  0.01592  0.89975  1.0000
  H   H1715     1.0  0.52750  0.08069  0.89159  1.0000
  H   H1716     1.0  0.67625  0.15531  0.63285  1.0000
  H   H1717     1.0  0.58420  0.01230  0.95796  1.0000
  C   C2124     1.0  0.73357  0.32807  0.60024  1.0000
  H   H1718     1.0  0.69197  0.04460  0.91214  1.0000
  H   H1719     1.0  0.56167  0.05680  0.59453  1.0000
  C   C2125     1.0  0.76001  0.03006  0.61155  1.0000
  H   H1720     1.0  0.68844  0.33570  0.70264  1.0000
  C   C2126     1.0  0.72791  0.29388  0.90974  1.0000
  H   H1721     1.0  0.67270  0.08930  0.61451  1.0000
  C   C2127     1.0  0.51336  0.05908  0.71007  1.0000
  H   H1722     1.0  0.68254  0.01400  0.64685  1.0000
  H   H1723     1.0  0.73114  0.26049  0.92198  1.0000
  C   C2128     1.0  0.69276  0.27073  0.75235  1.0000
  H   H1724     1.0  0.51141  0.04220  0.70604  1.0000
  C   C2129     1.0  0.70059  0.27526  0.72718  1.0000
  H   H1725     1.0  0.52574  0.01743  0.58356  1.0000
  H   H1726     1.0  0.58401  0.16112  0.89992  1.0000
  C   C2130     1.0  0.67926  0.09620  0.51740  1.0000
  S   S301      1.0  0.71547  0.29397  0.83925  1.0000
  H   H1727     1.0  0.67814  0.12438  0.93254  1.0000
  C   C2131     1.0  0.72992  0.33462  0.84054  1.0000
  H   H1728     1.0  0.58827  0.04027  0.89601  1.0000
  H   H1729     1.0  0.73701  0.26699  0.51452  1.0000
  C   C2132     1.0  0.57087  0.01131  0.62369  1.0000
  C   C2133     1.0  0.72178  0.01747  0.71561  1.0000
  C   C2134     1.0  0.71284  0.04650  0.65053  1.0000
  H   H1730     1.0  0.71239  0.20771  0.60927  1.0000
  C   C2135     1.0  0.69387  0.28567  0.77324  1.0000
  C   C2136     1.0  0.54997  0.11202  0.54326  1.0000
  H   H1731     1.0  0.75357  0.04516  0.60239  1.0000
  C   C2137     1.0  0.54702  0.02720  0.52913  1.0000
  C   C2138     1.0  0.56778  0.02596  0.51776  1.0000
  C   C2139     1.0  0.57994  0.04385  0.51910  1.0000
  C   C2140     1.0  0.57135  0.06306  0.53165  1.0000
  C   C2141     1.0  0.70488  0.18553  0.57810  1.0000
  H   H1732     1.0  0.57328  0.05869  0.64171  1.0000
  C   C2142     1.0  0.56956  0.11926  0.55323  1.0000
  H   H1733     1.0  0.70342  0.02152  0.49471  1.0000
  H   H1734     1.0  0.59597  0.04291  0.51014  1.0000
  H   H1735     1.0  0.58110  0.07670  0.53235  1.0000
  H   H1736     1.0  0.53738  0.01349  0.52773  1.0000
  H   H1737     1.0  0.66853  0.04257  0.47642  1.0000
  H   H1738     1.0  0.70412  0.31645  0.78554  1.0000
  H   H1739     1.0  0.74047  0.09977  0.79533  1.0000
  C   C2143     1.0  0.69396  0.12783  0.53672  1.0000
  C   C2144     1.0  0.68123  0.11848  0.51712  1.0000
  P   P68       1.0  0.69615  0.15662  0.53755  1.0000
  C   C2145     1.0  0.67313  0.17224  0.52195  1.0000
  C   C2146     1.0  0.69556  0.16640  0.57153  1.0000
  C   C2147     1.0  0.71325  0.02004  0.57151  1.0000
  C   C2148     1.0  0.70609  0.11436  0.55510  1.0000
  H   H1740     1.0  0.69471  0.18819  0.64456  1.0000
  C   C2149     1.0  0.54921  0.13887  0.50826  1.0000
  C   C2150     1.0  0.53829  0.06397  0.96170  1.0000
  C   C2151     1.0  0.65186  0.16598  0.52432  1.0000
  C   C2152     1.0  0.63402  0.17833  0.51251  1.0000
  C   C2153     1.0  0.63726  0.19720  0.49873  1.0000
  C   C2154     1.0  0.65825  0.20402  0.49729  1.0000
  C   C2155     1.0  0.67610  0.19172  0.50910  1.0000
  C   C2156     1.0  0.72158  0.16057  0.52141  1.0000
  C   C2157     1.0  0.53850  0.02241  0.64949  1.0000
  C   C2158     1.0  0.73400  0.29509  0.48938  1.0000
  H   H1741     1.0  0.72297  0.28815  0.47542  1.0000
  C   C2159     1.0  0.69207  0.01918  0.56074  1.0000
  C   C2160     1.0  0.72227  0.16234  0.49356  1.0000
  C   C2161     1.0  0.75394  0.32518  0.50401  1.0000
  H   H1742     1.0  0.67261  0.12831  0.50179  1.0000
  C   C2162     1.0  0.68443  0.16361  0.61759  1.0000
  H   H1743     1.0  0.71627  0.32666  0.60259  1.0000
  H   H1744     1.0  0.74468  0.17716  0.90428  1.0000
  C   C2163     1.0  0.74977  0.28726  0.69157  1.0000
  H   H1745     1.0  0.67366  0.30123  0.61079  1.0000
  C   C2164     1.0  0.73737  0.33782  0.67175  1.0000
  C   C2165     1.0  0.67435  0.01633  0.91200  1.0000
  H   H1746     1.0  0.53947  0.16398  0.72891  1.0000
  H   H1747     1.0  0.64905  0.15144  0.53496  1.0000
  H   H1748     1.0  0.61780  0.17295  0.51341  1.0000
  C   C2166     1.0  0.72071  0.32889  0.68554  1.0000
  C   C2167     1.0  0.71130  0.01735  0.82596  1.0000
  H   H1749     1.0  0.69218  0.19747  0.50817  1.0000
  H   H1750     1.0  0.54173  0.14591  0.49025  1.0000
  H   H1751     1.0  0.53084  0.01399  0.86470  1.0000
  H   H1752     1.0  0.71670  0.12120  0.56970  1.0000
  Fe  Fe153     1.0  0.75086  0.22210  0.87354  1.0000
  C   C2168     1.0  0.55801  0.01179  0.60046  1.0000
  C   C2169     1.0  0.72726  0.02204  0.52659  1.0000
  C   C2170     1.0  0.73595  0.31218  0.84200  1.0000
  H   H1753     1.0  0.52224  0.04706  0.55021  1.0000
  C   C2171     1.0  0.55173  0.13001  0.86322  1.0000
  C   C2172     1.0  0.74268  0.01883  0.72694  1.0000
  H   H1754     1.0  0.74103  0.15929  0.55784  1.0000
  P   P69       1.0  0.74675  0.03925  0.75217  1.0000
  C   C2173     1.0  0.73493  0.03059  0.78256  1.0000
  H   H1755     1.0  0.68516  0.13308  0.83509  1.0000
  P   P70       1.0  0.72207  0.11702  0.95725  1.0000
  H   H1756     1.0  0.54597  0.12501  0.64652  1.0000
  C   C2174     1.0  0.72571  0.04593  0.80115  1.0000
  C   C2175     1.0  0.71368  0.03932  0.82258  1.0000
  C   C2176     1.0  0.74810  0.21347  0.69135  1.0000
  C   C2177     1.0  0.68474  0.15580  0.59129  1.0000
  C   C2178     1.0  0.74206  0.13353  0.94457  1.0000
  C   C2179     1.0  0.73251  0.06521  0.74293  1.0000
  C   C2180     1.0  0.70965  0.06900  0.74603  1.0000
  C   C2181     1.0  0.69868  0.08941  0.74072  1.0000
  C   C2182     1.0  0.71031  0.10616  0.73195  1.0000
  C   C2183     1.0  0.73298  0.10255  0.72857  1.0000
  C   C2184     1.0  0.64612  0.01846  0.46926  1.0000
  C   C2185     1.0  0.55987  0.09175  0.64715  1.0000
  H   H1757     1.0  0.56493  0.09238  0.66787  1.0000
  P   P71       1.0  0.71737  0.01818  0.60719  1.0000
  C   C2186     1.0  0.56437  0.07264  0.63239  1.0000
  H   H1758     1.0  0.70803  0.02901  0.72069  1.0000
  P   P72       1.0  0.72192  0.30001  0.69108  1.0000
  C   C2187     1.0  0.69097  0.08900  0.88178  1.0000
  H   H1759     1.0  0.72681  0.06306  0.79838  1.0000
  H   H1760     1.0  0.70535  0.05125  0.83585  1.0000
  C   C2188     1.0  0.73396  0.10946  0.81203  1.0000
  C   C2189     1.0  0.53840  0.04636  0.54173  1.0000
  C   C2190     1.0  0.71083  0.30970  0.74395  1.0000
  H   H1761     1.0  0.70023  0.05636  0.75311  1.0000
  H   H1762     1.0  0.68109  0.09230  0.74365  1.0000
  H   H1763     1.0  0.70171  0.12198  0.72792  1.0000
  C   C2191     1.0  0.60174  0.00785  0.95951  1.0000
  P   P73       1.0  0.53879  0.08937  0.55862  1.0000
  C   C2192     1.0  0.67861  0.10411  0.89770  1.0000
  C   C2193     1.0  0.73304  0.00851  0.78666  1.0000
  C   C2194     1.0  0.70757  0.28788  0.66392  1.0000
  C   C2195     1.0  0.57744  0.15318  0.88262  1.0000
  C   C2196     1.0  0.58707  0.15481  0.85776  1.0000
  C   C2197     1.0  0.57884  0.14436  0.83549  1.0000
  C   C2198     1.0  0.56085  0.13214  0.83796  1.0000
  H   H1764     1.0  0.71090  0.29388  0.90352  1.0000
  P   P74       1.0  0.55012  0.11827  0.80948  1.0000
  C   C2199     1.0  0.55856  0.13006  0.77898  1.0000
  C   C2200     1.0  0.56130  0.09012  0.80911  1.0000
  C   C2201     1.0  0.55909  0.07747  0.78605  1.0000
  C   C2202     1.0  0.56865  0.05608  0.78477  1.0000
  C   C2203     1.0  0.58105  0.04727  0.80624  1.0000
  C   C2204     1.0  0.58378  0.05983  0.82910  1.0000
  C   C2205     1.0  0.57386  0.08115  0.83066  1.0000
  C   C2206     1.0  0.57999  0.12483  0.76985  1.0000
  C   C2207     1.0  0.58687  0.13396  0.74646  1.0000
  C   C2208     1.0  0.57228  0.14800  0.73165  1.0000
  C   C2209     1.0  0.55084  0.15316  0.74043  1.0000
  C   C2210     1.0  0.54400  0.14433  0.76408  1.0000
  C   C2211     1.0  0.68404  0.07738  0.62448  1.0000
  C   C2212     1.0  0.71288  0.08268  0.88849  1.0000
  C   C2213     1.0  0.57096  0.04227  0.89072  1.0000
  C   C2214     1.0  0.69294  0.02727  0.90840  1.0000
  H   H1765     1.0  0.60106  0.16409  0.85581  1.0000
  H   H1766     1.0  0.58667  0.14586  0.81653  1.0000
  C   C2215     1.0  0.68796  0.11266  0.92057  1.0000
  H   H1767     1.0  0.55047  0.08430  0.76873  1.0000
  H   H1768     1.0  0.56700  0.04654  0.76674  1.0000
  H   H1769     1.0  0.58897  0.03091  0.80478  1.0000
  H   H1770     1.0  0.59408  0.05327  0.84538  1.0000
  H   H1771     1.0  0.57667  0.09063  0.84838  1.0000
  H   H1772     1.0  0.59148  0.11384  0.78099  1.0000
  H   H1773     1.0  0.60358  0.13005  0.73984  1.0000
  H   H1774     1.0  0.57764  0.15487  0.71339  1.0000
  Fe  Fe154     1.0  0.75044  0.22019  0.81219  1.0000
  H   H1775     1.0  0.64542  0.01181  0.86842  1.0000
  C   C2216     1.0  0.71133  0.11528  0.81327  1.0000
  C   C2217     1.0  0.55983  0.14072  0.88536  1.0000
  C   C2218     1.0  0.70430  0.06523  0.66414  1.0000
  H   H1776     1.0  0.68282  0.09496  0.66174  1.0000
  S   S302      1.0  0.74374  0.24723  0.59635  1.0000
  H   H1777     1.0  0.70960  0.14501  0.87067  1.0000
  C   C2219     1.0  0.70959  0.29487  0.72269  1.0000
  C   C2220     1.0  0.70263  0.12809  0.83442  1.0000
  C   C2221     1.0  0.56107  0.01644  0.64821  1.0000
  H   H1778     1.0  0.67641  0.14163  0.58647  1.0000
  H   H1779     1.0  0.71966  0.06964  0.95814  1.0000
  S   S303      1.0  0.61397  0.04069  0.67756  1.0000
  C   C2222     1.0  0.73908  0.12891  0.85351  1.0000
  C   C2223     1.0  0.69054  0.08304  0.53650  1.0000
  H   H1780     1.0  0.69227  0.31826  0.64791  1.0000
  C   C2224     1.0  0.73863  0.31255  0.90698  1.0000
  H   H1781     1.0  0.71812  0.15301  0.92045  1.0000
  H   H1782     1.0  0.53445  0.12370  0.59917  1.0000
  H   H1783     1.0  0.66874  0.08913  0.50297  1.0000
  C   C2225     1.0  0.56081  0.02489  0.87997  1.0000
  H   H1784     1.0  0.53121  0.02635  0.66867  1.0000
  H   H1785     1.0  0.57098  0.01603  0.66631  1.0000
  H   H1786     1.0  0.75086  0.28046  0.73396  1.0000
  C   C2226     1.0  0.74099  0.16125  0.53646  1.0000
  H   H1787     1.0  0.72988  0.32695  0.89852  1.0000
  C   C2227     1.0  0.75011  0.16393  0.91752  1.0000
  H   H1788     1.0  0.68852  0.06589  0.53683  1.0000
  C   C2228     1.0  0.74017  0.31596  0.48545  1.0000
  C   C2229     1.0  0.74409  0.08222  0.73415  1.0000
  C   C2230     1.0  0.74177  0.28316  0.51157  1.0000
  H   H1789     1.0  0.70759  0.16139  0.48147  1.0000
  C   C2231     1.0  0.52368  0.04779  0.46933  1.0000
  H   H1790     1.0  0.57439  0.01124  0.50768  1.0000
  C   C2232     1.0  0.74188  0.16588  0.48115  1.0000
  H   H1791     1.0  0.53011  0.03152  0.47474  1.0000
  H   H1792     1.0  0.74946  0.13442  0.86930  1.0000
  C   C2233     1.0  0.75528  0.29226  0.53025  1.0000
  C   C2234     1.0  0.53537  0.01756  0.60172  1.0000
  H   H1793     1.0  0.74747  0.02144  0.56162  1.0000
  H   H1794     1.0  0.51830  0.15204  0.83159  1.0000
  H   H1795     1.0  0.75740  0.03664  0.85785  1.0000
  Fe  Fe155     1.0  0.75191  0.22470  0.56175  1.0000
  C   C2235     1.0  0.51186  0.04641  0.81447  1.0000
  H   H1796     1.0  0.58843  0.00698  0.62277  1.0000
  Fe  Fe156     1.0  0.75683  0.21938  0.62232  1.0000
  H   H1797     1.0  0.52561  0.11591  0.51144  1.0000
  H   H1798     1.0  0.67825  0.01795  0.57370  1.0000
  C   C2236     1.0  0.75804  0.30478  0.84612  1.0000
  H   H1799     1.0  0.74093  0.02288  0.51331  1.0000
  C   C2237     1.0  0.68852  0.01989  0.53318  1.0000
  H   H1800     1.0  0.56562  0.00773  0.58145  1.0000
  H   H1801     1.0  0.55568  0.05960  0.46782  1.0000
  H   H1802     1.0  0.67207  0.01944  0.52511  1.0000
  C   C2238     1.0  0.76053  0.16493  0.52401  1.0000
  S   S304      1.0  0.76008  0.24464  0.84207  1.0000
  C   C2239     1.0  0.75967  0.27931  0.71541  1.0000
  C   C2240     1.0  0.62585  0.63155  0.16654  1.0000
  S   S305      1.0  0.59999  0.55598  0.03515  1.0000
  Fe  Fe157     1.0  0.71126  0.44649  0.10689  1.0000
  H   H1803     1.0  0.64869  0.59398  0.07505  1.0000
  S   S306      1.0  0.68107  0.47054  0.10704  1.0000
  Fe  Fe158     1.0  0.72872  0.39875  0.10387  1.0000
  H   H1804     1.0  0.74701  0.37238  0.35373  1.0000
  S   S307      1.0  0.71795  0.36486  0.10376  1.0000
  C   C2241     1.0  0.66576  0.34441  0.19902  1.0000
  C   C2242     1.0  0.66908  0.40963  0.15827  1.0000
  C   C2243     1.0  0.65819  0.42529  0.17488  1.0000
  C   C2244     1.0  0.70097  0.65500  0.14930  1.0000
  S   S308      1.0  0.71947  0.42134  0.13810  1.0000
  S   S309      1.0  0.71724  0.42309  0.07250  1.0000
  Fe  Fe159     1.0  0.59635  0.56762  0.25151  1.0000
  S   S310      1.0  0.58709  0.53355  0.25271  1.0000
  S   S311      1.0  0.59994  0.59029  0.28713  1.0000
  Fe  Fe160     1.0  0.59370  0.56815  0.18982  1.0000
  S   S312      1.0  0.58365  0.53443  0.18674  1.0000
  S   S313      1.0  0.59675  0.59036  0.15496  1.0000
  Fe  Fe161     1.0  0.56191  0.54444  0.22135  1.0000
  Fe  Fe162     1.0  0.60990  0.52708  0.21793  1.0000
  S   S314      1.0  0.63522  0.49796  0.21656  1.0000
  S   S315      1.0  0.56987  0.57875  0.22205  1.0000
  S   S316      1.0  0.62131  0.56044  0.21919  1.0000
  H   H1805     1.0  0.59968  0.60227  0.38419  1.0000
  C   C2245     1.0  0.66490  0.53360  0.09215  1.0000
  C   C2246     1.0  0.64192  0.53608  0.96804  1.0000
  C   C2247     1.0  0.51916  0.48545  0.33360  1.0000
  C   C2248     1.0  0.67960  0.66320  0.19775  1.0000
  C   C2249     1.0  0.75803  0.44473  0.45160  1.0000
  H   H1806     1.0  0.71441  0.34094  0.04122  1.0000
  C   C2250     1.0  0.51212  0.64896  0.39190  1.0000
  C   C2251     1.0  0.66582  0.54035  0.06561  1.0000
  H   H1807     1.0  0.68554  0.61069  0.39661  1.0000
  H   H1808     1.0  0.65286  0.43636  0.21526  1.0000
  H   H1809     1.0  0.54124  0.55388  0.27374  1.0000
  H   H1810     1.0  0.52900  0.53904  0.16714  1.0000
  H   H1811     1.0  0.62737  0.51856  0.05648  1.0000
  H   H1812     1.0  0.67949  0.35071  0.13124  1.0000
  H   H1813     1.0  0.60534  0.48829  0.06494  1.0000
  H   H1814     1.0  0.71674  0.44331  0.23494  1.0000
  C   C2252     1.0  0.53481  0.60081  0.32558  1.0000
  H   H1815     1.0  0.68020  0.36207  0.26184  1.0000
  C   C2253     1.0  0.55695  0.63589  0.13477  1.0000
  C   C2254     1.0  0.63625  0.65997  0.01096  1.0000
  C   C2255     1.0  0.54512  0.56301  0.31483  1.0000
  H   H1816     1.0  0.52697  0.56350  0.46477  1.0000
  C   C2256     1.0  0.53319  0.47136  0.31811  1.0000
  C   C2257     1.0  0.53167  0.49811  0.28321  1.0000
  C   C2258     1.0  0.62209  0.48491  0.05830  1.0000
  C   C2259     1.0  0.65288  0.65074  0.05417  1.0000
  H   H1817     1.0  0.53986  0.51670  0.36226  1.0000
  H   H1818     1.0  0.51466  0.48042  0.35322  1.0000
  H   H1819     1.0  0.64043  0.35970  0.11856  1.0000
  H   H1820     1.0  0.66011  0.44273  0.04388  1.0000
  H   H1821     1.0  0.53647  0.50301  0.26362  1.0000
  C   C2260     1.0  0.71996  0.38372  0.29800  1.0000
  C   C2261     1.0  0.73383  0.38824  0.27743  1.0000
  C   C2262     1.0  0.66427  0.56904  0.42737  1.0000
  H   H1822     1.0  0.53924  0.45553  0.32564  1.0000
  C   C2263     1.0  0.69061  0.64275  0.19250  1.0000
  H   H1823     1.0  0.54764  0.57694  0.35409  1.0000
  H   H1824     1.0  0.54631  0.56733  0.02903  1.0000
  C   C2264     1.0  0.63122  0.46351  0.05470  1.0000
  C   C2265     1.0  0.66901  0.47866  0.13773  1.0000
  C   C2266     1.0  0.64916  0.49211  0.13775  1.0000
  C   C2267     1.0  0.63901  0.49868  0.16186  1.0000
  C   C2268     1.0  0.64839  0.49140  0.18609  1.0000
  C   C2269     1.0  0.66829  0.47804  0.18611  1.0000
  C   C2270     1.0  0.67871  0.47187  0.16201  1.0000
  H   H1825     1.0  0.64143  0.49726  0.11905  1.0000
  H   H1826     1.0  0.62365  0.50890  0.16161  1.0000
  H   H1827     1.0  0.67567  0.47237  0.20480  1.0000
  H   H1828     1.0  0.69404  0.46158  0.16224  1.0000
  C   C2271     1.0  0.59844  0.56578  0.06830  1.0000
  C   C2272     1.0  0.59759  0.55108  0.08927  1.0000
  C   C2273     1.0  0.59704  0.55838  0.11592  1.0000
  C   C2274     1.0  0.59739  0.58044  0.12179  1.0000
  H   H1829     1.0  0.59741  0.53397  0.08493  1.0000
  H   H1830     1.0  0.59671  0.54687  0.13188  1.0000
  C   C2275     1.0  0.59970  0.56836  0.37443  1.0000
  C   C2276     1.0  0.59884  0.58156  0.32056  1.0000
  C   C2277     1.0  0.59895  0.59691  0.34144  1.0000
  C   C2278     1.0  0.59923  0.59037  0.36829  1.0000
  H   H1831     1.0  0.59921  0.61388  0.33685  1.0000
  C   C2279     1.0  0.73694  0.53016  0.38160  1.0000
  C   C2280     1.0  0.66543  0.47643  0.04135  1.0000
  H   H1832     1.0  0.71984  0.50233  0.21024  1.0000
  H   H1833     1.0  0.68995  0.37078  0.30828  1.0000
  P   P75       1.0  0.52130  0.63238  0.28787  1.0000
  P   P76       1.0  0.70176  0.36760  0.21088  1.0000
  H   H1834     1.0  0.51384  0.63790  0.01333  1.0000
  C   C2281     1.0  0.65374  0.57721  0.07991  1.0000
  H   H1835     1.0  0.70665  0.51706  0.08202  1.0000
  C   C2282     1.0  0.53516  0.55264  0.10238  1.0000
  C   C2283     1.0  0.69347  0.58230  0.45443  1.0000
  H   H1836     1.0  0.66755  0.41122  0.13681  1.0000
  C   C2284     1.0  0.73601  0.50282  0.06359  1.0000
  C   C2285     1.0  0.54279  0.57992  0.33353  1.0000
  S   S317      1.0  0.73791  0.44409  0.28644  1.0000
  H   H1837     1.0  0.72402  0.38787  0.31834  1.0000
  H   H1838     1.0  0.63498  0.51749  0.00200  1.0000
  H   H1839     1.0  0.67195  0.66627  0.21692  1.0000
  C   C2286     1.0  0.55581  0.65843  0.13155  1.0000
  C   C2287     1.0  0.73485  0.54868  0.39787  1.0000
  C   C2288     1.0  0.51355  0.56111  0.09628  1.0000
  H   H1840     1.0  0.64804  0.43889  0.16630  1.0000
  C   C2289     1.0  0.74562  0.49400  0.04029  1.0000
  C   C2290     1.0  0.62484  0.65739  0.12117  1.0000
  H   H1841     1.0  0.73896  0.38801  0.23555  1.0000
  C   C2291     1.0  0.53801  0.62571  0.13928  1.0000
  H   H1842     1.0  0.52904  0.65239  0.39000  1.0000
  C   C2292     1.0  0.72838  0.38349  0.25103  1.0000
  S   S318      1.0  0.74490  0.45779  0.10599  1.0000
  H   H1843     1.0  0.73867  0.48827  0.25166  1.0000
  P   P77       1.0  0.67236  0.52041  0.03954  1.0000
  H   H1844     1.0  0.55164  0.54690  0.32090  1.0000
  H   H1845     1.0  0.73288  0.39559  0.18988  1.0000
  C   C2293     1.0  0.51101  0.60873  0.03531  1.0000
  C   C2294     1.0  0.74261  0.43886  0.20602  1.0000
  H   H1846     1.0  0.65144  0.55830  0.42471  1.0000
  C   C2295     1.0  0.67758  0.56770  0.45030  1.0000
  H   H1847     1.0  0.60040  0.67045  0.20900  1.0000
  S   S319      1.0  0.57785  0.61388  0.44408  1.0000
  C   C2296     1.0  0.68647  0.34415  0.21140  1.0000
  S   S320      1.0  0.60190  0.55884  0.40760  1.0000
  H   H1848     1.0  0.57947  0.65900  0.34486  1.0000
  C   C2297     1.0  0.70998  0.35701  0.03340  1.0000
  H   H1849     1.0  0.72912  0.36288  0.45650  1.0000
  C   C2298     1.0  0.72591  0.36201  0.19063  1.0000
  C   C2299     1.0  0.69535  0.36918  0.26588  1.0000
  H   H1850     1.0  0.70160  0.50084  0.99838  1.0000
  H   H1851     1.0  0.55005  0.46671  0.28071  1.0000
  C   C2300     1.0  0.70125  0.51075  0.03998  1.0000
  C   C2301     1.0  0.54972  0.64697  0.20636  1.0000
  P   P78       1.0  0.74596  0.34952  0.99972  1.0000
  C   C2302     1.0  0.58763  0.66000  0.07243  1.0000
  C   C2303     1.0  0.66002  0.56229  0.05960  1.0000
  P   P79       1.0  0.58024  0.67170  0.12543  1.0000
  H   H1852     1.0  0.56318  0.61869  0.26281  1.0000
  S   S321      1.0  0.57608  0.61273  0.00583  1.0000
  C   C2304     1.0  0.69842  0.39916  0.01515  1.0000
  C   C2305     1.0  0.71691  0.38691  0.00503  1.0000
  C   C2306     1.0  0.65285  0.45929  0.04615  1.0000
  C   C2307     1.0  0.53276  0.65201  0.30936  1.0000
  C   C2308     1.0  0.54436  0.62215  0.06810  1.0000
  H   H1853     1.0  0.72677  0.39417  0.99048  1.0000
  C   C2309     1.0  0.64650  0.52744  0.99336  1.0000
  H   H1854     1.0  0.71000  0.62287  0.16429  1.0000
  H   H1855     1.0  0.59877  0.54770  0.31091  1.0000
  H   H1856     1.0  0.59985  0.59925  0.05820  1.0000
  C   C2310     1.0  0.74945  0.56450  0.39539  1.0000
  H   H1857     1.0  0.75019  0.61531  0.38489  1.0000
  C   C2311     1.0  0.65647  0.49796  0.04538  1.0000
  C   C2312     1.0  0.55401  0.64749  0.32008  1.0000
  H   H1858     1.0  0.69422  0.41563  0.00841  1.0000
  C   C2313     1.0  0.59853  0.59508  0.10083  1.0000
  C   C2314     1.0  0.65283  0.57030  0.10625  1.0000
  C   C2315     1.0  0.59931  0.55313  0.35358  1.0000
  C   C2316     1.0  0.51131  0.57688  0.20465  1.0000
  C   C2317     1.0  0.73371  0.34162  0.35221  1.0000
  C   C2318     1.0  0.53936  0.47766  0.29287  1.0000
  H   H1859     1.0  0.56360  0.63219  0.31577  1.0000
  C   C2319     1.0  0.56215  0.63374  0.22445  1.0000
  H   H1860     1.0  0.70470  0.60698  0.97633  1.0000
  H   H1861     1.0  0.57853  0.62677  0.21935  1.0000
  S   S322      1.0  0.52681  0.53704  0.22544  1.0000
  C   C2320     1.0  0.70796  0.62310  0.01391  1.0000
  C   C2321     1.0  0.70933  0.37349  0.24502  1.0000
  C   C2322     1.0  0.64477  0.63228  0.15161  1.0000
  C   C2323     1.0  0.52995  0.60511  0.29858  1.0000
  C   C2324     1.0  0.74859  0.44066  0.25408  1.0000
  H   H1862     1.0  0.59309  0.65067  0.03147  1.0000
  C   C2325     1.0  0.64436  0.64548  0.12923  1.0000
  C   C2326     1.0  0.53214  0.53081  0.37254  1.0000
  C   C2327     1.0  0.54858  0.53537  0.01200  1.0000
  C   C2328     1.0  0.74789  0.37188  0.42347  1.0000
  C   C2329     1.0  0.72266  0.36560  0.01382  1.0000
  H   H1863     1.0  0.65536  0.63952  0.07049  1.0000
  C   C2330     1.0  0.53564  0.60265  0.07325  1.0000
  H   H1864     1.0  0.55739  0.53841  0.13242  1.0000
  C   C2331     1.0  0.71171  0.66153  0.01244  1.0000
  H   H1865     1.0  0.74526  0.64376  0.41981  1.0000
  H   H1866     1.0  0.65633  0.58585  0.39069  1.0000
  C   C2332     1.0  0.68572  0.39038  0.03440  1.0000
  C   C2333     1.0  0.69156  0.36936  0.04357  1.0000
  C   C2334     1.0  0.56318  0.66276  0.33634  1.0000
  H   H1867     1.0  0.63264  0.63027  0.03152  1.0000
  H   H1868     1.0  0.52794  0.57855  0.19892  1.0000
  H   H1869     1.0  0.74768  0.57845  0.40855  1.0000
  H   H1870     1.0  0.67168  0.40002  0.04270  1.0000
  H   H1871     1.0  0.55637  0.65022  0.18724  1.0000
  H   H1872     1.0  0.73000  0.44300  0.01481  1.0000
  H   H1873     1.0  0.54241  0.59294  0.08968  1.0000
  Fe  Fe163     1.0  0.60183  0.62386  0.97905  1.0000
  Fe  Fe164     1.0  0.75164  0.43234  0.07403  1.0000
  C   C2335     1.0  0.68345  0.59856  0.41150  1.0000
  H   H1874     1.0  0.53923  0.60828  0.14221  1.0000
  C   C2336     1.0  0.54069  0.54484  0.12786  1.0000
  C   C2337     1.0  0.60973  0.49966  0.31934  1.0000
  C   C2338     1.0  0.60479  0.48706  0.29724  1.0000
  C   C2339     1.0  0.62105  0.48061  0.27878  1.0000
  C   C2340     1.0  0.64215  0.48699  0.28219  1.0000
  C   C2341     1.0  0.64695  0.50058  0.30358  1.0000
  C   C2342     1.0  0.63077  0.50635  0.32261  1.0000
  P   P80       1.0  0.67444  0.50796  0.30870  1.0000
  C   C2343     1.0  0.68919  0.50669  0.27775  1.0000
  C   C2344     1.0  0.67495  0.53563  0.32004  1.0000
  C   C2345     1.0  0.69411  0.54217  0.33196  1.0000
  C   C2346     1.0  0.69510  0.56378  0.33985  1.0000
  C   C2347     1.0  0.67714  0.57910  0.33528  1.0000
  C   C2348     1.0  0.65827  0.57284  0.32269  1.0000
  C   C2349     1.0  0.65718  0.55121  0.31493  1.0000
  C   C2350     1.0  0.71108  0.49757  0.27666  1.0000
  C   C2351     1.0  0.72209  0.49609  0.25241  1.0000
  C   C2352     1.0  0.71151  0.50405  0.22916  1.0000
  C   C2353     1.0  0.69004  0.51399  0.23032  1.0000
  C   C2354     1.0  0.67896  0.51546  0.25455  1.0000
  C   C2355     1.0  0.68676  0.48850  0.33229  1.0000
  C   C2356     1.0  0.68871  0.49388  0.35943  1.0000
  C   C2357     1.0  0.69792  0.47836  0.37748  1.0000
  C   C2358     1.0  0.70473  0.45732  0.36864  1.0000
  C   C2359     1.0  0.70219  0.45172  0.34183  1.0000
  C   C2360     1.0  0.69309  0.46718  0.32376  1.0000
  H   H1875     1.0  0.59718  0.50428  0.33385  1.0000
  H   H1876     1.0  0.58841  0.48230  0.29438  1.0000
  H   H1877     1.0  0.61732  0.47092  0.26150  1.0000
  H   H1878     1.0  0.65457  0.48147  0.26782  1.0000
  H   H1879     1.0  0.63443  0.51601  0.33993  1.0000
  H   H1880     1.0  0.70836  0.53058  0.33474  1.0000
  H   H1881     1.0  0.70990  0.56873  0.34911  1.0000
  H   H1882     1.0  0.67793  0.59592  0.34106  1.0000
  H   H1883     1.0  0.64454  0.58481  0.31853  1.0000
  H   H1884     1.0  0.64264  0.54687  0.30448  1.0000
  H   H1885     1.0  0.71964  0.49118  0.29433  1.0000
  H   H1886     1.0  0.65922  0.64639  0.11804  1.0000
  C   C2361     1.0  0.53937  0.56698  0.28820  1.0000
  H   H1887     1.0  0.68167  0.52002  0.21231  1.0000
  H   H1888     1.0  0.66220  0.52293  0.25498  1.0000
  H   H1889     1.0  0.68295  0.50991  0.36674  1.0000
  H   H1890     1.0  0.69978  0.48248  0.39837  1.0000
  H   H1891     1.0  0.71194  0.44532  0.38258  1.0000
  H   H1892     1.0  0.70750  0.43545  0.33485  1.0000
  H   H1893     1.0  0.69126  0.46250  0.30302  1.0000
  C   C2362     1.0  0.67968  0.54567  0.99575  1.0000
  S   S323      1.0  0.62173  0.59150  0.97712  1.0000
  C   C2363     1.0  0.66559  0.53197  0.00725  1.0000
  H   H1894     1.0  0.54314  0.65008  0.04270  1.0000
  H   H1895     1.0  0.72590  0.51771  0.38385  1.0000
  H   H1896     1.0  0.59956  0.53619  0.35837  1.0000
  H   H1897     1.0  0.57240  0.62605  0.13370  1.0000
  H   H1898     1.0  0.71047  0.64360  0.04870  1.0000
  C   C2364     1.0  0.54475  0.54173  0.39070  1.0000
  H   H1899     1.0  0.59973  0.61200  0.10522  1.0000
  H   H1900     1.0  0.56188  0.53608  0.39422  1.0000
  H   H1901     1.0  0.73147  0.43970  0.18912  1.0000
  C   C2365     1.0  0.59882  0.55964  0.32678  1.0000
  Fe  Fe165     1.0  0.55842  0.60391  0.96818  1.0000
  Fe  Fe166     1.0  0.59471  0.57992  0.00138  1.0000
  H   H1902     1.0  0.74550  0.50263  0.08197  1.0000
  C   C2366     1.0  0.55330  0.62899  0.24897  1.0000
  C   C2367     1.0  0.59876  0.58786  0.07417  1.0000
  Fe  Fe167     1.0  0.59487  0.58013  0.44428  1.0000
  C   C2368     1.0  0.66706  0.58458  0.40811  1.0000
  H   H1903     1.0  0.51270  0.49785  0.02161  1.0000
  C   C2369     1.0  0.51959  0.62835  0.03046  1.0000
  C   C2370     1.0  0.70070  0.37423  0.29225  1.0000
  C   C2371     1.0  0.51989  0.65145  0.23763  1.0000
  H   H1904     1.0  0.54688  0.50279  0.99741  1.0000
  H   H1905     1.0  0.73362  0.37582  0.41079  1.0000
  H   H1906     1.0  0.55778  0.62694  0.08021  1.0000
  C   C2372     1.0  0.70856  0.64109  0.97112  1.0000
  C   C2373     1.0  0.65839  0.54849  0.11235  1.0000
  H   H1907     1.0  0.69423  0.54969  0.00642  1.0000
  C   C2374     1.0  0.53513  0.67047  0.13110  1.0000
  H   H1908     1.0  0.70940  0.65203  0.13055  1.0000
  H   H1909     1.0  0.68222  0.36280  0.05918  1.0000
  Fe  Fe168     1.0  0.75355  0.43095  0.13503  1.0000
  C   C2375     1.0  0.64645  0.34314  0.12341  1.0000
  H   H1910     1.0  0.65954  0.56789  0.03926  1.0000
  H   H1911     1.0  0.64712  0.58169  0.12180  1.0000
  C   C2376     1.0  0.70129  0.63864  0.16826  1.0000
  H   H1912     1.0  0.59394  0.64419  0.07970  1.0000
  C   C2377     1.0  0.73806  0.37910  0.18366  1.0000
  C   C2378     1.0  0.67429  0.40650  0.21361  1.0000
  H   H1913     1.0  0.65884  0.35836  0.18788  1.0000
  C   C2379     1.0  0.64003  0.64541  0.03203  1.0000
  C   C2380     1.0  0.53617  0.63513  0.04693  1.0000
  H   H1914     1.0  0.72200  0.55072  0.41258  1.0000
  H   H1915     1.0  0.65970  0.62254  0.15734  1.0000
  H   H1916     1.0  0.52009  0.62191  0.41814  1.0000
  C   C2381     1.0  0.75079  0.35516  0.35177  1.0000
  H   H1917     1.0  0.70631  0.60866  0.02536  1.0000
  C   C2382     1.0  0.52865  0.65590  0.21296  1.0000
  C   C2383     1.0  0.53187  0.63731  0.25542  1.0000
  C   C2384     1.0  0.68513  0.39057  0.19702  1.0000
  C   C2385     1.0  0.53855  0.55241  0.02743  1.0000
  H   H1918     1.0  0.69131  0.38064  0.15606  1.0000
  C   C2386     1.0  0.73803  0.34278  0.09858  1.0000
  H   H1919     1.0  0.65710  0.54295  0.13264  1.0000
  H   H1920     1.0  0.52755  0.59067  0.25921  1.0000
  C   C2387     1.0  0.53916  0.51583  0.00964  1.0000
  H   H1921     1.0  0.54783  0.55211  0.08744  1.0000
  C   C2388     1.0  0.73428  0.44105  0.23199  1.0000
  C   C2389     1.0  0.69674  0.59731  0.43444  1.0000
  H   H1922     1.0  0.62161  0.45022  0.05878  1.0000
  H   H1923     1.0  0.70931  0.60834  0.43679  1.0000
  C   C2390     1.0  0.66091  0.42383  0.20252  1.0000
  H   H1924     1.0  0.69120  0.63021  0.20744  1.0000
  H   H1925     1.0  0.62610  0.62111  0.18377  1.0000
  C   C2391     1.0  0.52469  0.54519  0.14742  1.0000
  H   H1926     1.0  0.74060  0.48649  0.99883  1.0000
  C   C2392     1.0  0.51874  0.59586  0.05696  1.0000
  C   C2393     1.0  0.58721  0.66359  0.04502  1.0000
  H   H1927     1.0  0.67621  0.40574  0.23505  1.0000
  C   C2394     1.0  0.68257  0.39236  0.16926  1.0000
  H   H1928     1.0  0.67521  0.55536  0.46476  1.0000
  C   C2395     1.0  0.71112  0.50192  0.01660  1.0000
  C   C2396     1.0  0.74547  0.36437  0.44931  1.0000
  C   C2397     1.0  0.75755  0.53290  0.46131  1.0000
  C   C2398     1.0  0.73322  0.49372  0.01677  1.0000
  C   C2399     1.0  0.71029  0.64274  0.02710  1.0000
  C   C2400     1.0  0.60632  0.64350  0.15864  1.0000
  C   C2401     1.0  0.74186  0.43995  0.99911  1.0000
  C   C2402     1.0  0.63464  0.50206  0.05362  1.0000
  H   H1929     1.0  0.68227  0.47272  0.03533  1.0000
  H   H1930     1.0  0.66879  0.51669  0.09710  1.0000
  C   C2403     1.0  0.51906  0.54985  0.04091  1.0000
  H   H1931     1.0  0.54523  0.56844  0.41845  1.0000
  H   H1932     1.0  0.74390  0.60495  0.29090  1.0000
  S   S324      1.0  0.74831  0.45061  0.41881  1.0000
  S   S325      1.0  0.61846  0.65497  0.98389  1.0000
  C   C2404     1.0  0.53539  0.56005  0.40435  1.0000
  H   H1933     1.0  0.59186  0.64242  0.17038  1.0000
  C   C2405     1.0  0.70711  0.62222  0.98601  1.0000
  C   C2406     1.0  0.67494  0.55441  0.97055  1.0000
  C   C2407     1.0  0.51339  0.56748  0.39984  1.0000
  C   C2408     1.0  0.53173  0.58792  0.28004  1.0000
  S   S326      1.0  0.75284  0.41556  0.35362  1.0000
  H   H1934     1.0  0.71694  0.34868  0.35429  1.0000
  C   C2409     1.0  0.71388  0.51105  0.06352  1.0000
  C   C2410     1.0  0.60544  0.65600  0.13543  1.0000
  H   H1935     1.0  0.51186  0.52796  0.29053  1.0000
  H   H1936     1.0  0.56383  0.53728  0.00207  1.0000
  C   C2411     1.0  0.51996  0.51305  0.02330  1.0000
  H   H1937     1.0  0.53296  0.61360  0.34047  1.0000
  H   H1938     1.0  0.72294  0.66763  0.21748  1.0000
  C   C2412     1.0  0.51612  0.66026  0.13539  1.0000
  H   H1939     1.0  0.75064  0.58282  0.33133  1.0000
  H   H1940     1.0  0.75890  0.38760  0.02977  1.0000
  C   C2413     1.0  0.71060  0.66076  0.98461  1.0000
  C   C2414     1.0  0.73246  0.34097  0.18103  1.0000
  C   C2415     1.0  0.51762  0.51224  0.29860  1.0000
  C   C2416     1.0  0.51758  0.63790  0.13971  1.0000
  C   C2417     1.0  0.75700  0.37510  0.16850  1.0000
  H   H1941     1.0  0.51903  0.66618  0.19891  1.0000
  C   C2418     1.0  0.51106  0.50589  0.32382  1.0000
  C   C2419     1.0  0.75843  0.60644  0.30304  1.0000
  H   H1942     1.0  0.62504  0.66758  0.10379  1.0000
  H   H1943     1.0  0.75862  0.51545  0.45873  1.0000
  C   C2420     1.0  0.76014  0.63267  0.41946  1.0000
  C   C2421     1.0  0.75335  0.52763  0.36245  1.0000
  S   S327      1.0  0.76065  0.66510  0.34453  1.0000
  C   C2422     1.0  0.73516  0.44189  0.97223  1.0000
  C   C2423     1.0  0.66246  0.67044  0.05524  1.0000
  H   H1944     1.0  0.74862  0.39593  0.28190  1.0000
  H   H1945     1.0  0.75500  0.51323  0.34983  1.0000
  C   C2424     1.0  0.76021  0.34571  0.09561  1.0000
  H   H1946     1.0  0.76036  0.54199  0.02988  1.0000
  C   C2425     1.0  0.75439  0.57803  0.46741  1.0000
  C   C2426     1.0  0.61261  0.57652  0.87236  1.0000
  S   S328      1.0  0.60495  0.55773  0.54146  1.0000
  Fe  Fe169     1.0  0.72204  0.45386  0.60562  1.0000
  H   H1947     1.0  0.72542  0.66468  0.52438  1.0000
  S   S329      1.0  0.69586  0.48238  0.60678  1.0000
  Fe  Fe170     1.0  0.73503  0.40494  0.60220  1.0000
  C   C2427     1.0  0.56017  0.45183  0.54246  1.0000
  S   S330      1.0  0.72206  0.37200  0.60056  1.0000
  C   C2428     1.0  0.73701  0.37051  0.51231  1.0000
  C   C2429     1.0  0.57836  0.45203  0.52599  1.0000
  H   H1948     1.0  0.71567  0.56272  0.91280  1.0000
  H   H1949     1.0  0.57068  0.64132  0.60630  1.0000
  S   S331      1.0  0.72686  0.42788  0.63646  1.0000
  S   S332      1.0  0.72625  0.43031  0.57107  1.0000
  Fe  Fe171     1.0  0.61398  0.58173  0.75079  1.0000
  S   S333      1.0  0.60321  0.54821  0.75056  1.0000
  S   S334      1.0  0.61722  0.60284  0.78757  1.0000
  Fe  Fe172     1.0  0.61612  0.58274  0.68955  1.0000
  S   S335      1.0  0.60484  0.54969  0.68522  1.0000
  S   S336      1.0  0.62435  0.60171  0.65335  1.0000
  Fe  Fe173     1.0  0.58067  0.56056  0.71706  1.0000
  Fe  Fe174     1.0  0.62851  0.54097  0.71866  1.0000
  S   S337      1.0  0.65308  0.51125  0.71786  1.0000
  S   S338      1.0  0.59009  0.59450  0.71893  1.0000
  S   S339      1.0  0.64116  0.57358  0.72154  1.0000
  H   H1950     1.0  0.61763  0.54484  0.85394  1.0000
  C   C2430     1.0  0.51296  0.55603  0.89413  1.0000
  C   C2431     1.0  0.54194  0.65480  0.68700  1.0000
  C   C2432     1.0  0.74778  0.35794  0.96548  1.0000
  P   P81       1.0  0.53457  0.61580  0.62149  1.0000
  C   C2433     1.0  0.55937  0.64083  0.58966  1.0000
  H   H1951     1.0  0.64629  0.64449  0.61840  1.0000
  Fe  Fe175     1.0  0.55669  0.60189  0.47599  1.0000
  C   C2434     1.0  0.67829  0.61451  0.71748  1.0000
  H   H1952     1.0  0.60945  0.66157  0.60482  1.0000
  C   C2435     1.0  0.73640  0.56673  0.47366  1.0000
  H   H1953     1.0  0.59081  0.64010  0.76971  1.0000
  C   C2436     1.0  0.75435  0.37814  0.78133  1.0000
  C   C2437     1.0  0.55781  0.55379  0.64164  1.0000
  H   H1954     1.0  0.73066  0.55100  0.52503  1.0000
  H   H1955     1.0  0.71927  0.57118  0.81110  1.0000
  C   C2438     1.0  0.73431  0.38987  0.78739  1.0000
  C   C2439     1.0  0.56153  0.55657  0.59398  1.0000
  C   C2440     1.0  0.56377  0.54425  0.61714  1.0000
  S   S340      1.0  0.74737  0.41398  0.85251  1.0000
  C   C2441     1.0  0.74460  0.37990  0.73445  1.0000
  H   H1956     1.0  0.75557  0.63646  0.85830  1.0000
  H   H1957     1.0  0.57035  0.52739  0.61615  1.0000
  H   H1958     1.0  0.67704  0.59805  0.71072  1.0000
  C   C2442     1.0  0.66590  0.66653  0.94078  1.0000
  C   C2443     1.0  0.70415  0.54177  0.54836  1.0000
  C   C2444     1.0  0.54962  0.57565  0.64301  1.0000
  C   C2445     1.0  0.71104  0.59685  0.92269  1.0000
  H   H1959     1.0  0.74583  0.66079  0.95226  1.0000
  C   C2446     1.0  0.73709  0.44515  0.73088  1.0000
  C   C2447     1.0  0.54061  0.62961  0.59129  1.0000
  H   H1960     1.0  0.71943  0.44784  0.73230  1.0000
  H   H1961     1.0  0.73679  0.44383  0.68795  1.0000
  C   C2448     1.0  0.64391  0.65664  0.65851  1.0000
  H   H1962     1.0  0.68371  0.62845  0.54659  1.0000
  S   S341      1.0  0.74177  0.44409  0.91847  1.0000
  H   H1963     1.0  0.66281  0.62884  0.91415  1.0000
  C   C2449     1.0  0.55304  0.57836  0.59519  1.0000
  H   H1964     1.0  0.74078  0.45172  0.51602  1.0000
  H   H1965     1.0  0.72441  0.34638  0.53733  1.0000
  C   C2450     1.0  0.68433  0.49041  0.63789  1.0000
  C   C2451     1.0  0.67084  0.51003  0.63996  1.0000
  C   C2452     1.0  0.66162  0.51685  0.66455  1.0000
  C   C2453     1.0  0.66554  0.50391  0.68713  1.0000
  C   C2454     1.0  0.67934  0.48451  0.68516  1.0000
  C   C2455     1.0  0.68869  0.47777  0.66065  1.0000
  H   H1966     1.0  0.66739  0.51993  0.62250  1.0000
  H   H1967     1.0  0.65114  0.53192  0.66592  1.0000
  H   H1968     1.0  0.68258  0.47451  0.70261  1.0000
  H   H1969     1.0  0.69917  0.46276  0.65943  1.0000
  C   C2456     1.0  0.61048  0.57056  0.57216  1.0000
  C   C2457     1.0  0.61681  0.55764  0.59421  1.0000
  C   C2458     1.0  0.62074  0.56708  0.61917  1.0000
  C   C2459     1.0  0.61872  0.58962  0.62226  1.0000
  H   H1970     1.0  0.61873  0.54025  0.59195  1.0000
  H   H1971     1.0  0.62599  0.55690  0.63582  1.0000
  C   C2460     1.0  0.52683  0.53733  0.54273  1.0000
  C   C2461     1.0  0.61409  0.59233  0.81981  1.0000
  C   C2462     1.0  0.61597  0.56999  0.82436  1.0000
  C   C2463     1.0  0.61555  0.56215  0.85056  1.0000
  H   H1972     1.0  0.61850  0.55876  0.80779  1.0000
  S   S342      1.0  0.61414  0.56598  0.90505  1.0000
  C   C2464     1.0  0.68163  0.65716  0.73429  1.0000
  H   H1973     1.0  0.55162  0.58754  0.57695  1.0000
  S   S343      1.0  0.57242  0.56775  0.47439  1.0000
  H   H1974     1.0  0.52092  0.63808  0.52785  1.0000
  C   C2465     1.0  0.71888  0.63386  0.64808  1.0000
  C   C2466     1.0  0.70288  0.64991  0.63876  1.0000
  P   P82       1.0  0.72669  0.60983  0.62836  1.0000
  H   H1975     1.0  0.54410  0.45024  0.53381  1.0000
  C   C2467     1.0  0.73129  0.58730  0.65108  1.0000
  C   C2468     1.0  0.71495  0.58332  0.66923  1.0000
  H   H1976     1.0  0.74283  0.59590  0.52183  1.0000
  C   C2469     1.0  0.70827  0.67196  0.67791  1.0000
  H   H1977     1.0  0.72773  0.59732  0.92992  1.0000
  H   H1978     1.0  0.73342  0.65929  0.70541  1.0000
  H   H1979     1.0  0.69420  0.66063  0.49349  1.0000
  H   H1980     1.0  0.61175  0.62009  0.60208  1.0000
  C   C2470     1.0  0.61108  0.60671  0.84161  1.0000
  C   C2471     1.0  0.61004  0.59886  0.86776  1.0000
  C   C2472     1.0  0.67466  0.61468  0.91402  1.0000
  C   C2473     1.0  0.70505  0.60609  0.60432  1.0000
  C   C2474     1.0  0.70314  0.61899  0.58137  1.0000
  C   C2475     1.0  0.68547  0.61789  0.56371  1.0000
  C   C2476     1.0  0.66951  0.60399  0.56878  1.0000
  C   C2477     1.0  0.67165  0.59058  0.59102  1.0000
  C   C2478     1.0  0.68935  0.59151  0.60871  1.0000
  C   C2479     1.0  0.62288  0.47046  0.65967  1.0000
  H   H1981     1.0  0.64697  0.62622  0.70083  1.0000
  H   H1982     1.0  0.71505  0.36913  0.91070  1.0000
  H   H1983     1.0  0.61427  0.49803  0.54819  1.0000
  H   H1984     1.0  0.69430  0.64808  0.62007  1.0000
  H   H1985     1.0  0.60889  0.52186  0.63833  1.0000
  H   H1986     1.0  0.66393  0.45028  0.76291  1.0000
  C   C2480     1.0  0.54688  0.58806  0.61976  1.0000
  C   C2481     1.0  0.73178  0.57874  0.84998  1.0000
  C   C2482     1.0  0.51655  0.57578  0.53766  1.0000
  H   H1987     1.0  0.71572  0.58416  0.85777  1.0000
  C   C2483     1.0  0.66129  0.63063  0.71178  1.0000
  H   H1988     1.0  0.71470  0.63071  0.57773  1.0000
  C   C2484     1.0  0.61629  0.49266  0.66088  1.0000
  H   H1989     1.0  0.65539  0.60371  0.55556  1.0000
  H   H1990     1.0  0.65936  0.57964  0.59476  1.0000
  H   H1991     1.0  0.69027  0.58108  0.62581  1.0000
  C   C2485     1.0  0.73599  0.63048  0.52501  1.0000
  C   C2486     1.0  0.57758  0.63640  0.67706  1.0000
  C   C2487     1.0  0.68597  0.66381  0.92739  1.0000
  C   C2488     1.0  0.73216  0.60990  0.51539  1.0000
  H   H1992     1.0  0.74290  0.62561  0.67934  1.0000
  C   C2489     1.0  0.63132  0.64785  0.53214  1.0000
  H   H1993     1.0  0.62269  0.63920  0.74046  1.0000
  H   H1994     1.0  0.64044  0.37913  0.56738  1.0000
  H   H1995     1.0  0.62090  0.41518  0.55936  1.0000
  H   H1996     1.0  0.70471  0.40703  0.77188  1.0000
  C   C2490     1.0  0.74810  0.51384  0.62851  1.0000
  H   H1997     1.0  0.57140  0.65908  0.70952  1.0000
  C   C2491     1.0  0.64217  0.65461  0.55520  1.0000
  P   P83       1.0  0.70560  0.64095  0.93518  1.0000
  C   C2492     1.0  0.69629  0.61573  0.92322  1.0000
  C   C2493     1.0  0.73130  0.64432  0.91904  1.0000
  C   C2494     1.0  0.75638  0.50164  0.77218  1.0000
  C   C2495     1.0  0.69769  0.66888  0.65358  1.0000
  H   H1998     1.0  0.69170  0.36976  0.55059  1.0000
  H   H1999     1.0  0.73530  0.52035  0.61486  1.0000
  C   C2496     1.0  0.73429  0.63764  0.89234  1.0000
  P   P84       1.0  0.76025  0.35293  0.50050  1.0000
  H   H2000     1.0  0.68496  0.37457  0.69150  1.0000
  C   C2497     1.0  0.56389  0.65136  0.56616  1.0000
  C   C2498     1.0  0.53489  0.55423  0.90269  1.0000
  H   H2001     1.0  0.57852  0.65976  0.56484  1.0000
  H   H2002     1.0  0.71806  0.44636  0.96736  1.0000
  C   C2499     1.0  0.73375  0.57145  0.82359  1.0000
  H   H2003     1.0  0.67392  0.37532  0.59604  1.0000
  H   H2004     1.0  0.61354  0.50063  0.68006  1.0000
  C   C2500     1.0  0.74785  0.65468  0.93209  1.0000
  S   S344      1.0  0.52143  0.61154  0.96363  1.0000
  Fe  Fe176     1.0  0.59567  0.57861  0.50562  1.0000
  C   C2501     1.0  0.54197  0.58353  0.87365  1.0000
  C   C2502     1.0  0.54940  0.56789  0.89236  1.0000
  C   C2503     1.0  0.72890  0.35968  0.94910  1.0000
  C   C2504     1.0  0.60875  0.59316  0.57507  1.0000
  C   C2505     1.0  0.75090  0.61347  0.60948  1.0000
  H   H2005     1.0  0.75588  0.64509  0.62644  1.0000
  C   C2506     1.0  0.56843  0.62545  0.65583  1.0000
  H   H2006     1.0  0.72144  0.63041  0.88148  1.0000
  C   C2507     1.0  0.73350  0.39207  0.50352  1.0000
  C   C2508     1.0  0.52685  0.62859  0.56877  1.0000
  H   H2007     1.0  0.67474  0.45708  0.56154  1.0000
  H   H2008     1.0  0.62014  0.63548  0.53340  1.0000
  H   H2009     1.0  0.66604  0.58089  0.50430  1.0000
  C   C2509     1.0  0.65692  0.67055  0.55402  1.0000
  C   C2510     1.0  0.75050  0.57910  0.86613  1.0000
  C   C2511     1.0  0.70430  0.57727  0.91298  1.0000
  C   C2512     1.0  0.70311  0.37592  0.53705  1.0000
  C   C2513     1.0  0.53140  0.63917  0.54532  1.0000
  H   H2010     1.0  0.67736  0.56127  0.89644  1.0000
  H   H2011     1.0  0.56674  0.54934  0.57507  1.0000
  H   H2012     1.0  0.60788  0.61010  0.88439  1.0000
  H   H2013     1.0  0.54258  0.59950  0.71144  1.0000
  H   H2014     1.0  0.55961  0.54429  0.65968  1.0000
  S   S345      1.0  0.54576  0.55190  0.71397  1.0000
  S   S346      1.0  0.58236  0.61831  0.94143  1.0000
  C   C2514     1.0  0.73514  0.35981  0.66528  1.0000
  H   H2015     1.0  0.54058  0.54243  0.91764  1.0000
  Fe  Fe177     1.0  0.60069  0.58513  0.94123  1.0000
  H   H2016     1.0  0.57885  0.61400  0.64405  1.0000
  C   C2515     1.0  0.61302  0.60265  0.60001  1.0000
  C   C2516     1.0  0.66300  0.65224  0.71964  1.0000
  H   H2017     1.0  0.68525  0.40757  0.53438  1.0000
  C   C2517     1.0  0.53280  0.64415  0.66549  1.0000
  H   H2018     1.0  0.69948  0.59346  0.66933  1.0000
  H   H2019     1.0  0.58508  0.45696  0.60276  1.0000
  C   C2518     1.0  0.69966  0.36434  0.68620  1.0000
  C   C2519     1.0  0.53176  0.55766  0.53427  1.0000
  P   P85       1.0  0.71072  0.58093  0.48405  1.0000
  H   H2020     1.0  0.70533  0.56254  0.70028  1.0000
  C   C2520     1.0  0.69953  0.39721  0.52794  1.0000
  C   C2521     1.0  0.69940  0.56667  0.51105  1.0000
  C   C2522     1.0  0.67683  0.56968  0.51608  1.0000
  C   C2523     1.0  0.66795  0.55824  0.53647  1.0000
  C   C2524     1.0  0.68157  0.54431  0.55263  1.0000
  H   H2021     1.0  0.74086  0.53950  0.70101  1.0000
  H   H2022     1.0  0.74524  0.39869  0.49073  1.0000
  H   H2023     1.0  0.62529  0.46645  0.76630  1.0000
  C   C2525     1.0  0.72183  0.36265  0.52948  1.0000
  C   C2526     1.0  0.71627  0.37303  0.67235  1.0000
  S   S347      1.0  0.51966  0.61000  0.47672  1.0000
  H   H2024     1.0  0.65050  0.56047  0.54008  1.0000
  H   H2025     1.0  0.67459  0.53552  0.56850  1.0000
  C   C2527     1.0  0.75357  0.64108  0.87907  1.0000
  C   C2528     1.0  0.72962  0.36780  0.92328  1.0000
  C   C2529     1.0  0.66798  0.59507  0.90446  1.0000
  S   S348      1.0  0.73727  0.44655  0.78563  1.0000
  H   H2026     1.0  0.65230  0.55635  0.93721  1.0000
  H   H2027     1.0  0.72640  0.49954  0.71474  1.0000
  C   C2530     1.0  0.73828  0.55297  0.68734  1.0000
  H   H2028     1.0  0.74954  0.63245  0.53861  1.0000
  C   C2531     1.0  0.73921  0.50630  0.79009  1.0000
  C   C2532     1.0  0.71734  0.50851  0.78089  1.0000
  C   C2533     1.0  0.71299  0.50654  0.75347  1.0000
  P   P86       1.0  0.69490  0.51358  0.80386  1.0000
  C   C2534     1.0  0.67274  0.49834  0.79291  1.0000
  C   C2535     1.0  0.70427  0.50482  0.83671  1.0000
  C   C2536     1.0  0.71432  0.51907  0.85384  1.0000
  C   C2537     1.0  0.72093  0.51268  0.87957  1.0000
  C   C2538     1.0  0.71813  0.49180  0.88813  1.0000
  C   C2539     1.0  0.70900  0.47721  0.87086  1.0000
  C   C2540     1.0  0.70209  0.48365  0.84523  1.0000
  C   C2541     1.0  0.65082  0.50726  0.79507  1.0000
  C   C2542     1.0  0.63380  0.49571  0.78561  1.0000
  C   C2543     1.0  0.63850  0.47518  0.77404  1.0000
  C   C2544     1.0  0.66023  0.46610  0.77209  1.0000
  C   C2545     1.0  0.67730  0.47760  0.78150  1.0000
  C   C2546     1.0  0.68514  0.54209  0.80430  1.0000
  C   C2547     1.0  0.68550  0.55444  0.78104  1.0000
  C   C2548     1.0  0.67789  0.57649  0.78146  1.0000
  C   C2549     1.0  0.66987  0.58635  0.80500  1.0000
  C   C2550     1.0  0.66883  0.57405  0.82799  1.0000
  C   C2551     1.0  0.67604  0.55193  0.82755  1.0000
  H   H2029     1.0  0.75334  0.59557  0.46881  1.0000
  H   H2030     1.0  0.74975  0.38064  0.89367  1.0000
  C   C2552     1.0  0.65621  0.54940  0.95658  1.0000
  H   H2031     1.0  0.74310  0.50730  0.81111  1.0000
  H   H2032     1.0  0.69626  0.50795  0.74590  1.0000
  H   H2033     1.0  0.71699  0.53513  0.84734  1.0000
  H   H2034     1.0  0.72829  0.52380  0.89288  1.0000
  H   H2035     1.0  0.72324  0.48679  0.90806  1.0000
  H   H2036     1.0  0.70740  0.46080  0.87736  1.0000
  H   H2037     1.0  0.69525  0.47199  0.83215  1.0000
  H   H2038     1.0  0.64675  0.52323  0.80361  1.0000
  H   H2039     1.0  0.61697  0.50288  0.78678  1.0000
  C   C2553     1.0  0.70072  0.62587  0.49013  1.0000
  H   H2040     1.0  0.53868  0.52331  0.54009  1.0000
  H   H2041     1.0  0.69406  0.47040  0.77958  1.0000
  H   H2042     1.0  0.69113  0.54702  0.76244  1.0000
  H   H2043     1.0  0.67750  0.58584  0.76337  1.0000
  H   H2044     1.0  0.66336  0.60329  0.80506  1.0000
  H   H2045     1.0  0.66130  0.58147  0.84571  1.0000
  H   H2046     1.0  0.67394  0.54244  0.84515  1.0000
  C   C2554     1.0  0.71309  0.55301  0.52778  1.0000
  H   H2047     1.0  0.71267  0.64492  0.75167  1.0000
  H   H2048     1.0  0.70993  0.60706  0.73622  1.0000
  C   C2555     1.0  0.68278  0.57642  0.90375  1.0000
  H   H2049     1.0  0.57638  0.45061  0.50457  1.0000
  H   H2050     1.0  0.61306  0.45411  0.52411  1.0000
  H   H2051     1.0  0.56637  0.56650  0.89906  1.0000
  H   H2052     1.0  0.68822  0.40779  0.61580  1.0000
  H   H2053     1.0  0.60968  0.62401  0.83828  1.0000
  H   H2054     1.0  0.71377  0.39814  0.72480  1.0000
  H   H2055     1.0  0.71448  0.38996  0.66683  1.0000
  C   C2556     1.0  0.74693  0.44276  0.70570  1.0000
  H   H2056     1.0  0.55326  0.59425  0.86592  1.0000
  C   C2557     1.0  0.59526  0.65505  0.76123  1.0000
  C   C2558     1.0  0.54601  0.62937  0.64970  1.0000
  S   S349      1.0  0.62081  0.64974  0.47830  1.0000
  C   C2559     1.0  0.52342  0.57226  0.71307  1.0000
  C   C2560     1.0  0.71975  0.39714  0.76706  1.0000
  C   C2561     1.0  0.72462  0.65637  0.68705  1.0000
  C   C2562     1.0  0.72237  0.64873  0.51701  1.0000
  C   C2563     1.0  0.74103  0.34866  0.59837  1.0000
  H   H2057     1.0  0.74089  0.36667  0.84304  1.0000
  H   H2058     1.0  0.63933  0.64710  0.57391  1.0000
  C   C2564     1.0  0.74912  0.37441  0.91368  1.0000
  C   C2565     1.0  0.72994  0.63737  0.67221  1.0000
  H   H2059     1.0  0.54524  0.58278  0.66223  1.0000
  H   H2060     1.0  0.73014  0.39372  0.80783  1.0000
  H   H2061     1.0  0.52036  0.59145  0.53075  1.0000
  H   H2062     1.0  0.66908  0.44423  0.60802  1.0000
  C   C2566     1.0  0.74405  0.45017  0.47313  1.0000
  H   H2063     1.0  0.66191  0.65488  0.95545  1.0000
  H   H2064     1.0  0.60418  0.60336  0.55821  1.0000
  C   C2567     1.0  0.71475  0.40528  0.51118  1.0000
  C   C2568     1.0  0.74578  0.34946  0.84363  1.0000
  H   H2065     1.0  0.69357  0.47963  0.53146  1.0000
  C   C2569     1.0  0.75144  0.57430  0.65185  1.0000
  C   C2570     1.0  0.61343  0.65465  0.74460  1.0000
  C   C2571     1.0  0.71483  0.60750  0.49729  1.0000
  C   C2572     1.0  0.72490  0.39218  0.74058  1.0000
  H   H2066     1.0  0.72538  0.50136  0.65526  1.0000
  H   H2067     1.0  0.74777  0.36652  0.65401  1.0000
  Fe  Fe178     1.0  0.60141  0.62039  0.47766  1.0000
  H   H2068     1.0  0.54741  0.55942  0.52513  1.0000
  S   S350      1.0  0.62000  0.58728  0.47549  1.0000
  H   H2069     1.0  0.61585  0.50396  0.59494  1.0000
  C   C2573     1.0  0.52628  0.59434  0.71154  1.0000
  H   H2070     1.0  0.68654  0.62452  0.47732  1.0000
  H   H2071     1.0  0.63126  0.44284  0.63467  1.0000
  C   C2574     1.0  0.75001  0.44392  0.75422  1.0000
  H   H2072     1.0  0.62504  0.46130  0.67795  1.0000
  C   C2575     1.0  0.69836  0.64088  0.74046  1.0000
  H   H2073     1.0  0.65115  0.59433  0.89778  1.0000
  H   H2074     1.0  0.75448  0.48496  0.68571  1.0000
  C   C2576     1.0  0.69681  0.61960  0.73180  1.0000
  H   H2075     1.0  0.71348  0.35518  0.95648  1.0000
  H   H2076     1.0  0.52759  0.56392  0.96640  1.0000
  H   H2077     1.0  0.71465  0.53099  0.56102  1.0000
  S   S351      1.0  0.57841  0.61201  0.50951  1.0000
  H   H2078     1.0  0.54865  0.45335  0.58287  1.0000
  C   C2577     1.0  0.63610  0.65398  0.63259  1.0000
  H   H2079     1.0  0.55350  0.65866  0.52579  1.0000
  C   C2578     1.0  0.52000  0.58552  0.86521  1.0000
  C   C2579     1.0  0.56434  0.65096  0.69276  1.0000
  C   C2580     1.0  0.75051  0.43867  0.95165  1.0000
  C   C2581     1.0  0.71831  0.56600  0.68698  1.0000
  C   C2582     1.0  0.64242  0.50641  0.52739  1.0000
  C   C2583     1.0  0.66469  0.50122  0.52235  1.0000
  C   C2584     1.0  0.67616  0.48340  0.53478  1.0000
  C   C2585     1.0  0.66533  0.47058  0.55200  1.0000
  C   C2586     1.0  0.64287  0.47551  0.55702  1.0000
  C   C2587     1.0  0.63155  0.49366  0.54464  1.0000
  P   P87       1.0  0.62855  0.45900  0.57917  1.0000
  C   C2588     1.0  0.60177  0.45612  0.56486  1.0000
  C   C2589     1.0  0.64347  0.43251  0.58314  1.0000
  C   C2590     1.0  0.63562  0.41396  0.57159  1.0000
  C   C2591     1.0  0.64662  0.39342  0.57614  1.0000
  C   C2592     1.0  0.66545  0.39123  0.59226  1.0000
  C   C2593     1.0  0.67354  0.40959  0.60346  1.0000
  C   C2594     1.0  0.66268  0.43016  0.59890  1.0000
  C   C2595     1.0  0.59911  0.45409  0.53713  1.0000
  H   H2080     1.0  0.59496  0.63335  0.68151  1.0000
  C   C2596     1.0  0.63474  0.65732  0.50760  1.0000
  C   C2597     1.0  0.56274  0.45361  0.57009  1.0000
  C   C2598     1.0  0.58345  0.45569  0.58130  1.0000
  C   C2599     1.0  0.62480  0.47219  0.61134  1.0000
  C   C2600     1.0  0.62682  0.46016  0.63502  1.0000
  C   C2601     1.0  0.70476  0.64642  0.49962  1.0000
  C   C2602     1.0  0.61379  0.50462  0.63742  1.0000
  C   C2603     1.0  0.61804  0.49445  0.61279  1.0000
  H   H2081     1.0  0.63356  0.52047  0.51813  1.0000
  H   H2082     1.0  0.67312  0.51123  0.50916  1.0000
  H   H2083     1.0  0.71221  0.42189  0.50440  1.0000
  H   H2084     1.0  0.74794  0.37592  0.71389  1.0000
  C   C2604     1.0  0.54979  0.65074  0.54412  1.0000
  C   C2605     1.0  0.73016  0.50191  0.73564  1.0000
  H   H2085     1.0  0.75014  0.58328  0.58757  1.0000
  H   H2086     1.0  0.62703  0.53283  0.95744  1.0000
  H   H2087     1.0  0.51536  0.64726  0.66168  1.0000
  H   H2088     1.0  0.51442  0.59821  0.85136  1.0000
  H   H2089     1.0  0.66013  0.64930  0.66359  1.0000
  S   S352      1.0  0.57551  0.57037  0.96541  1.0000
  H   H2090     1.0  0.53154  0.66581  0.69943  1.0000
  C   C2606     1.0  0.75160  0.44719  0.49960  1.0000
  H   H2091     1.0  0.72737  0.45697  0.46933  1.0000
  H   H2092     1.0  0.72402  0.53519  0.47364  1.0000
  C   C2607     1.0  0.75186  0.49934  0.74500  1.0000
  C   C2608     1.0  0.63095  0.66864  0.67737  1.0000
  C   C2609     1.0  0.73796  0.54415  0.46990  1.0000
  H   H2093     1.0  0.74911  0.58487  0.88653  1.0000
  C   C2610     1.0  0.74242  0.50310  0.65133  1.0000
  C   C2611     1.0  0.61533  0.66348  0.62507  1.0000
  H   H2094     1.0  0.68558  0.56532  0.96200  1.0000
  S   S353      1.0  0.75714  0.46128  0.60567  1.0000
  H   H2095     1.0  0.75541  0.55913  0.79269  1.0000
  C   C2612     1.0  0.75878  0.49414  0.66870  1.0000
  Fe  Fe179     1.0  0.75877  0.43545  0.82083  1.0000
  C   C2613     1.0  0.75839  0.59782  0.59036  1.0000
  H   H2096     1.0  0.71288  0.34056  0.83747  1.0000
  C   C2614     1.0  0.70181  0.34234  0.69270  1.0000
  C   C2615     1.0  0.75439  0.56480  0.81312  1.0000
  C   C2616     1.0  0.75969  0.37308  0.75472  1.0000
  C   C2617     1.0  0.75490  0.55726  0.66997  1.0000
  H   H2097     1.0  0.51270  0.61946  0.56924  1.0000
  C   C2618     1.0  0.66035  0.99776  0.32771  1.0000
  S   S354      1.0  0.70824  0.72522  0.05225  1.0000
  Fe  Fe180     1.0  0.70428  0.91878  0.32799  1.0000
  S   S355      1.0  0.70609  0.72693  0.11749  1.0000
  H   H2098     1.0  0.73796  0.76070  0.32560  1.0000
  Fe  Fe181     1.0  0.70209  0.70211  0.08482  1.0000
  S   S356      1.0  0.73947  0.67475  0.27023  1.0000
  Fe  Fe182     1.0  0.71623  0.74852  0.08502  1.0000
  S   S357      1.0  0.73700  0.68714  0.08850  1.0000
  C   C2619     1.0  0.57169  0.69692  0.07988  1.0000
  H   H2099     1.0  0.55873  0.69476  0.35385  1.0000
  H   H2100     1.0  0.74191  0.75261  0.46308  1.0000
  C   C2620     1.0  0.64476  0.95994  0.40290  1.0000
  H   H2101     1.0  0.60768  0.74203  0.14681  1.0000
  C   C2621     1.0  0.75521  0.81867  0.33681  1.0000
  C   C2622     1.0  0.66023  0.84247  0.29767  1.0000
  C   C2623     1.0  0.73231  0.92018  0.44667  1.0000
  H   H2102     1.0  0.63381  0.67473  0.18340  1.0000
  C   C2624     1.0  0.64206  0.83192  0.28987  1.0000
  H   H2103     1.0  0.63408  0.98509  0.25058  1.0000
  C   C2625     1.0  0.74240  0.92561  0.19121  1.0000
  S   S358      1.0  0.67235  0.93912  0.31902  1.0000
  H   H2104     1.0  0.59976  0.95574  0.39533  1.0000
  C   C2626     1.0  0.58308  0.73465  0.17461  1.0000
  C   C2627     1.0  0.58012  0.67671  0.09011  1.0000
  Fe  Fe183     1.0  0.72316  0.87162  0.33279  1.0000
  C   C2628     1.0  0.66819  0.97765  0.24124  1.0000
  C   C2629     1.0  0.68800  0.96597  0.24911  1.0000
  C   C2630     1.0  0.68928  0.95380  0.27268  1.0000
  C   C2631     1.0  0.67074  0.95301  0.28840  1.0000
  C   C2632     1.0  0.65076  0.96407  0.28006  1.0000
  C   C2633     1.0  0.64950  0.97647  0.25667  1.0000
  H   H2105     1.0  0.70248  0.96658  0.23715  1.0000
  H   H2106     1.0  0.63632  0.96347  0.29208  1.0000
  H   H2107     1.0  0.73259  0.81737  0.13736  1.0000
  C   C2634     1.0  0.65520  0.95281  0.42682  1.0000
  C   C2635     1.0  0.64615  0.67947  0.01184  1.0000
  C   C2636     1.0  0.75337  0.91093  0.44017  1.0000
  H   H2108     1.0  0.71098  0.94438  0.97555  1.0000
  C   C2637     1.0  0.73821  0.92154  0.23904  1.0000
  C   C2638     1.0  0.72621  0.80318  0.08212  1.0000
  H   H2109     1.0  0.72471  0.82696  0.99788  1.0000
  C   C2639     1.0  0.75538  0.70695  0.98993  1.0000
  C   C2640     1.0  0.70598  0.84950  0.40905  1.0000
  C   C2641     1.0  0.73971  0.68728  0.19075  1.0000
  H   H2110     1.0  0.71875  0.76337  0.39388  1.0000
  C   C2642     1.0  0.74670  0.98388  0.28139  1.0000
  C   C2643     1.0  0.65932  0.68463  0.03377  1.0000
  C   C2644     1.0  0.69135  0.96219  0.11970  1.0000
  C   C2645     1.0  0.72801  0.85751  0.44763  1.0000
  H   H2111     1.0  0.71132  0.98978  0.99655  1.0000
  H   H2112     1.0  0.73176  0.85757  0.08546  1.0000
  H   H2113     1.0  0.66659  0.69983  0.03430  1.0000
  H   H2114     1.0  0.64338  0.69083  0.99566  1.0000
  H   H2115     1.0  0.75086  0.99334  0.12040  1.0000
  H   H2116     1.0  0.60662  0.99431  0.12698  1.0000
  C   C2646     1.0  0.73297  0.71184  0.98481  1.0000
  S   S359      1.0  0.75726  0.88073  0.33898  1.0000
  H   H2117     1.0  0.72155  0.71266  0.00096  1.0000
  C   C2647     1.0  0.56730  0.00486  0.25941  1.0000
  H   H2118     1.0  0.70975  0.79223  0.32704  1.0000
  H   H2119     1.0  0.56546  0.71620  0.04450  1.0000
  C   C2648     1.0  0.67911  0.67971  0.17873  1.0000
  H   H2120     1.0  0.72037  0.92417  0.43097  1.0000
  C   C2649     1.0  0.55151  0.68291  0.34133  1.0000
  C   C2650     1.0  0.64456  0.94544  0.38120  1.0000
  H   H2121     1.0  0.73460  0.88316  0.16415  1.0000
  C   C2651     1.0  0.66538  0.93164  0.42884  1.0000
  C   C2652     1.0  0.63830  0.82759  0.26288  1.0000
  C   C2653     1.0  0.65286  0.83360  0.24371  1.0000
  C   C2654     1.0  0.67138  0.84386  0.25147  1.0000
  C   C2655     1.0  0.67470  0.84862  0.27856  1.0000
  P   P88       1.0  0.68994  0.85220  0.22680  1.0000
  C   C2656     1.0  0.71744  0.85042  0.24059  1.0000
  C   C2657     1.0  0.68993  0.83369  0.19858  1.0000
  C   C2658     1.0  0.70432  0.81452  0.19812  1.0000
  C   C2659     1.0  0.70414  0.80011  0.17647  1.0000
  C   C2660     1.0  0.68975  0.80477  0.15503  1.0000
  C   C2661     1.0  0.67521  0.82363  0.15541  1.0000
  C   C2662     1.0  0.67508  0.83791  0.17723  1.0000
  C   C2663     1.0  0.73211  0.86508  0.23284  1.0000
  C   C2664     1.0  0.62850  0.68667  0.19847  1.0000
  C   C2665     1.0  0.73170  0.98619  0.30222  1.0000
  H   H2122     1.0  0.53370  0.68774  0.12734  1.0000
  C   C2666     1.0  0.72456  0.83398  0.25870  1.0000
  C   C2667     1.0  0.68133  0.87993  0.21746  1.0000
  C   C2668     1.0  0.67037  0.89437  0.23579  1.0000
  C   C2669     1.0  0.66372  0.91578  0.22859  1.0000
  C   C2670     1.0  0.66807  0.92306  0.20315  1.0000
  C   C2671     1.0  0.67927  0.90892  0.18493  1.0000
  C   C2672     1.0  0.68607  0.88753  0.19212  1.0000
  H   H2123     1.0  0.62408  0.81962  0.25683  1.0000
  H   H2124     1.0  0.64959  0.83027  0.22291  1.0000
  H   H2125     1.0  0.68854  0.85701  0.28505  1.0000
  H   H2126     1.0  0.71579  0.81063  0.21431  1.0000
  H   H2127     1.0  0.71552  0.78554  0.17597  1.0000
  H   H2128     1.0  0.69009  0.79387  0.13796  1.0000
  H   H2129     1.0  0.66417  0.82725  0.13864  1.0000
  H   H2130     1.0  0.66345  0.85228  0.17734  1.0000
  H   H2131     1.0  0.72717  0.87789  0.21891  1.0000
  C   C2673     1.0  0.59513  0.71159  0.13730  1.0000
  C   C2674     1.0  0.59635  0.73055  0.15236  1.0000
  H   H2132     1.0  0.55849  0.72283  0.19930  1.0000
  H   H2133     1.0  0.71368  0.82234  0.26499  1.0000
  H   H2134     1.0  0.66720  0.88936  0.25583  1.0000
  H   H2135     1.0  0.65557  0.92693  0.24294  1.0000
  H   H2136     1.0  0.66349  0.93988  0.19796  1.0000
  H   H2137     1.0  0.68350  0.91485  0.16562  1.0000
  H   H2138     1.0  0.69531  0.87709  0.17804  1.0000
  S   S360      1.0  0.72569  0.69281  0.40310  1.0000
  C   C2675     1.0  0.73106  0.85084  0.14983  1.0000
  C   C2676     1.0  0.74278  0.93835  0.99440  1.0000
  C   C2677     1.0  0.73645  0.84039  0.08334  1.0000
  H   H2139     1.0  0.67463  0.97762  0.15346  1.0000
  H   H2140     1.0  0.72993  0.74201  0.25284  1.0000
  S   S361      1.0  0.75162  0.73603  0.08799  1.0000
  H   H2141     1.0  0.70470  0.94531  0.27897  1.0000
  C   C2678     1.0  0.70093  0.78215  0.01527  1.0000
  H   H2142     1.0  0.74444  0.73299  0.41031  1.0000
  S   S362      1.0  0.73925  0.90335  0.08828  1.0000
  C   C2679     1.0  0.75874  0.00538  0.10971  1.0000
  C   C2680     1.0  0.72118  0.81020  0.99744  1.0000
  C   C2681     1.0  0.59157  0.97108  0.40204  1.0000
  H   H2143     1.0  0.65510  0.91349  0.36614  1.0000
  C   C2682     1.0  0.72689  0.79466  0.32961  1.0000
  H   H2144     1.0  0.63700  0.95057  0.36235  1.0000
  C   C2683     1.0  0.75859  0.83277  0.08022  1.0000
  C   C2684     1.0  0.72903  0.92552  0.21360  1.0000
  C   C2685     1.0  0.74065  0.82947  0.14843  1.0000
  H   H2145     1.0  0.70336  0.83168  0.08720  1.0000
  Fe  Fe184     1.0  0.74136  0.71333  0.11902  1.0000
  C   C2686     1.0  0.70902  0.82507  0.44658  1.0000
  C   C2687     1.0  0.74286  0.77677  0.32881  1.0000
  S   S363      1.0  0.73004  0.92841  0.15924  1.0000
  Fe  Fe185     1.0  0.75149  0.92183  0.12326  1.0000
  C   C2688     1.0  0.75915  0.69178  0.44079  1.0000
  C   C2689     1.0  0.53074  0.68789  0.32979  1.0000
  H   H2146     1.0  0.60561  0.70853  0.12019  1.0000
  P   P89       1.0  0.63237  0.98757  0.39950  1.0000
  H   H2147     1.0  0.67339  0.90111  0.40854  1.0000
  S   S364      1.0  0.73696  0.93157  0.33551  1.0000
  H   H2148     1.0  0.67599  0.99342  0.31829  1.0000
  C   C2690     1.0  0.64472  0.00433  0.42397  1.0000
  H   H2149     1.0  0.63088  0.82720  0.30478  1.0000
  H   H2150     1.0  0.73459  0.00442  0.23408  1.0000
  H   H2151     1.0  0.73452  0.97479  0.15672  1.0000
  C   C2691     1.0  0.74355  0.97971  0.17410  1.0000
  H   H2152     1.0  0.70350  0.71925  0.27241  1.0000
  H   H2153     1.0  0.56004  0.95860  0.40402  1.0000
  H   H2154     1.0  0.73819  0.86845  0.45775  1.0000
  C   C2692     1.0  0.65476  0.92430  0.38331  1.0000
  C   C2693     1.0  0.60234  0.69968  0.23217  1.0000
  S   S365      1.0  0.71255  0.83774  0.33349  1.0000
  Fe  Fe186     1.0  0.74330  0.71144  0.05734  1.0000
  C   C2694     1.0  0.72034  0.82565  0.08429  1.0000
  C   C2695     1.0  0.71228  0.98515  0.09342  1.0000
  H   H2155     1.0  0.72364  0.87781  0.41322  1.0000
  H   H2156     1.0  0.76012  0.83473  0.33996  1.0000
  H   H2157     1.0  0.71149  0.92818  0.21131  1.0000
  C   C2696     1.0  0.74372  0.99596  0.21814  1.0000
  C   C2697     1.0  0.74622  0.68518  0.23894  1.0000
  S   S366      1.0  0.73233  0.94204  0.02712  1.0000
  H   H2158     1.0  0.58984  0.97664  0.26721  1.0000
  C   C2698     1.0  0.64723  0.72486  0.11075  1.0000
  C   C2699     1.0  0.64807  0.74731  0.11157  1.0000
  C   C2700     1.0  0.65330  0.75750  0.13547  1.0000
  C   C2701     1.0  0.65837  0.74519  0.15835  1.0000
  C   C2702     1.0  0.65872  0.72248  0.15729  1.0000
  C   C2703     1.0  0.65208  0.71255  0.13365  1.0000
  P   P90       1.0  0.66599  0.70643  0.18655  1.0000
  C   C2704     1.0  0.68563  0.71862  0.20767  1.0000
  C   C2705     1.0  0.64077  0.70418  0.20390  1.0000
  C   C2706     1.0  0.63311  0.71996  0.22272  1.0000
  C   C2707     1.0  0.61401  0.71763  0.23693  1.0000
  C   C2708     1.0  0.57947  0.68386  0.03497  1.0000
  H   H2159     1.0  0.58774  0.69769  0.24346  1.0000
  H   H2160     1.0  0.56859  0.00320  0.23795  1.0000
  C   C2709     1.0  0.68661  0.71441  0.23514  1.0000
  C   C2710     1.0  0.70229  0.72317  0.25140  1.0000
  C   C2711     1.0  0.71729  0.73595  0.24034  1.0000
  C   C2712     1.0  0.71682  0.73972  0.21293  1.0000
  C   C2713     1.0  0.70123  0.73091  0.19661  1.0000
  H   H2161     1.0  0.71089  0.67561  0.97358  1.0000
  H   H2162     1.0  0.58616  0.97980  0.31632  1.0000
  S   S367      1.0  0.73993  0.71501  0.33224  1.0000
  C   C2714     1.0  0.56863  0.71973  0.18188  1.0000
  Fe  Fe187     1.0  0.74882  0.69465  0.36852  1.0000
  C   C2715     1.0  0.57915  0.98978  0.27591  1.0000
  H   H2163     1.0  0.64336  0.71687  0.09217  1.0000
  H   H2164     1.0  0.64491  0.75676  0.09363  1.0000
  H   H2165     1.0  0.65391  0.77491  0.13605  1.0000
  H   H2166     1.0  0.66249  0.75337  0.17663  1.0000
  H   H2167     1.0  0.65129  0.69519  0.13257  1.0000
  H   H2168     1.0  0.64206  0.73389  0.22672  1.0000
  H   H2169     1.0  0.60844  0.72961  0.25188  1.0000
  C   C2716     1.0  0.72216  0.69700  0.45745  1.0000
  C   C2717     1.0  0.73121  0.79533  0.97891  1.0000
  H   H2170     1.0  0.73120  0.68236  0.17312  1.0000
  H   H2171     1.0  0.67573  0.70386  0.24398  1.0000
  H   H2172     1.0  0.72766  0.92049  0.25583  1.0000
  C   C2718     1.0  0.73547  0.76608  0.39918  1.0000
  H   H2173     1.0  0.72928  0.74853  0.20412  1.0000
  H   H2174     1.0  0.70193  0.73311  0.17532  1.0000
  H   H2175     1.0  0.69104  0.68811  0.14013  1.0000
  H   H2176     1.0  0.67027  0.98194  0.36430  1.0000
  C   C2719     1.0  0.66518  0.91739  0.40710  1.0000
  H   H2177     1.0  0.68628  0.94633  0.12385  1.0000
  C   C2720     1.0  0.59988  0.00020  0.10804  1.0000
  C   C2721     1.0  0.58054  0.69661  0.14431  1.0000
  S   S368      1.0  0.66724  0.99325  0.21189  1.0000
  H   H2178     1.0  0.68962  0.82045  0.41113  1.0000
  C   C2722     1.0  0.56750  0.70064  0.16697  1.0000
  H   H2179     1.0  0.69970  0.85358  0.38924  1.0000
  C   C2723     1.0  0.55806  0.99232  0.41555  1.0000
  H   H2180     1.0  0.71463  0.99415  0.19386  1.0000
  C   C2724     1.0  0.73301  0.81567  0.33352  1.0000
  C   C2725     1.0  0.71949  0.86305  0.42241  1.0000
  H   H2181     1.0  0.70422  0.81067  0.45596  1.0000
  H   H2182     1.0  0.54062  0.99354  0.41950  1.0000
  C   C2726     1.0  0.63667  0.99660  0.36601  1.0000
  C   C2727     1.0  0.72764  0.99434  0.99300  1.0000
  C   C2728     1.0  0.68487  0.97978  0.13641  1.0000
  C   C2729     1.0  0.73652  0.69394  0.43588  1.0000
  H   H2183     1.0  0.74629  0.97022  0.26770  1.0000
  C   C2730     1.0  0.73515  0.67892  0.21585  1.0000
  H   H2184     1.0  0.55667  0.68905  0.17338  1.0000
  C   C2731     1.0  0.72838  0.94090  0.97232  1.0000
  H   H2185     1.0  0.58410  0.74934  0.18631  1.0000
  C   C2732     1.0  0.65702  0.99130  0.35380  1.0000
  C   C2733     1.0  0.56902  0.97266  0.40689  1.0000
  H   H2186     1.0  0.62421  0.98117  0.08482  1.0000
  C   C2734     1.0  0.71014  0.76752  0.99621  1.0000
  C   C2735     1.0  0.76025  0.84739  0.26175  1.0000
  H   H2187     1.0  0.68965  0.77694  0.02975  1.0000
  H   H2188     1.0  0.71994  0.97443  0.30456  1.0000
  C   C2736     1.0  0.60949  0.68430  0.21279  1.0000
  H   H2189     1.0  0.52192  0.70371  0.33322  1.0000
  S   S369      1.0  0.67707  0.67726  0.08436  1.0000
  S   S370      1.0  0.70809  0.89574  0.36251  1.0000
  C   C2737     1.0  0.75552  0.70185  0.18847  1.0000
  Fe  Fe188     1.0  0.74203  0.90603  0.36757  1.0000
  H   H2190     1.0  0.70984  0.95126  0.08506  1.0000
  H   H2191     1.0  0.74125  0.79194  0.45471  1.0000
  C   C2738     1.0  0.70478  0.96495  0.09800  1.0000
  H   H2192     1.0  0.71553  0.85531  0.13982  1.0000
  H   H2193     1.0  0.67375  0.92635  0.44716  1.0000
  H   H2194     1.0  0.56524  0.70991  0.09302  1.0000
  H   H2195     1.0  0.70569  0.75107  0.99562  1.0000
  H   H2196     1.0  0.65588  0.96354  0.44385  1.0000
  H   H2197     1.0  0.75300  0.77870  0.07542  1.0000
  H   H2198     1.0  0.73553  0.99730  0.03467  1.0000
  S   S371      1.0  0.71615  0.89359  0.29784  1.0000
  C   C2739     1.0  0.70044  0.83071  0.42133  1.0000
  S   S372      1.0  0.70582  0.78489  0.08531  1.0000
  H   H2199     1.0  0.72326  0.98670  0.07702  1.0000
  H   H2200     1.0  0.66330  0.84587  0.31857  1.0000
  H   H2201     1.0  0.70463  0.69873  0.45381  1.0000
  C   C2740     1.0  0.72518  0.77406  0.97802  1.0000
  H   H2202     1.0  0.69919  0.81481  0.03065  1.0000
  C   C2741     1.0  0.74186  0.86652  0.16343  1.0000
  C   C2742     1.0  0.60331  0.98919  0.40597  1.0000
  C   C2743     1.0  0.57159  0.70051  0.05238  1.0000
  H   H2203     1.0  0.75126  0.81983  0.28305  1.0000
  C   C2744     1.0  0.74822  0.79574  0.07802  1.0000
  C   C2745     1.0  0.70634  0.80351  0.01578  1.0000
  C   C2746     1.0  0.63729  0.00499  0.45035  1.0000
  C   C2747     1.0  0.57710  0.99162  0.30355  1.0000
  H   H2204     1.0  0.73145  0.79992  0.38900  1.0000
  C   C2748     1.0  0.72373  0.83792  0.45935  1.0000
  C   C2749     1.0  0.74588  0.83252  0.26916  1.0000
  H   H2205     1.0  0.62451  0.99525  0.45627  1.0000
  Fe  Fe189     1.0  0.75262  0.92827  0.06251  1.0000
  C   C2750     1.0  0.69198  0.00011  0.13160  1.0000
  C   C2751     1.0  0.75000  0.74891  0.40832  1.0000
  C   C2752     1.0  0.74262  0.78662  0.39647  1.0000
  C   C2753     1.0  0.60077  0.00003  0.05983  1.0000
  H   H2206     1.0  0.71317  0.67684  0.02268  1.0000
  Fe  Fe190     1.0  0.75505  0.68647  0.30848  1.0000
  C   C2754     1.0  0.60972  0.99271  0.08427  1.0000
  Fe  Fe191     1.0  0.74901  0.90514  0.30666  1.0000
  C   C2755     1.0  0.73184  0.00361  0.32009  1.0000
  H   H2207     1.0  0.57969  0.68655  0.01363  1.0000
  C   C2756     1.0  0.70609  0.00291  0.11027  1.0000
  C   C2757     1.0  0.75346  0.86344  0.24331  1.0000
  H   H2208     1.0  0.60833  0.99414  0.04141  1.0000
  C   C2758     1.0  0.73231  0.99048  0.19514  1.0000
  C   C2759     1.0  0.69018  0.67551  0.15465  1.0000
  C   C2760     1.0  0.74133  0.99850  0.01453  1.0000
  H   H2209     1.0  0.67647  0.91720  0.96848  1.0000
  C   C2761     1.0  0.52141  0.67254  0.31374  1.0000
  H   H2210     1.0  0.72014  0.00533  0.33617  1.0000
  C   C2762     1.0  0.66757  0.99351  0.74725  1.0000
  S   S373      1.0  0.70836  0.72234  0.55387  1.0000
  S   S374      1.0  0.74782  0.74421  0.83999  1.0000
  S   S375      1.0  0.70757  0.71923  0.61945  1.0000
  C   C2763     1.0  0.67848  0.90733  0.75055  1.0000
  Fe  Fe192     1.0  0.69969  0.69820  0.58415  1.0000
  H   H2211     1.0  0.63523  0.68626  0.94570  1.0000
  Fe  Fe193     1.0  0.71962  0.74163  0.58907  1.0000
  C   C2764     1.0  0.66056  0.67983  0.52940  1.0000
  H   H2212     1.0  0.60387  0.99414  0.92029  1.0000
  H   H2213     1.0  0.68228  0.82892  0.74685  1.0000
  H   H2214     1.0  0.59985  0.68782  0.68367  1.0000
  S   S376      1.0  0.71697  0.91811  0.86997  1.0000
  C   C2765     1.0  0.72933  0.79022  0.66206  1.0000
  C   C2766     1.0  0.75680  0.99992  0.96246  1.0000
  Fe  Fe194     1.0  0.75353  0.71871  0.87123  1.0000
  Fe  Fe195     1.0  0.74203  0.70453  0.55646  1.0000
  S   S377      1.0  0.72210  0.91560  0.80473  1.0000
  H   H2215     1.0  0.72597  0.71732  0.67528  1.0000
  H   H2216     1.0  0.70084  0.85283  0.78277  1.0000
  H   H2217     1.0  0.72481  0.99143  0.95041  1.0000
  S   S378      1.0  0.68194  0.96513  0.83063  1.0000
  C   C2767     1.0  0.69170  0.89205  0.73567  1.0000
  H   H2218     1.0  0.69424  0.85824  0.61806  1.0000
  H   H2219     1.0  0.67727  0.87960  0.80850  1.0000
  S   S379      1.0  0.73533  0.92749  0.52757  1.0000
  H   H2220     1.0  0.71995  0.97295  0.59004  1.0000
  C   C2768     1.0  0.68124  0.97408  0.75019  1.0000
  C   C2769     1.0  0.68584  0.96527  0.77563  1.0000
  C   C2770     1.0  0.67674  0.97579  0.79833  1.0000
  H   H2221     1.0  0.68055  0.89117  0.93054  1.0000
  C   C2771     1.0  0.72229  0.82665  0.91874  1.0000
  H   H2222     1.0  0.68817  0.96574  0.73273  1.0000
  C   C2772     1.0  0.74217  0.93195  0.74051  1.0000
  H   H2223     1.0  0.67176  0.69219  0.52814  1.0000
  C   C2773     1.0  0.69827  0.83882  0.68136  1.0000
  C   C2774     1.0  0.68299  0.95987  0.63545  1.0000
  C   C2775     1.0  0.72695  0.92490  0.47354  1.0000
  H   H2224     1.0  0.73974  0.86942  0.77569  1.0000
  H   H2225     1.0  0.66327  0.91486  0.78841  1.0000
  C   C2776     1.0  0.71990  0.79126  0.88416  1.0000
  C   C2777     1.0  0.71668  0.87143  0.67766  1.0000
  S   S380      1.0  0.72925  0.71762  0.90449  1.0000
  H   H2226     1.0  0.69619  0.95023  0.77757  1.0000
  H   H2227     1.0  0.70283  0.94138  0.60646  1.0000
  C   C2778     1.0  0.69819  0.95734  0.61488  1.0000
  Fe  Fe196     1.0  0.75554  0.92637  0.81062  1.0000
  H   H2228     1.0  0.74131  0.77318  0.91178  1.0000
  P   P91       1.0  0.75040  0.80361  0.95500  1.0000
  C   C2779     1.0  0.74013  0.79317  0.52257  1.0000
  S   S381      1.0  0.74406  0.89417  0.59307  1.0000
  H   H2229     1.0  0.71896  0.77753  0.87080  1.0000
  H   H2230     1.0  0.75708  0.85294  0.69423  1.0000
  C   C2780     1.0  0.75574  0.98546  0.70348  1.0000
  C   C2781     1.0  0.75771  0.76638  0.68380  1.0000
  C   C2782     1.0  0.73260  0.93040  0.71506  1.0000
  C   C2783     1.0  0.73035  0.69787  0.48374  1.0000
  H   H2231     1.0  0.68360  0.67351  0.74083  1.0000
  H   H2232     1.0  0.71910  0.70027  0.50015  1.0000
  C   C2784     1.0  0.60637  0.69352  0.73894  1.0000
  C   C2785     1.0  0.73220  0.71927  0.71767  1.0000
  C   C2786     1.0  0.73751  0.71309  0.69129  1.0000
  H   H2233     1.0  0.67156  0.73614  0.66880  1.0000
  H   H2234     1.0  0.69907  0.81324  0.85966  1.0000
  C   C2787     1.0  0.75116  0.86860  0.75935  1.0000
  H   H2235     1.0  0.67024  0.73689  0.75443  1.0000
  C   C2788     1.0  0.75953  0.00233  0.72114  1.0000
  C   C2789     1.0  0.74103  0.77087  0.52707  1.0000
  C   C2790     1.0  0.66358  0.99546  0.79540  1.0000
  C   C2791     1.0  0.74360  0.80640  0.66098  1.0000
  C   C2792     1.0  0.70971  0.82897  0.89531  1.0000
  C   C2793     1.0  0.65289  0.69932  0.71081  1.0000
  H   H2236     1.0  0.64415  0.71399  0.91328  1.0000
  C   C2794     1.0  0.68711  0.99834  0.63764  1.0000
  C   C2795     1.0  0.71062  0.85436  0.69323  1.0000
  C   C2796     1.0  0.67169  0.73886  0.71166  1.0000
  C   C2797     1.0  0.61930  0.67395  0.73356  1.0000
  H   H2237     1.0  0.68025  0.87497  0.56751  1.0000
  H   H2238     1.0  0.66484  0.99432  0.96455  1.0000
  C   C2798     1.0  0.70853  0.81129  0.87803  1.0000
  C   C2799     1.0  0.71888  0.84403  0.51589  1.0000
  C   C2800     1.0  0.65076  0.68441  0.93542  1.0000
  C   C2801     1.0  0.75299  0.69536  0.48865  1.0000
  C   C2802     1.0  0.73958  0.81864  0.82664  1.0000
  C   C2803     1.0  0.73641  0.93917  0.94609  1.0000
  H   H2239     1.0  0.71025  0.82439  0.59434  1.0000
  C   C2804     1.0  0.74674  0.71354  0.73888  1.0000
  C   C2805     1.0  0.73308  0.79570  0.59376  1.0000
  H   H2240     1.0  0.65330  0.70237  0.75386  1.0000
  H   H2241     1.0  0.70906  0.89370  0.54574  1.0000
  H   H2242     1.0  0.73342  0.87444  0.51287  1.0000
  H   H2243     1.0  0.67925  0.75395  0.71201  1.0000
  C   C2806     1.0  0.76067  0.84137  0.85430  1.0000
  C   C2807     1.0  0.65904  0.00431  0.77002  1.0000
  C   C2808     1.0  0.65800  0.70915  0.68688  1.0000
  H   H2244     1.0  0.69936  0.81724  0.52218  1.0000
  C   C2809     1.0  0.74194  0.83873  0.83884  1.0000
  H   H2245     1.0  0.72514  0.75791  0.67482  1.0000
  C   C2810     1.0  0.74361  0.83270  0.59425  1.0000
  C   C2811     1.0  0.61008  0.67820  0.66970  1.0000
  C   C2812     1.0  0.65703  0.70968  0.73515  1.0000
  H   H2246     1.0  0.68316  0.82802  0.64514  1.0000
  H   H2247     1.0  0.71537  0.76592  0.76329  1.0000
  H   H2248     1.0  0.69327  0.82552  0.69279  1.0000
  H   H2249     1.0  0.72593  0.88382  0.68635  1.0000
  C   C2813     1.0  0.66742  0.72880  0.68735  1.0000
  H   H2250     1.0  0.67291  0.92297  0.74206  1.0000
  C   C2814     1.0  0.65573  0.69995  0.91709  1.0000
  C   C2815     1.0  0.74068  0.78636  0.47499  1.0000
  C   C2816     1.0  0.60368  0.96964  0.85577  1.0000
  C   C2817     1.0  0.73276  0.78894  0.90736  1.0000
  S   S382      1.0  0.74485  0.95310  0.83955  1.0000
  H   H2251     1.0  0.75027  0.77826  0.74882  1.0000
  C   C2818     1.0  0.63346  0.98228  0.88237  1.0000
  C   C2819     1.0  0.61796  0.96735  0.87777  1.0000
  P   P92       1.0  0.65091  0.97998  0.91173  1.0000
  C   C2820     1.0  0.74574  0.92702  0.69248  1.0000
  C   C2821     1.0  0.67578  0.69749  0.90393  1.0000
  C   C2822     1.0  0.69466  0.98272  0.89776  1.0000
  H   H2252     1.0  0.65713  0.00402  0.81285  1.0000
  S   S383      1.0  0.67023  0.67845  0.58373  1.0000
  C   C2823     1.0  0.70798  0.97525  0.60579  1.0000
  C   C2824     1.0  0.72105  0.86585  0.52225  1.0000
  H   H2253     1.0  0.61009  0.70853  0.73003  1.0000
  Fe  Fe197     1.0  0.75904  0.71832  0.81000  1.0000
  C   C2825     1.0  0.70717  0.87690  0.54086  1.0000
  C   C2826     1.0  0.66654  0.72928  0.73555  1.0000
  C   C2827     1.0  0.66251  0.93689  0.89656  1.0000
  H   H2254     1.0  0.73180  0.97114  0.67891  1.0000
  H   H2255     1.0  0.73214  0.76248  0.96333  1.0000
  H   H2256     1.0  0.67552  0.83666  0.55551  1.0000
  H   H2257     1.0  0.65488  0.70170  0.66778  1.0000
  H   H2258     1.0  0.71493  0.93203  0.71288  1.0000
  C   C2828     1.0  0.68822  0.84484  0.54624  1.0000
  H   H2259     1.0  0.59207  0.95785  0.85204  1.0000
  H   H2260     1.0  0.73829  0.82181  0.65179  1.0000
  H   H2261     1.0  0.74110  0.76481  0.54722  1.0000
  C   C2829     1.0  0.68079  0.88288  0.78792  1.0000
  H   H2262     1.0  0.61692  0.95395  0.89121  1.0000
  H   H2263     1.0  0.69557  0.96558  0.89298  1.0000
  C   C2830     1.0  0.75898  0.93526  0.94176  1.0000
  C   C2831     1.0  0.74243  0.92017  0.49419  1.0000
  H   H2264     1.0  0.59363  0.98872  0.82126  1.0000
  C   C2832     1.0  0.71073  0.87279  0.65072  1.0000
  C   C2833     1.0  0.67299  0.90274  0.77666  1.0000
  S   S384      1.0  0.73821  0.72033  0.77178  1.0000
  C   C2834     1.0  0.73628  0.77035  0.67383  1.0000
  H   H2265     1.0  0.67168  0.90376  0.88456  1.0000
  H   H2266     1.0  0.65966  0.94225  0.87618  1.0000
  H   H2267     1.0  0.72262  0.84040  0.93218  1.0000
  C   C2835     1.0  0.63591  0.99237  0.93971  1.0000
  H   H2268     1.0  0.70631  0.67817  0.89868  1.0000
  C   C2836     1.0  0.74533  0.86082  0.73410  1.0000
  C   C2837     1.0  0.74137  0.76405  0.47959  1.0000
  H   H2269     1.0  0.70181  0.99911  0.69021  1.0000
  C   C2838     1.0  0.73634  0.81084  0.74005  1.0000
  H   H2270     1.0  0.74465  0.98187  0.63324  1.0000
  Fe  Fe198     1.0  0.73060  0.89381  0.83939  1.0000
  S   S385      1.0  0.73303  0.92531  0.66084  1.0000
  S   S386      1.0  0.71197  0.77816  0.59332  1.0000
  C   C2839     1.0  0.74147  0.75634  0.50562  1.0000
  C   C2840     1.0  0.71726  0.82545  0.73991  1.0000
  C   C2841     1.0  0.75529  0.78783  0.59326  1.0000
  C   C2842     1.0  0.65972  0.95170  0.91796  1.0000
  C   C2843     1.0  0.75732  0.70077  0.68582  1.0000
  S   S387      1.0  0.66129  0.00371  0.71494  1.0000
  C   C2844     1.0  0.67505  0.99396  0.90681  1.0000
  H   H2271     1.0  0.66542  0.98234  0.66252  1.0000
  P   P93       1.0  0.71807  0.85289  0.72824  1.0000
  C   C2845     1.0  0.70196  0.83379  0.52747  1.0000
  C   C2846     1.0  0.73531  0.99520  0.96699  1.0000
  C   C2847     1.0  0.73442  0.80677  0.92456  1.0000
  H   H2272     1.0  0.73887  0.84990  0.59467  1.0000
  H   H2273     1.0  0.67587  0.94588  0.64300  1.0000
  C   C2848     1.0  0.71807  0.00040  0.69824  1.0000
  H   H2274     1.0  0.70405  0.68659  0.68949  1.0000
  S   S388      1.0  0.75402  0.72556  0.58924  1.0000
  S   S389      1.0  0.72075  0.85990  0.83541  1.0000
  H   H2275     1.0  0.57844  0.70899  0.75990  1.0000
  C   C2849     1.0  0.73555  0.78946  0.74841  1.0000
  H   H2276     1.0  0.67997  0.70977  0.89020  1.0000
  H   H2277     1.0  0.75386  0.78585  0.82037  1.0000
  H   H2278     1.0  0.71663  0.72835  0.72176  1.0000
  H   H2279     1.0  0.71907  0.98507  0.81048  1.0000
  H   H2280     1.0  0.72518  0.94136  0.92929  1.0000
  C   C2850     1.0  0.72736  0.81819  0.59417  1.0000
  Fe  Fe199     1.0  0.75103  0.92826  0.87172  1.0000
  C   C2851     1.0  0.69867  0.85718  0.63901  1.0000
  C   C2852     1.0  0.71576  0.78244  0.75649  1.0000
  C   C2853     1.0  0.69662  0.79673  0.75590  1.0000
  H   H2281     1.0  0.71081  0.93250  0.47833  1.0000
  Fe  Fe200     1.0  0.75640  0.91737  0.56409  1.0000
  C   C2854     1.0  0.73499  0.98451  0.69204  1.0000
  C   C2855     1.0  0.69956  0.87197  0.74678  1.0000
  C   C2856     1.0  0.69090  0.86636  0.55303  1.0000
  C   C2857     1.0  0.69414  0.86764  0.77316  1.0000
  C   C2858     1.0  0.60448  0.98706  0.83850  1.0000
  H   H2282     1.0  0.66320  0.95537  0.96081  1.0000
  H   H2283     1.0  0.71544  0.88610  0.63900  1.0000
  H   H2284     1.0  0.72834  0.98474  0.88750  1.0000
  C   C2859     1.0  0.69730  0.81810  0.74742  1.0000
  H   H2285     1.0  0.75185  0.81589  0.73384  1.0000
  C   C2860     1.0  0.75562  0.80109  0.83035  1.0000
  Fe  Fe201     1.0  0.71176  0.94090  0.83532  1.0000
  H   H2286     1.0  0.58616  0.68285  0.63782  1.0000
  H   H2287     1.0  0.73981  0.80421  0.53946  1.0000
  Fe  Fe202     1.0  0.74158  0.70211  0.61775  1.0000
  H   H2288     1.0  0.69610  0.89629  0.71578  1.0000
  C   C2861     1.0  0.66952  0.91507  0.90119  1.0000
  Fe  Fe203     1.0  0.75459  0.91619  0.62561  1.0000
  H   H2289     1.0  0.73183  0.93499  0.75756  1.0000
  H   H2290     1.0  0.70114  0.84456  0.89024  1.0000
  H   H2291     1.0  0.71300  0.79295  0.65343  1.0000
  C   C2862     1.0  0.73918  0.80116  0.49648  1.0000
  C   C2863     1.0  0.67723  0.98040  0.64655  1.0000
  P   P94       1.0  0.73629  0.83013  0.49105  1.0000
  H   H2292     1.0  0.72526  0.81658  0.81438  1.0000
  C   C2864     1.0  0.73973  0.71382  0.93721  1.0000
  C   C2865     1.0  0.69240  0.84021  0.65432  1.0000
  H   H2293     1.0  0.68128  0.79128  0.76221  1.0000
  C   C2866     1.0  0.71331  0.99365  0.89442  1.0000
  H   H2294     1.0  0.68550  0.68120  0.64590  1.0000
  C   C2867     1.0  0.72516  0.71516  0.95856  1.0000
  C   C2868     1.0  0.67456  0.90798  0.92708  1.0000
  C   C2869     1.0  0.64719  0.99767  0.96306  1.0000
  C   C2870     1.0  0.63387  0.99991  0.86519  1.0000
  C   C2871     1.0  0.58827  0.69384  0.75567  1.0000
  H   H2295     1.0  0.65202  0.68086  0.48746  1.0000
  H   H2296     1.0  0.74197  0.73910  0.50920  1.0000
  C   C2872     1.0  0.66475  0.94440  0.94394  1.0000
  H   H2297     1.0  0.70775  0.71872  0.95476  1.0000
  C   C2873     1.0  0.69079  0.67943  0.90889  1.0000
  C   C2874     1.0  0.75482  0.99459  0.62874  1.0000
  H   H2298     1.0  0.75437  0.97180  0.54177  1.0000
  S   S390      1.0  0.73297  0.67930  0.58486  1.0000
  C   C2875     1.0  0.70299  0.99576  0.61764  1.0000
  H   H2299     1.0  0.73979  0.99621  0.77271  1.0000
  C   C2876     1.0  0.61941  0.00228  0.84339  1.0000
  C   C2877     1.0  0.67223  0.92265  0.94843  1.0000
  C   C2878     1.0  0.61305  0.99758  0.93810  1.0000
  C   C2879     1.0  0.72132  0.00202  0.80827  1.0000
  C   C2880     1.0  0.58275  0.67461  0.76687  1.0000
  H   H2300     1.0  0.56873  0.67478  0.77984  1.0000
  C   C2881     1.0  0.60229  0.67554  0.64365  1.0000
  P   P95       1.0  0.64168  0.67338  0.71040  1.0000
  H   H2301     1.0  0.76000  0.77060  0.59299  1.0000
  C   C2882     1.0  0.64935  0.67338  0.50636  1.0000
  Fe  Fe204     1.0  0.88540  0.07612  0.42657  1.0000
  S   S391      1.0  0.89655  0.10948  0.42548  1.0000
  S   S392      1.0  0.87713  0.05452  0.39161  1.0000
  Fe  Fe205     1.0  0.88311  0.06118  0.98619  1.0000
  S   S393      1.0  0.89323  0.09472  0.99119  1.0000
  S   S394      1.0  0.88102  0.03854  0.02103  1.0000
  H   H2302     1.0  0.77284  0.25688  0.43948  1.0000
  H   H2303     1.0  0.79387  0.31672  0.34533  1.0000
  H   H2304     1.0  0.81032  0.03704  0.02362  1.0000
  H   H2305     1.0  0.77615  0.13493  0.05862  1.0000
  C   C2883     1.0  0.00022  0.01932  0.38659  1.0000
  H   H2306     1.0  0.00614  0.01725  0.42901  1.0000
  C   C2884     1.0  0.80763  0.11705  0.05225  1.0000
  S   S395      1.0  0.86775  0.05146  0.20252  1.0000
  Fe  Fe206     1.0  0.93102  0.03659  0.20705  1.0000
  S   S396      1.0  0.91538  0.07076  0.20642  1.0000
  S   S397      1.0  0.96810  0.02828  0.20905  1.0000
  Fe  Fe207     1.0  0.89127  0.05942  0.23522  1.0000
  S   S398      1.0  0.88227  0.08220  0.27008  1.0000
  Fe  Fe208     1.0  0.89371  0.05917  0.17396  1.0000
  S   S399      1.0  0.88733  0.07957  0.13712  1.0000
  S   S400      1.0  0.90805  0.02560  0.23771  1.0000
  S   S401      1.0  0.91090  0.02562  0.17243  1.0000
  H   H2307     1.0  0.84259  0.01529  0.00093  1.0000
  H   H2308     1.0  0.92278  0.02774  0.35938  1.0000
  C   C2885     1.0  0.77710  0.32375  0.34731  1.0000
  H   H2309     1.0  0.83592  0.04752  0.27249  1.0000
  C   C2886     1.0  0.95365  0.02892  0.05732  1.0000
  C   C2887     1.0  0.98611  0.04891  0.21246  1.0000
  C   C2888     1.0  0.97819  0.07080  0.21438  1.0000
  C   C2889     1.0  0.99281  0.08690  0.21537  1.0000
  S   S402      1.0  0.82517  0.17662  0.08469  1.0000
  Fe  Fe209     1.0  0.87634  0.11624  0.46236  1.0000
  H   H2310     1.0  0.96076  0.07544  0.21439  1.0000
  H   H2311     1.0  0.98636  0.10379  0.21595  1.0000
  C   C2890     1.0  0.79220  0.12875  0.16011  1.0000
  C   C2891     1.0  0.76610  0.13727  0.19566  1.0000
  P   P96       1.0  0.96041  0.01533  0.08851  1.0000
  C   C2892     1.0  0.79021  0.12582  0.06788  1.0000
  C   C2893     1.0  0.85046  0.24721  0.37775  1.0000
  C   C2894     1.0  0.79401  0.02102  0.24655  1.0000
  H   H2312     1.0  0.78852  0.25152  0.39358  1.0000
  C   C2895     1.0  0.76321  0.22059  0.19703  1.0000
  S   S403      1.0  0.83909  0.13251  0.97009  1.0000
  H   H2313     1.0  0.78872  0.04836  0.07307  1.0000
  C   C2896     1.0  0.88235  0.04992  0.05343  1.0000
  C   C2897     1.0  0.88261  0.07227  0.05724  1.0000
  C   C2898     1.0  0.88430  0.08102  0.08298  1.0000
  C   C2899     1.0  0.88543  0.06757  0.10529  1.0000
  C   C2900     1.0  0.88473  0.04521  0.10170  1.0000
  C   C2901     1.0  0.88317  0.03644  0.07580  1.0000
  H   H2314     1.0  0.88124  0.08294  0.04045  1.0000
  H   H2315     1.0  0.88449  0.09837  0.08563  1.0000
  H   H2316     1.0  0.88531  0.03470  0.11880  1.0000
  H   H2317     1.0  0.88252  0.01920  0.07312  1.0000
  C   C2902     1.0  0.87965  0.06234  0.35800  1.0000
  C   C2903     1.0  0.88265  0.08365  0.35119  1.0000
  C   C2904     1.0  0.88367  0.08943  0.32419  1.0000
  C   C2905     1.0  0.88224  0.07388  0.30377  1.0000
  C   C2906     1.0  0.87976  0.05244  0.31060  1.0000
  C   C2907     1.0  0.87818  0.04679  0.33758  1.0000
  H   H2318     1.0  0.88378  0.09576  0.36670  1.0000
  H   H2319     1.0  0.88548  0.10605  0.31907  1.0000
  H   H2320     1.0  0.87853  0.04035  0.29508  1.0000
  H   H2321     1.0  0.87586  0.03027  0.34267  1.0000
  C   C2908     1.0  0.84779  0.15010  0.04788  1.0000
  C   C2909     1.0  0.85104  0.14011  0.02268  1.0000
  C   C2910     1.0  0.83614  0.14532  0.00177  1.0000
  C   C2911     1.0  0.81809  0.16071  0.00625  1.0000
  H   H2322     1.0  0.77518  0.22104  0.18148  1.0000
  H   H2323     1.0  0.85925  0.14584  0.06402  1.0000
  H   H2324     1.0  0.86498  0.12833  0.01955  1.0000
  H   H2325     1.0  0.80651  0.16500  0.99024  1.0000
  S   S404      1.0  0.78845  0.22730  0.05774  1.0000
  C   C2912     1.0  0.80043  0.26326  0.00173  1.0000
  H   H2326     1.0  0.79463  0.32629  0.19543  1.0000
  C   C2913     1.0  0.00973  0.02030  0.36149  1.0000
  S   S405      1.0  0.86280  0.08377  0.46132  1.0000
  H   H2327     1.0  0.79931  0.15628  0.13654  1.0000
  C   C2914     1.0  0.81589  0.18118  0.42287  1.0000
  C   C2915     1.0  0.83300  0.17679  0.40494  1.0000
  C   C2916     1.0  0.83552  0.15689  0.39144  1.0000
  C   C2917     1.0  0.82088  0.14142  0.39576  1.0000
  C   C2918     1.0  0.80356  0.14569  0.41382  1.0000
  C   C2919     1.0  0.80130  0.16569  0.42743  1.0000
  P   P97       1.0  0.78481  0.12553  0.42016  1.0000
  C   C2920     1.0  0.79588  0.10034  0.40481  1.0000
  H   H2328     1.0  0.99883  0.03783  0.01016  1.0000
  C   C2921     1.0  0.82288  0.30659  0.42813  1.0000
  C   C2922     1.0  0.81728  0.06381  0.37917  1.0000
  C   C2923     1.0  0.82075  0.06725  0.40638  1.0000
  C   C2924     1.0  0.81019  0.08547  0.41918  1.0000
  H   H2329     1.0  0.81389  0.19663  0.43323  1.0000
  H   H2330     1.0  0.84438  0.18874  0.40175  1.0000
  H   H2331     1.0  0.84897  0.15332  0.37781  1.0000
  H   H2332     1.0  0.82346  0.12612  0.38518  1.0000
  H   H2333     1.0  0.98257  0.01969  0.38828  1.0000
  C   C2925     1.0  0.95391  0.02907  0.00885  1.0000
  H   H2334     1.0  0.78821  0.16942  0.44149  1.0000
  H   H2335     1.0  0.78041  0.32169  0.41293  1.0000
  H   H2336     1.0  0.83232  0.05619  0.41733  1.0000
  H   H2337     1.0  0.81386  0.08823  0.44000  1.0000
  H   H2338     1.0  0.79317  0.33009  0.09213  1.0000
  C   C2926     1.0  0.81761  0.24665  0.00056  1.0000
  C   C2927     1.0  0.80786  0.06921  0.00809  1.0000
  C   C2928     1.0  0.79997  0.29869  0.16985  1.0000
  C   C2929     1.0  0.80611  0.04694  0.00632  1.0000
  H   H2339     1.0  0.83679  0.29725  0.24891  1.0000
  S   S406      1.0  0.95745  0.10586  0.45076  1.0000
  H   H2340     1.0  0.00347  0.06040  0.14715  1.0000
  C   C2930     1.0  0.79975  0.03763  0.98217  1.0000
  C   C2931     1.0  0.83835  0.27310  0.30949  1.0000
  C   C2932     1.0  0.81542  0.05850  0.23919  1.0000
  C   C2933     1.0  0.76319  0.15887  0.18749  1.0000
  C   C2934     1.0  0.97928  0.08638  0.45883  1.0000
  C   C2935     1.0  0.86061  0.02195  0.45196  1.0000
  H   H2341     1.0  0.80467  0.09964  0.98727  1.0000
  C   C2936     1.0  0.79204  0.01711  0.09176  1.0000
  C   C2937     1.0  0.00468  0.08011  0.38864  1.0000
  C   C2938     1.0  0.80278  0.26364  0.19089  1.0000
  H   H2342     1.0  0.99885  0.12357  0.25501  1.0000
  C   C2939     1.0  0.97200  0.11314  0.05037  1.0000
  H   H2343     1.0  0.77328  0.00604  0.02712  1.0000
  C   C2940     1.0  0.79226  0.09664  0.37750  1.0000
  C   C2941     1.0  0.77042  0.30886  0.41755  1.0000
  H   H2344     1.0  0.86869  0.03529  0.44418  1.0000
  H   H2345     1.0  0.99929  0.03153  0.11411  1.0000
  H   H2346     1.0  0.95965  0.05978  0.46270  1.0000
  C   C2942     1.0  0.95889  0.11410  0.07324  1.0000
  C   C2943     1.0  0.93600  0.11723  0.07089  1.0000
  C   C2944     1.0  0.92601  0.11996  0.04581  1.0000
  C   C2945     1.0  0.93888  0.11911  0.02300  1.0000
  C   C2946     1.0  0.96170  0.11551  0.02521  1.0000
  P   P98       1.0  0.80910  0.28217  0.42931  1.0000
  C   C2947     1.0  0.94288  0.04991  0.00896  1.0000
  H   H2347     1.0  0.80375  0.22442  0.36128  1.0000
  H   H2348     1.0  0.84317  0.23042  0.97655  1.0000
  H   H2349     1.0  0.81828  0.31338  0.97624  1.0000
  C   C2948     1.0  0.76969  0.30656  0.09430  1.0000
  H   H2350     1.0  0.81024  0.27042  0.33419  1.0000
  S   S407      1.0  0.91347  0.06268  0.45261  1.0000
  H   H2351     1.0  0.81704  0.01464  0.27939  1.0000
  C   C2949     1.0  0.78073  0.12226  0.18219  1.0000
  H   H2352     1.0  0.98219  0.07307  0.02682  1.0000
  H   H2353     1.0  0.00066  0.01905  0.05901  1.0000
  C   C2950     1.0  0.78723  0.03553  0.22605  1.0000
  H   H2354     1.0  0.83487  0.24070  0.44390  1.0000
  H   H2355     1.0  0.99603  0.06581  0.38722  1.0000
  H   H2356     1.0  0.82622  0.05012  0.36917  1.0000
  H   H2357     1.0  0.96598  0.11276  0.09298  1.0000
  H   H2358     1.0  0.92596  0.11776  0.08857  1.0000
  H   H2359     1.0  0.90828  0.12259  0.04403  1.0000
  H   H2360     1.0  0.93120  0.12115  0.00347  1.0000
  H   H2361     1.0  0.97128  0.11471  0.00717  1.0000
  C   C2951     1.0  0.79130  0.12361  0.09557  1.0000
  C   C2952     1.0  0.77601  0.32767  0.09385  1.0000
  C   C2953     1.0  0.83250  0.31504  0.45105  1.0000
  C   C2954     1.0  0.81445  0.23519  0.37089  1.0000
  H   H2362     1.0  0.84338  0.22137  0.35073  1.0000
  C   C2955     1.0  0.79500  0.29645  0.21781  1.0000
  C   C2956     1.0  0.79791  0.05422  0.22246  1.0000
  H   H2363     1.0  0.00493  0.03995  0.30137  1.0000
  H   H2364     1.0  0.82394  0.07279  0.23619  1.0000
  S   S408      1.0  0.78982  0.28413  0.09268  1.0000
  H   H2365     1.0  0.78188  0.10828  0.36584  1.0000
  H   H2366     1.0  0.77324  0.08641  0.14390  1.0000
  H   H2367     1.0  0.77365  0.02849  0.29455  1.0000
  H   H2368     1.0  0.80051  0.18198  0.03479  1.0000
  C   C2957     1.0  0.77078  0.21682  0.46533  1.0000
  C   C2958     1.0  0.99888  0.09866  0.28457  1.0000
  H   H2369     1.0  0.84989  0.26483  0.32339  1.0000
  C   C2959     1.0  0.81471  0.17048  0.03151  1.0000
  P   P99       1.0  0.78962  0.30900  0.25030  1.0000
  C   C2960     1.0  0.97596  0.06480  0.46374  1.0000
  H   H2370     1.0  0.76373  0.27139  0.24883  1.0000
  C   C2961     1.0  0.94784  0.06479  0.14247  1.0000
  C   C2962     1.0  0.94531  0.04750  0.12497  1.0000
  C   C2963     1.0  0.96375  0.03545  0.11417  1.0000
  C   C2964     1.0  0.96878  0.06972  0.14999  1.0000
  C   C2965     1.0  0.77977  0.28849  0.42630  1.0000
  S   S409      1.0  0.76819  0.21474  0.41092  1.0000
  Fe  Fe210     1.0  0.88618  0.01823  0.20272  1.0000
  H   H2371     1.0  0.77390  0.03236  0.21269  1.0000
  H   H2372     1.0  0.93192  0.04336  0.31616  1.0000
  H   H2373     1.0  0.81524  0.33486  0.28673  1.0000
  C   C2966     1.0  0.93678  0.06005  0.03299  1.0000
  C   C2967     1.0  0.94209  0.04969  0.05707  1.0000
  Fe  Fe211     1.0  0.92305  0.09652  0.45409  1.0000
  C   C2968     1.0  0.82217  0.04423  0.25971  1.0000
  H   H2374     1.0  0.77311  0.18235  0.15999  1.0000
  C   C2969     1.0  0.83011  0.24355  0.97752  1.0000
  H   H2375     1.0  0.78327  0.10578  0.18929  1.0000
  H   H2376     1.0  0.93878  0.05822  0.99048  1.0000
  C   C2970     1.0  0.83433  0.33643  0.40244  1.0000
  C   C2971     1.0  0.80843  0.29441  0.27335  1.0000
  C   C2972     1.0  0.79886  0.27372  0.21570  1.0000
  C   C2973     1.0  0.80293  0.07842  0.36476  1.0000
  H   H2377     1.0  0.80956  0.01422  0.08846  1.0000
  C   C2974     1.0  0.80580  0.25065  0.38940  1.0000
  C   C2975     1.0  0.98476  0.04043  0.12205  1.0000
  H   H2378     1.0  0.93353  0.07439  0.15021  1.0000
  H   H2379     1.0  0.92892  0.04397  0.11930  1.0000
  C   C2976     1.0  0.81607  0.27622  0.31557  1.0000
  H   H2380     1.0  0.80555  0.24611  0.18942  1.0000
  C   C2977     1.0  0.84304  0.33401  0.44957  1.0000
  P   P100      1.0  0.00175  0.11003  0.05239  1.0000
  H   H2381     1.0  0.92750  0.07583  0.03295  1.0000
  H   H2382     1.0  0.93667  0.05794  0.07521  1.0000
  H   H2383     1.0  0.95829  0.02112  0.99006  1.0000
  C   C2978     1.0  0.79571  0.27674  0.97981  1.0000
  C   C2979     1.0  0.81147  0.02562  0.26348  1.0000
  H   H2384     1.0  0.78791  0.32332  0.00884  1.0000
  H   H2385     1.0  0.00198  0.13297  0.36973  1.0000
  C   C2980     1.0  0.80308  0.27612  0.16793  1.0000
  C   C2981     1.0  0.78024  0.03623  0.08297  1.0000
  C   C2982     1.0  0.76947  0.22307  0.22389  1.0000
  H   H2386     1.0  0.77738  0.21322  0.00625  1.0000
  H   H2387     1.0  0.79895  0.26367  0.23324  1.0000
  C   C2983     1.0  0.99208  0.09336  0.30993  1.0000
  C   C2984     1.0  0.83085  0.29133  0.26742  1.0000
  H   H2388     1.0  0.81393  0.07601  0.02632  1.0000
  C   C2985     1.0  0.82951  0.16517  0.05248  1.0000
  H   H2389     1.0  0.86780  0.24577  0.37335  1.0000
  C   C2986     1.0  0.83676  0.23344  0.36505  1.0000
  C   C2987     1.0  0.98724  0.05713  0.14042  1.0000
  C   C2988     1.0  0.99306  0.11935  0.27441  1.0000
  H   H2390     1.0  0.85279  0.27271  0.40667  1.0000
  H   H2391     1.0  0.82115  0.23601  0.01740  1.0000
  H   H2392     1.0  0.99007  0.15607  0.04341  1.0000
  H   H2393     1.0  0.80598  0.26834  0.14864  1.0000
  H   H2394     1.0  0.83629  0.09899  0.19292  1.0000
  S   S410      1.0  0.76320  0.22537  0.27783  1.0000
  S   S411      1.0  0.79041  0.22527  0.12331  1.0000
  H   H2395     1.0  0.86301  0.27823  0.28068  1.0000
  H   H2396     1.0  0.78401  0.28904  0.30286  1.0000
  Fe  Fe212     1.0  0.79592  0.20177  0.08871  1.0000
  H   H2397     1.0  0.78208  0.28926  0.98081  1.0000
  P   P101      1.0  0.81216  0.11014  0.14347  1.0000
  C   C2989     1.0  0.83822  0.11695  0.15638  1.0000
  C   C2990     1.0  0.80853  0.08197  0.14882  1.0000
  C   C2991     1.0  0.82680  0.06655  0.15180  1.0000
  C   C2992     1.0  0.82399  0.04460  0.15481  1.0000
  C   C2993     1.0  0.80297  0.03778  0.15422  1.0000
  C   C2994     1.0  0.78475  0.05292  0.15026  1.0000
  C   C2995     1.0  0.78748  0.07492  0.14744  1.0000
  C   C2996     1.0  0.85036  0.13112  0.14247  1.0000
  C   C2997     1.0  0.87019  0.13692  0.15311  1.0000
  C   C2998     1.0  0.87786  0.12884  0.17779  1.0000
  C   C2999     1.0  0.86556  0.11520  0.19207  1.0000
  C   C3000     1.0  0.84570  0.10942  0.18152  1.0000
  C   C3001     1.0  0.81017  0.11310  0.10781  1.0000
  C   C3002     1.0  0.84574  0.28064  0.28541  1.0000
  C   C3003     1.0  0.95919  0.01852  0.03294  1.0000
  H   H2398     1.0  0.97062  0.08321  0.16344  1.0000
  C   C3004     1.0  0.82613  0.10595  0.06424  1.0000
  C   C3005     1.0  0.82738  0.10393  0.09193  1.0000
  H   H2399     1.0  0.84329  0.07137  0.15144  1.0000
  H   H2400     1.0  0.83819  0.03284  0.15741  1.0000
  C   C3006     1.0  0.80115  0.28683  0.29761  1.0000
  C   C3007     1.0  0.80249  0.08248  0.98615  1.0000
  H   H2401     1.0  0.81643  0.31131  0.38596  1.0000
  H   H2402     1.0  0.84454  0.13782  0.12350  1.0000
  H   H2403     1.0  0.87961  0.14761  0.14210  1.0000
  H   H2404     1.0  0.89336  0.13310  0.18585  1.0000
  H   H2405     1.0  0.87148  0.10899  0.21126  1.0000
  H   H2406     1.0  0.77756  0.13047  0.10725  1.0000
  C   C3008     1.0  0.84186  0.26257  0.39647  1.0000
  C   C3009     1.0  0.77512  0.16555  0.16610  1.0000
  H   H2407     1.0  0.83984  0.09953  0.05215  1.0000
  H   H2408     1.0  0.84191  0.09554  0.10105  1.0000
  C   C3010     1.0  0.93812  0.04988  0.33460  1.0000
  C   C3011     1.0  0.93291  0.04109  0.35895  1.0000
  C   C3012     1.0  0.93968  0.05032  0.38280  1.0000
  C   C3013     1.0  0.95179  0.06826  0.38236  1.0000
  C   C3014     1.0  0.95757  0.07687  0.35797  1.0000
  C   C3015     1.0  0.95025  0.06780  0.33406  1.0000
  P   P102      1.0  0.97071  0.10167  0.35798  1.0000
  C   C3016     1.0  0.95014  0.12201  0.37040  1.0000
  C   C3017     1.0  0.99599  0.09976  0.37720  1.0000
  H   H2409     1.0  0.79282  0.06527  0.20651  1.0000
  H   H2410     1.0  0.81612  0.12959  0.46389  1.0000
  H   H2411     1.0  0.78632  0.22529  0.22886  1.0000
  C   C3018     1.0  0.78321  0.12152  0.45570  1.0000
  H   H2412     1.0  0.76160  0.08956  0.03842  1.0000
  C   C3019     1.0  0.92955  0.12480  0.35756  1.0000
  C   C3020     1.0  0.91290  0.13963  0.36763  1.0000
  C   C3021     1.0  0.91665  0.15163  0.39070  1.0000
  C   C3022     1.0  0.93706  0.14884  0.40364  1.0000
  C   C3023     1.0  0.95378  0.13411  0.39353  1.0000
  C   C3024     1.0  0.97864  0.10850  0.32489  1.0000
  C   C3025     1.0  0.97275  0.12927  0.31451  1.0000
  C   C3026     1.0  0.97997  0.13464  0.28935  1.0000
  C   C3027     1.0  0.76599  0.27252  0.43228  1.0000
  C   C3028     1.0  0.79346  0.33762  0.25207  1.0000
  C   C3029     1.0  0.99644  0.01728  0.27143  1.0000
  C   C3030     1.0  0.00812  0.11781  0.37898  1.0000
  H   H2413     1.0  0.76381  0.29284  0.34668  1.0000
  H   H2414     1.0  0.93479  0.04406  0.40163  1.0000
  H   H2415     1.0  0.95610  0.07582  0.40106  1.0000
  H   H2416     1.0  0.95306  0.07495  0.31501  1.0000
  C   C3031     1.0  0.78979  0.15066  0.15269  1.0000
  C   C3032     1.0  0.00053  0.09270  0.46006  1.0000
  H   H2417     1.0  0.98195  0.02744  0.26485  1.0000
  C   C3033     1.0  0.81945  0.26429  0.40261  1.0000
  H   H2418     1.0  0.79064  0.26551  0.01955  1.0000
  H   H2419     1.0  0.92621  0.11518  0.34006  1.0000
  H   H2420     1.0  0.89693  0.14133  0.35793  1.0000
  H   H2421     1.0  0.90354  0.16259  0.39902  1.0000
  H   H2422     1.0  0.93974  0.15748  0.42209  1.0000
  H   H2423     1.0  0.96913  0.13160  0.40450  1.0000
  H   H2424     1.0  0.96287  0.14146  0.32587  1.0000
  H   H2425     1.0  0.97552  0.15069  0.28143  1.0000
  S   S412      1.0  0.76190  0.19134  0.08954  1.0000
  Fe  Fe213     1.0  0.77949  0.24995  0.09198  1.0000
  H   H2426     1.0  0.80711  0.11945  0.03091  1.0000
  H   H2427     1.0  0.80061  0.30826  0.15195  1.0000
  C   C3034     1.0  0.79622  0.30885  0.19467  1.0000
  C   C3035     1.0  0.82391  0.31743  0.40383  1.0000
  H   H2428     1.0  0.78834  0.21549  0.46279  1.0000
  H   H2429     1.0  0.00191  0.18171  0.01050  1.0000
  C   C3036     1.0  0.00698  0.10295  0.10715  1.0000
  C   C3037     1.0  0.99944  0.06852  0.03060  1.0000
  H   H2430     1.0  0.80061  0.07595  0.34354  1.0000
  C   C3038     1.0  0.81441  0.26816  0.46054  1.0000
  H   H2431     1.0  0.76856  0.04757  0.14902  1.0000
  C   C3039     1.0  0.76663  0.21419  0.98906  1.0000
  H   H2432     1.0  0.80091  0.02071  0.15645  1.0000
  H   H2433     1.0  0.00323  0.10935  0.45616  1.0000
  C   C3040     1.0  0.00891  0.04326  0.21298  1.0000
  H   H2434     1.0  0.82103  0.32981  0.03483  1.0000
  H   H2435     1.0  0.99911  0.02128  0.34410  1.0000
  C   C3041     1.0  0.00219  0.15037  0.02874  1.0000
  H   H2436     1.0  0.99721  0.08950  0.10407  1.0000
  H   H2437     1.0  0.99734  0.07752  0.31795  1.0000
  C   C3042     1.0  0.76205  0.30537  0.26052  1.0000
  C   C3043     1.0  0.76212  0.01651  0.29640  1.0000
  S   S413      1.0  0.85515  0.14813  0.46659  1.0000
  C   C3044     1.0  0.82772  0.24831  0.46165  1.0000
  C   C3045     1.0  0.00879  0.04844  0.02113  1.0000
  C   C3046     1.0  0.00945  0.02428  0.29220  1.0000
  P   P103      1.0  0.79892  0.00870  0.97896  1.0000
  C   C3047     1.0  0.00885  0.16492  0.01012  1.0000
  H   H2438     1.0  0.00883  0.08681  0.27277  1.0000
  C   C3048     1.0  0.78863  0.33879  0.01883  1.0000
  C   C3049     1.0  0.76423  0.11478  0.46708  1.0000
  H   H2439     1.0  0.01058  0.09782  0.14969  1.0000
  Fe  Fe214     1.0  0.87659  0.06631  0.92542  1.0000
  S   S414      1.0  0.88583  0.10043  0.92659  1.0000
  S   S415      1.0  0.86765  0.04766  0.88815  1.0000
  Fe  Fe215     1.0  0.89206  0.07323  0.48722  1.0000
  S   S416      1.0  0.90387  0.10610  0.49075  1.0000
  S   S417      1.0  0.89204  0.05045  0.52191  1.0000
  S   S418      1.0  0.77392  0.21514  0.77756  1.0000
  C   C3050     1.0  0.81235  0.15945  0.87877  1.0000
  C   C3051     1.0  0.77062  0.04681  0.85553  1.0000
  H   H2440     1.0  0.82588  0.04548  0.86345  1.0000
  C   C3052     1.0  0.84094  0.15467  0.72923  1.0000
  S   S419      1.0  0.90494  0.05270  0.95116  1.0000
  Fe  Fe216     1.0  0.87930  0.02455  0.70115  1.0000
  S   S420      1.0  0.86335  0.05883  0.70125  1.0000
  Fe  Fe217     1.0  0.92543  0.03989  0.70886  1.0000
  S   S421      1.0  0.91208  0.07484  0.70907  1.0000
  S   S422      1.0  0.96213  0.03010  0.71361  1.0000
  Fe  Fe218     1.0  0.88601  0.06431  0.73566  1.0000
  S   S423      1.0  0.87578  0.08525  0.77164  1.0000
  Fe  Fe219     1.0  0.89108  0.06542  0.67474  1.0000
  S   S424      1.0  0.88587  0.08806  0.63973  1.0000
  S   S425      1.0  0.90042  0.02972  0.73752  1.0000
  S   S426      1.0  0.90593  0.03084  0.67259  1.0000
  H   H2441     1.0  0.94726  0.06894  0.90125  1.0000
  H   H2442     1.0  0.84830  0.01857  0.57766  1.0000
  C   C3053     1.0  0.79273  0.26670  0.69171  1.0000
  H   H2443     1.0  0.84687  0.05454  0.59934  1.0000
  C   C3054     1.0  0.83174  0.23775  0.48595  1.0000
  C   C3055     1.0  0.98119  0.04984  0.71612  1.0000
  C   C3056     1.0  0.97421  0.07197  0.71801  1.0000
  C   C3057     1.0  0.98960  0.08733  0.71965  1.0000
  P   P104      1.0  0.80195  0.29129  0.92844  1.0000
  H   H2444     1.0  0.99119  0.03295  0.47369  1.0000
  H   H2445     1.0  0.95696  0.07734  0.71841  1.0000
  H   H2446     1.0  0.98396  0.10440  0.72119  1.0000
  C   C3058     1.0  0.94828  0.09218  0.63732  1.0000
  H   H2447     1.0  0.77606  0.17042  0.48692  1.0000
  H   H2448     1.0  0.77600  0.04051  0.79926  1.0000
  H   H2449     1.0  0.77015  0.25985  0.93388  1.0000
  H   H2450     1.0  0.93831  0.06407  0.81595  1.0000
  C   C3059     1.0  0.99890  0.09546  0.55037  1.0000
  C   C3060     1.0  0.92398  0.02369  0.88767  1.0000
  H   H2451     1.0  0.86575  0.12847  0.73946  1.0000
  C   C3061     1.0  0.78303  0.27454  0.66794  1.0000
  C   C3062     1.0  0.77502  0.12599  0.77905  1.0000
  C   C3063     1.0  0.89231  0.06151  0.55439  1.0000
  C   C3064     1.0  0.88734  0.08374  0.55911  1.0000
  C   C3065     1.0  0.88583  0.09178  0.58541  1.0000
  C   C3066     1.0  0.88935  0.07767  0.60706  1.0000
  C   C3067     1.0  0.89504  0.05557  0.60230  1.0000
  C   C3068     1.0  0.89650  0.04752  0.57604  1.0000
  H   H2452     1.0  0.88395  0.09463  0.54257  1.0000
  H   H2453     1.0  0.88143  0.10892  0.58895  1.0000
  H   H2454     1.0  0.89781  0.04456  0.61875  1.0000
  H   H2455     1.0  0.90045  0.03035  0.57253  1.0000
  C   C3069     1.0  0.87088  0.05826  0.85603  1.0000
  C   C3070     1.0  0.87087  0.08053  0.85197  1.0000
  C   C3071     1.0  0.87225  0.08855  0.82600  1.0000
  C   C3072     1.0  0.87427  0.07436  0.80393  1.0000
  C   C3073     1.0  0.87449  0.05205  0.80800  1.0000
  C   C3074     1.0  0.87247  0.04408  0.83392  1.0000
  H   H2456     1.0  0.86945  0.09162  0.86879  1.0000
  H   H2457     1.0  0.87207  0.10582  0.82311  1.0000
  H   H2458     1.0  0.87591  0.04097  0.79118  1.0000
  H   H2459     1.0  0.87220  0.02687  0.83681  1.0000
  C   C3075     1.0  0.84804  0.15393  0.54690  1.0000
  C   C3076     1.0  0.85505  0.14641  0.52158  1.0000
  C   C3077     1.0  0.84606  0.15659  0.49863  1.0000
  C   C3078     1.0  0.82963  0.17396  0.50116  1.0000
  H   H2460     1.0  0.76997  0.11782  0.96626  1.0000
  H   H2461     1.0  0.85530  0.14618  0.56458  1.0000
  H   H2462     1.0  0.86763  0.13296  0.51987  1.0000
  C   C3079     1.0  0.93559  0.01639  0.82001  1.0000
  C   C3080     1.0  0.82703  0.10299  0.65891  1.0000
  C   C3081     1.0  0.83979  0.11664  0.67334  1.0000
  C   C3082     1.0  0.83276  0.13879  0.67617  1.0000
  P   P105      1.0  0.84912  0.15631  0.69499  1.0000
  C   C3083     1.0  0.87807  0.14888  0.69056  1.0000
  C   C3084     1.0  0.89320  0.15376  0.71047  1.0000
  C   C3085     1.0  0.91573  0.14923  0.70634  1.0000
  C   C3086     1.0  0.92331  0.14025  0.68212  1.0000
  C   C3087     1.0  0.90837  0.13582  0.66200  1.0000
  C   C3088     1.0  0.88585  0.14026  0.66610  1.0000
  C   C3089     1.0  0.84523  0.18357  0.68238  1.0000
  C   C3090     1.0  0.84268  0.22575  0.66196  1.0000
  C   C3091     1.0  0.84476  0.22248  0.68944  1.0000
  C   C3092     1.0  0.84623  0.20146  0.69963  1.0000
  H   H2463     1.0  0.83306  0.08609  0.65594  1.0000
  H   H2464     1.0  0.85535  0.10995  0.68180  1.0000
  H   H2465     1.0  0.88763  0.16132  0.72905  1.0000
  H   H2466     1.0  0.92733  0.15290  0.72181  1.0000
  H   H2467     1.0  0.94074  0.13698  0.67882  1.0000
  H   H2468     1.0  0.91412  0.12892  0.64312  1.0000
  H   H2469     1.0  0.87458  0.13702  0.65004  1.0000
  C   C3093     1.0  0.98794  0.04095  0.94960  1.0000
  H   H2470     1.0  0.84155  0.24200  0.65397  1.0000
  H   H2471     1.0  0.84551  0.23621  0.70284  1.0000
  H   H2472     1.0  0.84847  0.19922  0.72088  1.0000
  C   C3094     1.0  0.92005  0.14016  0.54529  1.0000
  C   C3095     1.0  0.92567  0.14805  0.52062  1.0000
  C   C3096     1.0  0.94491  0.13936  0.50823  1.0000
  C   C3097     1.0  0.95862  0.12292  0.52055  1.0000
  C   C3098     1.0  0.95342  0.11524  0.54570  1.0000
  C   C3099     1.0  0.93378  0.12378  0.55775  1.0000
  P   P106      1.0  0.97108  0.09355  0.56110  1.0000
  C   C3100     1.0  0.96240  0.06774  0.55078  1.0000
  C   C3101     1.0  0.96598  0.04970  0.56759  1.0000
  C   C3102     1.0  0.76216  0.21909  0.49108  1.0000
  H   H2473     1.0  0.86334  0.27928  0.86525  1.0000
  C   C3103     1.0  0.94643  0.04511  0.51755  1.0000
  C   C3104     1.0  0.95268  0.06528  0.52562  1.0000
  C   C3105     1.0  0.96919  0.09580  0.59704  1.0000
  C   C3106     1.0  0.95032  0.09005  0.60971  1.0000
  C   C3107     1.0  0.98634  0.10294  0.61268  1.0000
  H   H2474     1.0  0.90475  0.14641  0.55448  1.0000
  H   H2475     1.0  0.91471  0.16032  0.51067  1.0000
  H   H2476     1.0  0.97302  0.11591  0.51007  1.0000
  H   H2477     1.0  0.92871  0.11777  0.57653  1.0000
  H   H2478     1.0  0.97368  0.05114  0.58696  1.0000
  H   H2479     1.0  0.00136  0.10690  0.60378  1.0000
  H   H2480     1.0  0.96906  0.06541  0.77779  1.0000
  H   H2481     1.0  0.93849  0.04335  0.49838  1.0000
  H   H2482     1.0  0.94983  0.07885  0.51218  1.0000
  H   H2483     1.0  0.93709  0.08394  0.59824  1.0000
  S   S427      1.0  0.79143  0.22801  0.62245  1.0000
  C   C3108     1.0  0.96870  0.01571  0.78220  1.0000
  H   H2484     1.0  0.77097  0.32019  0.54191  1.0000
  H   H2485     1.0  0.78334  0.17222  0.91989  1.0000
  C   C3109     1.0  0.80024  0.12171  0.49975  1.0000
  Fe  Fe220     1.0  0.86517  0.10447  0.96347  1.0000
  H   H2486     1.0  0.94513  0.09954  0.77119  1.0000
  C   C3110     1.0  0.96509  0.02218  0.63880  1.0000
  H   H2487     1.0  0.00408  0.06552  0.80234  1.0000
  C   C3111     1.0  0.82242  0.18132  0.52649  1.0000
  C   C3112     1.0  0.81850  0.32408  0.95941  1.0000
  C   C3113     1.0  0.81633  0.25455  0.86123  1.0000
  C   C3114     1.0  0.84092  0.05310  0.57902  1.0000
  C   C3115     1.0  0.94679  0.02125  0.88431  1.0000
  H   H2488     1.0  0.83551  0.33272  0.53468  1.0000
  C   C3116     1.0  0.76190  0.21580  0.94079  1.0000
  C   C3117     1.0  0.80554  0.26410  0.88344  1.0000
  H   H2489     1.0  0.80603  0.11661  0.72353  1.0000
  C   C3118     1.0  0.80253  0.29498  0.77360  1.0000
  H   H2490     1.0  0.80863  0.24266  0.84934  1.0000
  P   P107      1.0  0.95919  0.03680  0.85930  1.0000
  C   C3119     1.0  0.76157  0.28456  0.66779  1.0000
  S   S428      1.0  0.85384  0.07117  0.96021  1.0000
  H   H2491     1.0  0.78963  0.25925  0.88836  1.0000
  C   C3120     1.0  0.80051  0.16540  0.85558  1.0000
  H   H2492     1.0  0.91398  0.12185  0.85786  1.0000
  C   C3121     1.0  0.80852  0.04120  0.78424  1.0000
  C   C3122     1.0  0.82152  0.04155  0.76163  1.0000
  C   C3123     1.0  0.81175  0.04203  0.73631  1.0000
  H   H2493     1.0  0.81623  0.04061  0.80379  1.0000
  H   H2494     1.0  0.83919  0.04133  0.76364  1.0000
  H   H2495     1.0  0.82190  0.04176  0.71876  1.0000
  H   H2496     1.0  0.94884  0.14479  0.48857  1.0000
  C   C3124     1.0  0.84352  0.18697  0.65478  1.0000
  H   H2497     1.0  0.77536  0.16611  0.53575  1.0000
  C   C3125     1.0  0.80234  0.12275  0.87374  1.0000
  C   C3126     1.0  0.83181  0.17148  0.54947  1.0000
  H   H2498     1.0  0.82194  0.13376  0.90634  1.0000
  C   C3127     1.0  0.84225  0.20797  0.64467  1.0000
  C   C3128     1.0  0.84717  0.27509  0.87027  1.0000
  H   H2499     1.0  0.81406  0.08638  0.79968  1.0000
  H   H2500     1.0  0.79200  0.27253  0.64950  1.0000
  C   C3129     1.0  0.76415  0.13049  0.95265  1.0000
  C   C3130     1.0  0.97200  0.02427  0.80765  1.0000
  C   C3131     1.0  0.83515  0.03087  0.53978  1.0000
  C   C3132     1.0  0.76094  0.31226  0.91344  1.0000
  C   C3133     1.0  0.83650  0.28455  0.89261  1.0000
  H   H2501     1.0  0.79535  0.21646  0.72717  1.0000
  H   H2502     1.0  0.80235  0.32687  0.50816  1.0000
  C   C3134     1.0  0.98711  0.11963  0.80555  1.0000
  H   H2503     1.0  0.84182  0.22233  0.48670  1.0000
  H   H2504     1.0  0.84342  0.17341  0.64092  1.0000
  C   C3135     1.0  0.80919  0.05175  0.85853  1.0000
  C   C3136     1.0  0.98429  0.10488  0.64037  1.0000
  H   H2505     1.0  0.80219  0.17685  0.77232  1.0000
  C   C3137     1.0  0.94155  0.07578  0.88239  1.0000
  H   H2506     1.0  0.78824  0.26227  0.73370  1.0000
  C   C3138     1.0  0.76358  0.30261  0.78073  1.0000
  S   S429      1.0  0.76152  0.19602  0.58782  1.0000
  C   C3139     1.0  0.96696  0.11931  0.79216  1.0000
  H   H2507     1.0  0.98581  0.11591  0.90784  1.0000
  C   C3140     1.0  0.96901  0.05579  0.94899  1.0000
  C   C3141     1.0  0.95561  0.02432  0.82698  1.0000
  H   H2508     1.0  0.99236  0.10167  0.96521  1.0000
  H   H2509     1.0  0.84091  0.21039  0.62330  1.0000
  C   C3142     1.0  0.78103  0.26901  0.71540  1.0000
  H   H2510     1.0  0.83214  0.30698  0.47001  1.0000
  C   C3143     1.0  0.77829  0.33151  0.59445  1.0000
  H   H2511     1.0  0.83343  0.08756  0.57431  1.0000
  H   H2512     1.0  0.80090  0.31918  0.66062  1.0000
  H   H2513     1.0  0.98125  0.01596  0.76720  1.0000
  H   H2514     1.0  0.82605  0.23875  0.52813  1.0000
  C   C3144     1.0  0.83324  0.07172  0.56495  1.0000
  Fe  Fe221     1.0  0.77874  0.25438  0.59410  1.0000
  C   C3145     1.0  0.97268  0.04142  0.64807  1.0000
  H   H2515     1.0  0.99977  0.06052  0.65120  1.0000
  C   C3146     1.0  0.99412  0.04589  0.64294  1.0000
  H   H2516     1.0  0.77313  0.21892  0.50801  1.0000
  H   H2517     1.0  0.81415  0.12476  0.51234  1.0000
  H   H2518     1.0  0.98503  0.06849  0.88716  1.0000
  C   C3147     1.0  0.99577  0.05426  0.88192  1.0000
  C   C3148     1.0  0.92549  0.09380  0.83434  1.0000
  C   C3149     1.0  0.85224  0.13962  0.74648  1.0000
  C   C3150     1.0  0.76353  0.21522  0.74454  1.0000
  C   C3151     1.0  0.79214  0.03872  0.86185  1.0000
  H   H2519     1.0  0.81840  0.08260  0.84644  1.0000
  Fe  Fe222     1.0  0.91300  0.08708  0.95438  1.0000
  C   C3152     1.0  0.84193  0.03274  0.56651  1.0000
  C   C3153     1.0  0.80483  0.07285  0.84882  1.0000
  H   H2520     1.0  0.80981  0.19475  0.52820  1.0000
  H   H2521     1.0  0.82619  0.09003  0.75381  1.0000
  C   C3154     1.0  0.80907  0.26642  0.50836  1.0000
  C   C3155     1.0  0.84606  0.13872  0.77313  1.0000
  H   H2522     1.0  0.85493  0.12722  0.78641  1.0000
  H   H2523     1.0  0.83045  0.02506  0.94232  1.0000
  C   C3156     1.0  0.81156  0.09972  0.76066  1.0000
  C   C3157     1.0  0.80456  0.09771  0.78686  1.0000
  H   H2524     1.0  0.79413  0.32034  0.70886  1.0000
  C   C3158     1.0  0.80837  0.27388  0.95668  1.0000
  H   H2525     1.0  0.82027  0.17152  0.89016  1.0000
  C   C3159     1.0  0.81117  0.31782  0.93410  1.0000
  C   C3160     1.0  0.81217  0.14684  0.66581  1.0000
  S   S430      1.0  0.82406  0.18094  0.58166  1.0000
  C   C3161     1.0  0.82249  0.16769  0.73853  1.0000
  C   C3162     1.0  0.81321  0.13816  0.88790  1.0000
  H   H2526     1.0  0.80175  0.27329  0.52652  1.0000
  H   H2527     1.0  0.84533  0.25273  0.83729  1.0000
  C   C3163     1.0  0.80688  0.11125  0.64787  1.0000
  H   H2528     1.0  0.80608  0.16376  0.66843  1.0000
  C   C3164     1.0  0.78321  0.08126  0.84260  1.0000
  C   C3165     1.0  0.81538  0.27947  0.89907  1.0000
  C   C3166     1.0  0.83705  0.26015  0.85453  1.0000
  C   C3167     1.0  0.78226  0.02692  0.61868  1.0000
  H   H2529     1.0  0.81853  0.32040  0.75565  1.0000
  C   C3168     1.0  0.95944  0.02964  0.55951  1.0000
  C   C3169     1.0  0.82558  0.25714  0.95565  1.0000
  C   C3170     1.0  0.82825  0.15234  0.78253  1.0000
  C   C3171     1.0  0.78593  0.11051  0.79619  1.0000
  H   H2530     1.0  0.81284  0.17862  0.72523  1.0000
  C   C3172     1.0  0.76151  0.27475  0.92658  1.0000
  C   C3173     1.0  0.97900  0.00724  0.62445  1.0000
  C   C3174     1.0  0.81237  0.33193  0.91259  1.0000
  C   C3175     1.0  0.79938  0.13313  0.65150  1.0000
  C   C3176     1.0  0.81633  0.16666  0.76517  1.0000
  H   H2531     1.0  0.78045  0.11303  0.53228  1.0000
  H   H2532     1.0  0.82351  0.15154  0.80316  1.0000
  H   H2533     1.0  0.79374  0.29170  0.48346  1.0000
  H   H2534     1.0  0.96211  0.05245  0.66024  1.0000
  C   C3177     1.0  0.77808  0.21556  0.72318  1.0000
  H   H2535     1.0  0.80257  0.10670  0.88194  1.0000
  H   H2536     1.0  0.93360  0.08781  0.64688  1.0000
  H   H2537     1.0  0.76897  0.32670  0.91005  1.0000
  Fe  Fe223     1.0  0.79534  0.20661  0.58588  1.0000
  H   H2538     1.0  0.78778  0.04437  0.94203  1.0000
  H   H2539     1.0  0.99756  0.11030  0.65243  1.0000
  H   H2540     1.0  0.80911  0.25844  0.69165  1.0000
  C   C3178     1.0  0.93658  0.07296  0.83458  1.0000
  C   C3179     1.0  0.80026  0.11475  0.74362  1.0000
  C   C3180     1.0  0.00197  0.11317  0.89910  1.0000
  C   C3181     1.0  0.79117  0.12836  0.84974  1.0000
  H   H2541     1.0  0.79920  0.18212  0.84904  1.0000
  C   C3182     1.0  0.00383  0.04324  0.71612  1.0000
  C   C3183     1.0  0.79001  0.14994  0.84108  1.0000
  H   H2542     1.0  0.79567  0.02236  0.86928  1.0000
  H   H2543     1.0  0.79557  0.33293  0.59178  1.0000
  H   H2544     1.0  0.91871  0.10052  0.81580  1.0000
  C   C3184     1.0  0.77584  0.04146  0.75618  1.0000
  C   C3185     1.0  0.96524  0.09959  0.65264  1.0000
  S   S431      1.0  0.79030  0.28791  0.59566  1.0000
  S   S432      1.0  0.78609  0.23383  0.55764  1.0000
  H   H2545     1.0  0.78076  0.15501  0.82330  1.0000
  C   C3186     1.0  0.76617  0.06797  0.84599  1.0000
  C   C3187     1.0  0.77555  0.21484  0.96347  1.0000
  H   H2546     1.0  0.78173  0.21496  0.68036  1.0000
  H   H2547     1.0  0.76300  0.28774  0.84769  1.0000
  H   H2548     1.0  0.82043  0.04842  0.50591  1.0000
  H   H2549     1.0  0.99211  0.13493  0.81281  1.0000
  C   C3188     1.0  0.77193  0.16113  0.92622  1.0000
  H   H2550     1.0  0.96372  0.10095  0.67406  1.0000
  H   H2551     1.0  0.83535  0.25429  0.93794  1.0000
  C   C3189     1.0  0.99398  0.08069  0.79963  1.0000
  C   C3190     1.0  0.77898  0.14435  0.94356  1.0000
  H   H2552     1.0  0.76169  0.08006  0.73187  1.0000
  C   C3191     1.0  0.00784  0.11545  0.55188  1.0000
  C   C3192     1.0  0.82268  0.24693  0.50932  1.0000
  C   C3193     1.0  0.80308  0.31553  0.76246  1.0000
  C   C3194     1.0  0.78131  0.11505  0.51093  1.0000
  C   C3195     1.0  0.78278  0.28855  0.78279  1.0000
  H   H2553     1.0  0.79092  0.31349  0.85177  1.0000
  C   C3196     1.0  0.99388  0.04961  0.46982  1.0000
  H   H2554     1.0  0.82019  0.08433  0.52762  1.0000
  C   C3197     1.0  0.94486  0.06380  0.85864  1.0000
  C   C3198     1.0  0.82586  0.06991  0.53863  1.0000
  H   H2555     1.0  0.98934  0.10974  0.85956  1.0000
  C   C3199     1.0  0.77039  0.21484  0.69665  1.0000
  H   H2556     1.0  0.84480  0.29580  0.90482  1.0000
  H   H2557     1.0  0.92871  0.10604  0.90037  1.0000
  H   H2558     1.0  0.81742  0.28409  0.77534  1.0000
  C   C3200     1.0  0.77391  0.31953  0.84871  1.0000
  H   H2559     1.0  0.82246  0.18178  0.48350  1.0000
  C   C3201     1.0  0.97055  0.07779  0.95450  1.0000
  C   C3202     1.0  0.97398  0.08049  0.78592  1.0000
  C   C3203     1.0  0.78387  0.32989  0.76064  1.0000
  P   P108      1.0  0.77732  0.10879  0.83050  1.0000
  H   H2560     1.0  0.91368  0.03525  0.87583  1.0000
  C   C3204     1.0  0.94959  0.02737  0.53453  1.0000
  C   C3205     1.0  0.77264  0.29318  0.92289  1.0000
  H   H2561     1.0  0.99818  0.12973  0.55955  1.0000
  C   C3206     1.0  0.76330  0.11157  0.49460  1.0000
  H   H2562     1.0  0.78178  0.04224  0.71373  1.0000
  C   C3207     1.0  0.00101  0.10037  0.80891  1.0000
  H   H2563     1.0  0.78228  0.27268  0.79158  1.0000
  H   H2564     1.0  0.88203  0.00919  0.53673  1.0000
  C   C3208     1.0  0.79073  0.00770  0.63096  1.0000
  C   C3209     1.0  0.98806  0.03698  0.86746  1.0000
  C   C3210     1.0  0.93087  0.09679  0.88198  1.0000
  C   C3211     1.0  0.77091  0.31095  0.59673  1.0000
  C   C3212     1.0  0.78208  0.12797  0.75287  1.0000
  C   C3213     1.0  0.78573  0.04124  0.78158  1.0000
  C   C3214     1.0  0.80469  0.27687  0.48401  1.0000
  C   C3215     1.0  0.96053  0.09978  0.78206  1.0000
  C   C3216     1.0  0.92271  0.10576  0.85801  1.0000
  H   H2565     1.0  0.77379  0.14021  0.73998  1.0000
  C   C3217     1.0  0.78901  0.04220  0.73356  1.0000
  H   H2566     1.0  0.78378  0.13963  0.64294  1.0000
  S   S433      1.0  0.77372  0.21682  0.90897  1.0000
  C   C3218     1.0  0.79772  0.33468  0.67083  1.0000
  H   H2567     1.0  0.95649  0.13426  0.78926  1.0000
  C   C3219     1.0  0.00045  0.01162  0.61922  1.0000
  C   C3220     1.0  0.79391  0.33546  0.69829  1.0000
  H   H2568     1.0  0.94412  0.01198  0.52835  1.0000
  C   C3221     1.0  0.82638  0.04953  0.52624  1.0000
  H   H2569     1.0  0.79715  0.10072  0.63639  1.0000
  H   H2570     1.0  0.98716  0.03125  0.81190  1.0000
  H   H2571     1.0  0.85782  0.03571  0.49112  1.0000
  H   H2572     1.0  0.94862  0.01864  0.64340  1.0000
  H   H2573     1.0  0.79296  0.03938  0.61475  1.0000
  H   H2574     1.0  0.79090  0.08377  0.94546  1.0000
  C   C3222     1.0  0.00854  0.04800  0.95546  1.0000
  C   C3223     1.0  0.99110  0.08476  0.96058  1.0000
  C   C3224     1.0  0.00410  0.10962  0.87161  1.0000
  C   C3225     1.0  0.00268  0.01857  0.86177  1.0000
  H   H2575     1.0  0.79590  0.14240  0.95031  1.0000
  S   S434      1.0  0.94745  0.09723  0.95352  1.0000
  H   H2576     1.0  0.80701  0.32741  0.89283  1.0000
  C   C3226     1.0  0.76407  0.32321  0.76977  1.0000
  H   H2577     1.0  0.00495  0.06189  0.53734  1.0000
  H   H2578     1.0  0.92219  0.01735  0.83386  1.0000
  H   H2579     1.0  0.95330  0.05017  0.94410  1.0000
  C   C3227     1.0  0.94894  0.00739  0.77567  1.0000
  H   H2580     1.0  0.98668  0.02397  0.94539  1.0000
  H   H2581     1.0  0.00944  0.02616  0.71464  1.0000
  C   C3228     1.0  0.85422  0.02220  0.47861  1.0000
  C   C3229     1.0  0.79335  0.05116  0.96058  1.0000
  C   C3230     1.0  0.79492  0.07350  0.96251  1.0000
  H   H2582     1.0  0.96179  0.01589  0.57266  1.0000
  H   H2583     1.0  0.79311  0.21457  0.96127  1.0000
  C   C3231     1.0  0.00816  0.03108  0.62828  1.0000
  H   H2584     1.0  0.89669  0.01344  0.90920  1.0000
  H   H2585     1.0  0.84709  0.01008  0.90094  1.0000
  C   C3232     1.0  0.91428  0.01139  0.90658  1.0000
  C   C3233     1.0  0.82527  0.01009  0.93419  1.0000
  C   C3234     1.0  0.01001  0.06997  0.96098  1.0000
  H   H2586     1.0  0.76089  0.28315  0.54779  1.0000
  C   C3235     1.0  0.76116  0.31324  0.52666  1.0000
  C   C3236     1.0  0.93236  0.00781  0.79453  1.0000
  C   C3237     1.0  0.80125  0.12474  0.47226  1.0000
  C   C3238     1.0  0.76095  0.16730  0.49640  1.0000
  H   H2587     1.0  0.76123  0.13684  0.78593  1.0000
  C   C3239     1.0  0.95974  0.00668  0.90075  1.0000
  C   C3240     1.0  0.86299  0.65721  0.03492  1.0000
  C   C3241     1.0  0.80272  0.46284  0.11418  1.0000
  H   H2588     1.0  0.76531  0.36182  0.09526  1.0000
  C   C3242     1.0  0.79177  0.63414  0.98074  1.0000
  H   H2589     1.0  0.80959  0.62403  0.45103  1.0000
  C   C3243     1.0  0.81350  0.62539  0.98418  1.0000
  S   S435      1.0  0.77244  0.46214  0.34866  1.0000
  C   C3244     1.0  0.99542  0.61999  0.14440  1.0000
  Fe  Fe224     1.0  0.90470  0.56738  0.45345  1.0000
  S   S436      1.0  0.91296  0.60171  0.45062  1.0000
  S   S437      1.0  0.90616  0.54432  0.41817  1.0000
  Fe  Fe225     1.0  0.89581  0.57578  0.01172  1.0000
  S   S438      1.0  0.90647  0.60925  0.00957  1.0000
  S   S439      1.0  0.88864  0.55745  0.04933  1.0000
  C   C3245     1.0  0.00386  0.61148  0.28931  1.0000
  H   H2590     1.0  0.98341  0.63582  0.01770  1.0000
  P   P109      1.0  0.88670  0.65394  0.29700  1.0000
  C   C3246     1.0  0.95599  0.54348  0.13969  1.0000
  H   H2591     1.0  0.94414  0.54411  0.09906  1.0000
  C   C3247     1.0  0.91185  0.65878  0.15674  1.0000
  C   C3248     1.0  0.99753  0.64120  0.15355  1.0000
  S   S440      1.0  0.80122  0.42207  0.38012  1.0000
  S   S441      1.0  0.79554  0.41963  0.31492  1.0000
  Fe  Fe226     1.0  0.80582  0.44380  0.34510  1.0000
  S   S442      1.0  0.83344  0.46556  0.34360  1.0000
  C   C3249     1.0  0.96851  0.50828  0.35041  1.0000
  Fe  Fe227     1.0  0.90757  0.56306  0.20589  1.0000
  S   S443      1.0  0.92418  0.52910  0.20397  1.0000
  S   S444      1.0  0.89884  0.58555  0.17089  1.0000
  Fe  Fe228     1.0  0.91161  0.56451  0.26719  1.0000
  S   S445      1.0  0.92868  0.53094  0.26932  1.0000
  S   S446      1.0  0.90557  0.58623  0.30327  1.0000
  Fe  Fe229     1.0  0.94783  0.54087  0.23435  1.0000
  Fe  Fe230     1.0  0.90320  0.52283  0.23937  1.0000
  S   S447      1.0  0.88525  0.49255  0.24187  1.0000
  S   S448      1.0  0.93241  0.57504  0.23433  1.0000
  S   S449      1.0  0.88480  0.55613  0.23899  1.0000
  H   H2592     1.0  0.97689  0.57932  0.21985  1.0000
  C   C3250     1.0  0.84652  0.47354  0.31453  1.0000
  C   C3251     1.0  0.84662  0.46137  0.29088  1.0000
  C   C3252     1.0  0.85863  0.46737  0.26886  1.0000
  C   C3253     1.0  0.87034  0.48577  0.27009  1.0000
  C   C3254     1.0  0.86984  0.49821  0.29356  1.0000
  C   C3255     1.0  0.85805  0.49205  0.31568  1.0000
  H   H2593     1.0  0.83787  0.44707  0.28974  1.0000
  H   H2594     1.0  0.85884  0.45771  0.25076  1.0000
  H   H2595     1.0  0.87877  0.51240  0.29479  1.0000
  H   H2596     1.0  0.85809  0.50152  0.33391  1.0000
  H   H2597     1.0  0.83362  0.43655  0.41811  1.0000
  H   H2598     1.0  0.84779  0.56566  0.08317  1.0000
  C   C3256     1.0  0.78410  0.54243  0.99864  1.0000
  C   C3257     1.0  0.88918  0.65224  0.35268  1.0000
  C   C3258     1.0  0.80458  0.61541  0.09134  1.0000
  C   C3259     1.0  0.90667  0.55642  0.38659  1.0000
  C   C3260     1.0  0.91569  0.54423  0.36502  1.0000
  C   C3261     1.0  0.91531  0.55311  0.33936  1.0000
  C   C3262     1.0  0.90603  0.57437  0.33513  1.0000
  C   C3263     1.0  0.89724  0.58665  0.35680  1.0000
  C   C3264     1.0  0.89748  0.57771  0.38243  1.0000
  H   H2599     1.0  0.92334  0.52799  0.36828  1.0000
  H   H2600     1.0  0.92257  0.54361  0.32306  1.0000
  H   H2601     1.0  0.89004  0.60307  0.35375  1.0000
  H   H2602     1.0  0.89031  0.58718  0.39886  1.0000
  C   C3265     1.0  0.89418  0.56505  0.08273  1.0000
  C   C3266     1.0  0.89806  0.58624  0.08975  1.0000
  C   C3267     1.0  0.89982  0.59220  0.11683  1.0000
  C   C3268     1.0  0.89841  0.57691  0.13709  1.0000
  C   C3269     1.0  0.89537  0.55553  0.13002  1.0000
  C   C3270     1.0  0.89300  0.54971  0.10298  1.0000
  H   H2603     1.0  0.89896  0.59813  0.07432  1.0000
  H   H2604     1.0  0.90207  0.60878  0.12216  1.0000
  H   H2605     1.0  0.89423  0.54367  0.14544  1.0000
  H   H2606     1.0  0.88994  0.53331  0.09769  1.0000
  C   C3271     1.0  0.99403  0.57569  0.22475  1.0000
  C   C3272     1.0  0.96619  0.58597  0.13073  1.0000
  C   C3273     1.0  0.98863  0.58428  0.97906  1.0000
  C   C3274     1.0  0.96533  0.55512  0.16012  1.0000
  C   C3275     1.0  0.79139  0.37855  0.04471  1.0000
  H   H2607     1.0  0.87969  0.52170  0.01662  1.0000
  C   C3276     1.0  0.79171  0.64825  0.02592  1.0000
  H   H2608     1.0  0.84327  0.54058  0.00738  1.0000
  H   H2609     1.0  0.00220  0.60799  0.21620  1.0000
  H   H2610     1.0  0.85151  0.66239  0.01909  1.0000
  C   C3277     1.0  0.00174  0.53045  0.06610  1.0000
  C   C3278     1.0  0.83322  0.65989  0.43499  1.0000
  C   C3279     1.0  0.84889  0.64229  0.44014  1.0000
  C   C3280     1.0  0.85612  0.62841  0.41922  1.0000
  C   C3281     1.0  0.84820  0.63248  0.39315  1.0000
  H   H2611     1.0  0.77228  0.57450  0.05319  1.0000
  S   S450      1.0  0.77367  0.43643  0.03888  1.0000
  H   H2612     1.0  0.86798  0.61467  0.42309  1.0000
  H   H2613     1.0  0.85418  0.62186  0.37702  1.0000
  C   C3282     1.0  0.94282  0.65224  0.12721  1.0000
  C   C3283     1.0  0.89715  0.48459  0.36684  1.0000
  C   C3284     1.0  0.89805  0.46543  0.35182  1.0000
  C   C3285     1.0  0.88823  0.44768  0.36127  1.0000
  C   C3286     1.0  0.87741  0.44909  0.38569  1.0000
  C   C3287     1.0  0.87649  0.46828  0.40098  1.0000
  C   C3288     1.0  0.88641  0.48607  0.39131  1.0000
  P   P110      1.0  0.86101  0.47097  0.43148  1.0000
  C   C3289     1.0  0.81371  0.63988  0.02933  1.0000
  H   H2614     1.0  0.81561  0.59694  0.41530  1.0000
  C   C3290     1.0  0.83336  0.48274  0.42460  1.0000
  C   C3291     1.0  0.82822  0.49404  0.40093  1.0000
  C   C3292     1.0  0.80640  0.50090  0.39435  1.0000
  C   C3293     1.0  0.78959  0.49663  0.41144  1.0000
  C   C3294     1.0  0.79465  0.48598  0.43544  1.0000
  C   C3295     1.0  0.81643  0.47917  0.44212  1.0000
  H   H2615     1.0  0.90421  0.49849  0.35908  1.0000
  H   H2616     1.0  0.90569  0.46459  0.33244  1.0000
  H   H2617     1.0  0.88822  0.43312  0.34912  1.0000
  H   H2618     1.0  0.86928  0.43539  0.39200  1.0000
  H   H2619     1.0  0.80276  0.59310  0.03513  1.0000
  C   C3296     1.0  0.00018  0.58906  0.39056  1.0000
  C   C3297     1.0  0.96033  0.62772  0.04708  1.0000
  H   H2620     1.0  0.84085  0.49677  0.38684  1.0000
  H   H2621     1.0  0.80263  0.50865  0.37537  1.0000
  C   C3298     1.0  0.76392  0.35966  0.46598  1.0000
  Fe  Fe231     1.0  0.76189  0.43676  0.32046  1.0000
  H   H2622     1.0  0.94113  0.61903  0.08001  1.0000
  H   H2623     1.0  0.85213  0.35938  0.42408  1.0000
  C   C3299     1.0  0.80807  0.57120  0.00173  1.0000
  H   H2624     1.0  0.80319  0.37192  0.42264  1.0000
  H   H2625     1.0  0.95163  0.52727  0.14335  1.0000
  C   C3300     1.0  0.85161  0.53128  0.99154  1.0000
  C   C3301     1.0  0.88704  0.46973  0.18018  1.0000
  C   C3302     1.0  0.90071  0.47789  0.16153  1.0000
  C   C3303     1.0  0.89224  0.49406  0.14397  1.0000
  C   C3304     1.0  0.87020  0.50234  0.14542  1.0000
  C   C3305     1.0  0.85660  0.49484  0.16488  1.0000
  C   C3306     1.0  0.86500  0.47801  0.18172  1.0000
  P   P111      1.0  0.82812  0.50540  0.16604  1.0000
  C   C3307     1.0  0.81507  0.49864  0.19647  1.0000
  C   C3308     1.0  0.82495  0.53467  0.16612  1.0000
  C   C3309     1.0  0.80392  0.54565  0.16300  1.0000
  C   C3310     1.0  0.80084  0.56830  0.16488  1.0000
  C   C3311     1.0  0.81878  0.58012  0.16971  1.0000
  C   C3312     1.0  0.83971  0.56928  0.17315  1.0000
  C   C3313     1.0  0.84279  0.54663  0.17176  1.0000
  C   C3314     1.0  0.79402  0.49151  0.19596  1.0000
  H   H2626     1.0  0.79202  0.62897  0.09291  1.0000
  C   C3315     1.0  0.96888  0.54789  0.04504  1.0000
  C   C3316     1.0  0.81460  0.49854  0.24491  1.0000
  C   C3317     1.0  0.82509  0.50255  0.22115  1.0000
  C   C3318     1.0  0.81568  0.49398  0.13706  1.0000
  C   C3319     1.0  0.81139  0.47215  0.13698  1.0000
  C   C3320     1.0  0.84400  0.34467  0.42527  1.0000
  C   C3321     1.0  0.93514  0.62485  0.15886  1.0000
  H   H2627     1.0  0.76413  0.65280  0.99889  1.0000
  C   C3322     1.0  0.81194  0.50613  0.11370  1.0000
  H   H2628     1.0  0.89362  0.45741  0.19408  1.0000
  H   H2629     1.0  0.91786  0.47171  0.16079  1.0000
  H   H2630     1.0  0.90279  0.50028  0.12937  1.0000
  H   H2631     1.0  0.86383  0.51478  0.13159  1.0000
  H   H2632     1.0  0.85480  0.47148  0.19645  1.0000
  H   H2633     1.0  0.78985  0.53662  0.15967  1.0000
  H   H2634     1.0  0.78454  0.57667  0.16283  1.0000
  H   H2635     1.0  0.81648  0.59767  0.17110  1.0000
  H   H2636     1.0  0.85359  0.57840  0.17734  1.0000
  H   H2637     1.0  0.85903  0.53865  0.17570  1.0000
  H   H2638     1.0  0.77819  0.35111  0.14748  1.0000
  C   C3323     1.0  0.88387  0.50861  0.97697  1.0000
  H   H2639     1.0  0.95087  0.60196  0.27730  1.0000
  H   H2640     1.0  0.82261  0.50123  0.26388  1.0000
  H   H2641     1.0  0.84107  0.50863  0.22205  1.0000
  H   H2642     1.0  0.81470  0.46224  0.15454  1.0000
  H   H2643     1.0  0.95460  0.56883  0.36463  1.0000
  C   C3324     1.0  0.79963  0.60592  0.41680  1.0000
  H   H2644     1.0  0.81999  0.37361  0.28933  1.0000
  S   S451      1.0  0.82457  0.65592  0.35470  1.0000
  H   H2645     1.0  0.81608  0.52266  0.11293  1.0000
  H   H2646     1.0  0.79707  0.43398  0.22122  1.0000
  H   H2647     1.0  0.80065  0.50606  0.07277  1.0000
  C   C3325     1.0  0.84028  0.41178  0.44751  1.0000
  C   C3326     1.0  0.95688  0.57411  0.11027  1.0000
  H   H2648     1.0  0.77854  0.52832  0.98884  1.0000
  C   C3327     1.0  0.95184  0.55294  0.11476  1.0000
  S   S452      1.0  0.79455  0.36299  0.34956  1.0000
  H   H2649     1.0  0.97281  0.51448  0.05700  1.0000
  C   C3328     1.0  0.85205  0.61213  0.25345  1.0000
  C   C3329     1.0  0.84298  0.60020  0.27320  1.0000
  C   C3330     1.0  0.84645  0.60518  0.30004  1.0000
  C   C3331     1.0  0.85914  0.62185  0.30722  1.0000
  C   C3332     1.0  0.86911  0.63329  0.28760  1.0000
  C   C3333     1.0  0.00197  0.55475  0.23263  1.0000
  H   H2650     1.0  0.77055  0.38090  0.39427  1.0000
  Fe  Fe232     1.0  0.88463  0.61347  0.97304  1.0000
  C   C3334     1.0  0.90001  0.64684  0.32863  1.0000
  H   H2651     1.0  0.80945  0.61387  0.34748  1.0000
  H   H2652     1.0  0.81992  0.47036  0.46048  1.0000
  C   C3335     1.0  0.92034  0.63562  0.37783  1.0000
  C   C3336     1.0  0.93113  0.62990  0.35405  1.0000
  C   C3337     1.0  0.92103  0.63547  0.32956  1.0000
  S   S453      1.0  0.77652  0.43407  0.16996  1.0000
  H   H2653     1.0  0.79915  0.44605  0.11442  1.0000
  H   H2654     1.0  0.90017  0.50079  0.98102  1.0000
  H   H2655     1.0  0.82352  0.36526  0.05766  1.0000
  C   C3338     1.0  0.80337  0.49673  0.09084  1.0000
  C   C3339     1.0  0.77229  0.37481  0.03055  1.0000
  C   C3340     1.0  0.91651  0.63619  0.25904  1.0000
  C   C3341     1.0  0.93213  0.63719  0.23915  1.0000
  C   C3342     1.0  0.78359  0.48757  0.21974  1.0000
  C   C3343     1.0  0.97234  0.58510  0.30598  1.0000
  H   H2656     1.0  0.83342  0.58702  0.26774  1.0000
  H   H2657     1.0  0.83971  0.59595  0.31544  1.0000
  H   H2658     1.0  0.86157  0.62535  0.32813  1.0000
  H   H2659     1.0  0.83216  0.34906  0.98270  1.0000
  H   H2660     1.0  0.79056  0.43193  0.44035  1.0000
  H   H2661     1.0  0.82158  0.57933  0.99429  1.0000
  C   C3344     1.0  0.79645  0.62164  0.43695  1.0000
  H   H2662     1.0  0.94717  0.62079  0.35454  1.0000
  H   H2663     1.0  0.92951  0.63036  0.31149  1.0000
  C   C3345     1.0  0.96850  0.59884  0.41805  1.0000
  C   C3346     1.0  0.79753  0.57896  0.02497  1.0000
  C   C3347     1.0  0.98745  0.57723  0.37334  1.0000
  C   C3348     1.0  0.77952  0.43565  0.22416  1.0000
  H   H2664     1.0  0.91157  0.62053  0.26451  1.0000
  H   H2665     1.0  0.93899  0.62245  0.22929  1.0000
  C   C3349     1.0  0.97526  0.61995  0.09142  1.0000
  C   C3350     1.0  0.79396  0.49080  0.24422  1.0000
  C   C3351     1.0  0.99076  0.59959  0.41302  1.0000
  H   H2666     1.0  0.83468  0.34485  0.38361  1.0000
  C   C3352     1.0  0.96496  0.57711  0.37814  1.0000
  C   C3353     1.0  0.99618  0.62346  0.08225  1.0000
  C   C3354     1.0  0.99905  0.62922  0.05579  1.0000
  H   H2667     1.0  0.76758  0.48161  0.21909  1.0000
  C   C3355     1.0  0.98296  0.61345  0.27755  1.0000
  H   H2668     1.0  0.79654  0.42780  0.98989  1.0000
  C   C3356     1.0  0.77121  0.43814  0.25003  1.0000
  C   C3357     1.0  0.86491  0.62875  0.26059  1.0000
  C   C3358     1.0  0.80754  0.34247  0.03337  1.0000
  H   H2669     1.0  0.76250  0.48682  0.04058  1.0000
  Fe  Fe233     1.0  0.76717  0.43905  0.38165  1.0000
  C   C3359     1.0  0.98112  0.63151  0.03829  1.0000
  C   C3360     1.0  0.85607  0.64654  0.05731  1.0000
  C   C3361     1.0  0.80702  0.34552  0.27201  1.0000
  H   H2670     1.0  0.95269  0.65796  0.11153  1.0000
  C   C3362     1.0  0.90735  0.65523  0.27178  1.0000
  C   C3363     1.0  0.82505  0.66377  0.40898  1.0000
  C   C3364     1.0  0.87114  0.64094  0.07805  1.0000
  H   H2671     1.0  0.90694  0.63273  0.18348  1.0000
  H   H2672     1.0  0.96162  0.49929  0.36608  1.0000
  C   C3365     1.0  0.98543  0.56266  0.97355  1.0000
  H   H2673     1.0  0.78294  0.65716  0.04183  1.0000
  H   H2674     1.0  0.85423  0.60046  0.06310  1.0000
  H   H2675     1.0  0.96132  0.60679  0.43566  1.0000
  H   H2676     1.0  0.78607  0.48721  0.26263  1.0000
  C   C3366     1.0  0.78512  0.37448  0.23600  1.0000
  H   H2677     1.0  0.99306  0.54035  0.29404  1.0000
  C   C3367     1.0  0.96716  0.60040  0.28608  1.0000
  H   H2678     1.0  0.97723  0.58519  0.17189  1.0000
  H   H2679     1.0  0.97003  0.58126  0.03438  1.0000
  H   H2680     1.0  0.79221  0.46771  0.07344  1.0000
  C   C3368     1.0  0.98621  0.53160  0.30999  1.0000
  H   H2681     1.0  0.00806  0.53933  0.11789  1.0000
  C   C3369     1.0  0.80094  0.59551  0.10244  1.0000
  C   C3370     1.0  0.85886  0.44465  0.44594  1.0000
  C   C3371     1.0  0.98686  0.53917  0.33643  1.0000
  C   C3372     1.0  0.97876  0.56718  0.04364  1.0000
  P   P112      1.0  0.82757  0.64251  0.06093  1.0000
  H   H2682     1.0  0.81389  0.56224  0.10833  1.0000
  C   C3373     1.0  0.78717  0.36966  0.43023  1.0000
  H   H2683     1.0  0.79088  0.53537  0.44948  1.0000
  H   H2684     1.0  0.96939  0.56302  0.46508  1.0000
  H   H2685     1.0  0.78162  0.48221  0.44842  1.0000
  H   H2686     1.0  0.80983  0.49840  0.97030  1.0000
  P   P113      1.0  0.97117  0.61396  0.12607  1.0000
  C   C3374     1.0  0.78085  0.64555  0.00161  1.0000
  H   H2687     1.0  0.90455  0.64082  0.09189  1.0000
  C   C3375     1.0  0.78035  0.56846  0.03512  1.0000
  C   C3376     1.0  0.79912  0.38203  0.25539  1.0000
  C   C3377     1.0  0.80975  0.36763  0.27366  1.0000
  C   C3378     1.0  0.78177  0.35247  0.23484  1.0000
  C   C3379     1.0  0.83953  0.59948  0.07462  1.0000
  C   C3380     1.0  0.79871  0.47511  0.09112  1.0000
  C   C3381     1.0  0.82437  0.62801  0.00850  1.0000
  H   H2688     1.0  0.76965  0.63146  0.27861  1.0000
  C   C3382     1.0  0.78258  0.60259  0.39865  1.0000
  C   C3383     1.0  0.89299  0.64536  0.07595  1.0000
  H   H2689     1.0  0.00101  0.53765  0.45081  1.0000
  H   H2690     1.0  0.78590  0.59392  0.11297  1.0000
  P   P114      1.0  0.99932  0.56367  0.34421  1.0000
  S   S454      1.0  0.87163  0.58109  0.97745  1.0000
  C   C3384     1.0  0.99345  0.58267  0.31749  1.0000
  H   H2691     1.0  0.80152  0.39910  0.25650  1.0000
  C   C3385     1.0  0.81662  0.57765  0.09973  1.0000
  H   H2692     1.0  0.82801  0.40197  0.43953  1.0000
  C   C3386     1.0  0.95736  0.62193  0.07353  1.0000
  C   C3387     1.0  0.84346  0.43142  0.43543  1.0000
  H   H2693     1.0  0.84126  0.62114  0.01080  1.0000
  H   H2694     1.0  0.96832  0.54789  0.17959  1.0000
  H   H2695     1.0  0.95299  0.58117  0.09100  1.0000
  H   H2696     1.0  0.80261  0.63556  0.30678  1.0000
  C   C3388     1.0  0.79153  0.62368  0.31185  1.0000
  C   C3389     1.0  0.78090  0.59635  0.34211  1.0000
  Fe  Fe234     1.0  0.93192  0.59444  0.98111  1.0000
  H   H2697     1.0  0.78238  0.43872  0.26671  1.0000
  C   C3390     1.0  0.00011  0.56818  0.05343  1.0000
  C   C3391     1.0  0.91708  0.63837  0.16797  1.0000
  H   H2698     1.0  0.97910  0.62500  0.26174  1.0000
  S   S455      1.0  0.76359  0.40645  0.10323  1.0000
  H   H2699     1.0  0.91684  0.65873  0.05142  1.0000
  H   H2700     1.0  0.84948  0.60822  0.23263  1.0000
  H   H2701     1.0  0.95241  0.54716  0.03711  1.0000
  C   C3392     1.0  0.76409  0.43538  0.00558  1.0000
  C   C3393     1.0  0.83281  0.65029  0.38791  1.0000
  H   H2702     1.0  0.78549  0.48894  0.17735  1.0000
  H   H2703     1.0  0.79255  0.39404  0.05458  1.0000
  H   H2704     1.0  0.78064  0.54118  0.34498  1.0000
  C   C3394     1.0  0.01003  0.59034  0.98086  1.0000
  C   C3395     1.0  0.97042  0.57626  0.15567  1.0000
  H   H2705     1.0  0.97590  0.50709  0.28326  1.0000
  S   S456      1.0  0.98483  0.53340  0.23342  1.0000
  H   H2706     1.0  0.95971  0.48661  0.31900  1.0000
  H   H2707     1.0  0.89773  0.66912  0.16372  1.0000
  C   C3396     1.0  0.94802  0.63156  0.13820  1.0000
  P   P115      1.0  0.78568  0.58178  0.37291  1.0000
  C   C3397     1.0  0.97654  0.51265  0.30381  1.0000
  H   H2708     1.0  0.87185  0.63776  0.24502  1.0000
  H   H2709     1.0  0.94665  0.62891  0.03308  1.0000
  C   C3398     1.0  0.97838  0.52712  0.35671  1.0000
  H   H2710     1.0  0.93865  0.60904  0.16776  1.0000
  S   S457      1.0  0.96634  0.60414  0.98396  1.0000
  H   H2711     1.0  0.95979  0.57521  0.31237  1.0000
  C   C3399     1.0  0.77933  0.43146  0.98500  1.0000
  S   S458      1.0  0.92267  0.56065  0.98541  1.0000
  C   C3400     1.0  0.77068  0.35477  0.01773  1.0000
  H   H2712     1.0  0.88556  0.50125  0.40239  1.0000
  C   C3401     1.0  0.81253  0.56660  0.37320  1.0000
  C   C3402     1.0  0.82114  0.55687  0.39676  1.0000
  C   C3403     1.0  0.84199  0.54535  0.39703  1.0000
  C   C3404     1.0  0.85396  0.54266  0.37355  1.0000
  C   C3405     1.0  0.84516  0.55147  0.34979  1.0000
  C   C3406     1.0  0.82444  0.56320  0.34953  1.0000
  C   C3407     1.0  0.00383  0.55248  0.46130  1.0000
  Fe  Fe235     1.0  0.78717  0.39975  0.34994  1.0000
  H   H2713     1.0  0.89087  0.65087  0.39558  1.0000
  H   H2714     1.0  0.97928  0.53230  0.37736  1.0000
  C   C3408     1.0  0.98037  0.52952  0.05626  1.0000
  C   C3409     1.0  0.89939  0.64679  0.37713  1.0000
  C   C3410     1.0  0.96747  0.50112  0.32395  1.0000
  C   C3411     1.0  0.88488  0.66140  0.03274  1.0000
  C   C3412     1.0  0.83581  0.57961  0.08571  1.0000
  C   C3413     1.0  0.78485  0.36216  0.45613  1.0000
  C   C3414     1.0  0.79535  0.61139  0.33494  1.0000
  C   C3415     1.0  0.87236  0.52053  0.99697  1.0000
  C   C3416     1.0  0.80892  0.36236  0.04631  1.0000
  H   H2715     1.0  0.82012  0.65161  0.11809  1.0000
  C   C3417     1.0  0.82417  0.61768  0.07796  1.0000
  C   C3418     1.0  0.77406  0.56669  0.45908  1.0000
  H   H2716     1.0  0.81191  0.55845  0.41500  1.0000
  H   H2717     1.0  0.84903  0.53853  0.41540  1.0000
  H   H2718     1.0  0.87009  0.53374  0.37374  1.0000
  H   H2719     1.0  0.85455  0.54926  0.33161  1.0000
  H   H2720     1.0  0.81776  0.56942  0.33077  1.0000
  C   C3419     1.0  0.76871  0.37468  0.41407  1.0000
  C   C3420     1.0  0.76789  0.54347  0.35982  1.0000
  H   H2721     1.0  0.86601  0.63326  0.09587  1.0000
  H   H2722     1.0  0.92805  0.63109  0.39679  1.0000
  H   H2723     1.0  0.93840  0.58695  0.40442  1.0000
  H   H2724     1.0  0.77263  0.50104  0.40585  1.0000
  C   C3421     1.0  0.77961  0.43602  0.45674  1.0000
  H   H2725     1.0  0.98422  0.65390  0.15128  1.0000
  C   C3422     1.0  0.93894  0.65716  0.23203  1.0000
  C   C3423     1.0  0.77259  0.34634  0.34934  1.0000
  C   C3424     1.0  0.87474  0.48762  0.45475  1.0000
  C   C3425     1.0  0.77671  0.63494  0.43836  1.0000
  H   H2726     1.0  0.77678  0.38583  0.22205  1.0000
  C   C3426     1.0  0.80140  0.55293  0.98830  1.0000
  C   C3427     1.0  0.95562  0.58764  0.40057  1.0000
  H   H2727     1.0  0.78804  0.57544  0.45487  1.0000
  C   C3428     1.0  0.76306  0.61660  0.39966  1.0000
  C   C3429     1.0  0.89989  0.65549  0.05324  1.0000
  H   H2728     1.0  0.00076  0.60807  0.42680  1.0000
  H   H2729     1.0  0.90736  0.47404  0.44363  1.0000
  C   C3430     1.0  0.00842  0.59192  0.22268  1.0000
  H   H2730     1.0  0.89013  0.66909  0.01495  1.0000
  C   C3431     1.0  0.77566  0.54413  0.45606  1.0000
  H   H2731     1.0  0.77455  0.64746  0.45361  1.0000
  C   C3432     1.0  0.76619  0.56195  0.37641  1.0000
  C   C3433     1.0  0.77299  0.62134  0.29600  1.0000
  C   C3434     1.0  0.89775  0.48533  0.45653  1.0000
  H   H2732     1.0  0.95110  0.65786  0.21666  1.0000
  H   H2733     1.0  0.78182  0.36463  0.96814  1.0000
  C   C3435     1.0  0.81512  0.66617  0.10697  1.0000
  H   H2734     1.0  0.77001  0.34710  0.22059  1.0000
  C   C3436     1.0  0.00354  0.54722  0.96964  1.0000
  H   H2735     1.0  0.00757  0.58313  0.05135  1.0000
  C   C3437     1.0  0.92477  0.66575  0.13643  1.0000
  C   C3438     1.0  0.76233  0.59394  0.32602  1.0000
  H   H2736     1.0  0.01036  0.62194  0.09536  1.0000
  C   C3439     1.0  0.76368  0.35410  0.15958  1.0000
  C   C3440     1.0  0.77366  0.55018  0.02198  1.0000
  H   H2737     1.0  0.82224  0.61705  0.96779  1.0000
  H   H2738     1.0  0.82737  0.67056  0.45115  1.0000
  C   C3441     1.0  0.76528  0.43610  0.20207  1.0000
  C   C3442     1.0  0.81655  0.66630  0.07906  1.0000
  H   H2739     1.0  0.87267  0.66035  0.35255  1.0000
  C   C3443     1.0  0.00896  0.59649  0.30965  1.0000
  H   H2740     1.0  0.76635  0.38838  0.16334  1.0000
  H   H2741     1.0  0.96903  0.55782  0.97215  1.0000
  H   H2742     1.0  0.01060  0.51599  0.07436  1.0000
  H   H2743     1.0  0.85054  0.34039  0.46727  1.0000
  H   H2744     1.0  0.80768  0.47499  0.54510  1.0000
  C   C3444     1.0  0.78269  0.43867  0.72699  1.0000
  H   H2745     1.0  0.00422  0.46297  0.54465  1.0000
  H   H2746     1.0  0.92633  0.49614  0.47603  1.0000
  H   H2747     1.0  0.95480  0.63403  0.68453  1.0000
  C   C3445     1.0  0.97647  0.55314  0.89392  1.0000
  C   C3446     1.0  0.98508  0.57027  0.71436  1.0000
  H   H2748     1.0  0.79177  0.38876  0.65802  1.0000
  Fe  Fe236     1.0  0.89966  0.56917  0.95094  1.0000
  S   S459      1.0  0.91115  0.60187  0.94465  1.0000
  S   S460      1.0  0.89624  0.54568  0.91667  1.0000
  Fe  Fe237     1.0  0.89764  0.57066  0.51392  1.0000
  S   S461      1.0  0.90531  0.60526  0.51560  1.0000
  S   S462      1.0  0.88899  0.55010  0.54869  1.0000
  H   H2749     1.0  0.88948  0.63388  0.57002  1.0000
  C   C3447     1.0  0.77253  0.43274  0.95811  1.0000
  C   C3448     1.0  0.81649  0.38676  0.75377  1.0000
  C   C3449     1.0  0.82769  0.35818  0.94158  1.0000
  C   C3450     1.0  0.93323  0.62659  0.87971  1.0000
  H   H2750     1.0  0.80033  0.35330  0.63522  1.0000
  C   C3451     1.0  0.83557  0.58685  0.90486  1.0000
  S   S463      1.0  0.79576  0.41683  0.88129  1.0000
  C   C3452     1.0  0.78456  0.35742  0.51977  1.0000
  Fe  Fe238     1.0  0.80286  0.43834  0.84703  1.0000
  S   S464      1.0  0.83476  0.45389  0.84446  1.0000
  H   H2751     1.0  0.00620  0.57373  0.78260  1.0000
  Fe  Fe239     1.0  0.89595  0.56028  0.70339  1.0000
  S   S465      1.0  0.91083  0.52594  0.69893  1.0000
  S   S466      1.0  0.88346  0.58195  0.66914  1.0000
  Fe  Fe240     1.0  0.90425  0.56015  0.76385  1.0000
  S   S467      1.0  0.91993  0.52583  0.76356  1.0000
  S   S468      1.0  0.90066  0.58247  0.79965  1.0000
  Fe  Fe241     1.0  0.93733  0.53600  0.72690  1.0000
  Fe  Fe242     1.0  0.89184  0.51963  0.73600  1.0000
  S   S469      1.0  0.86879  0.49294  0.73724  1.0000
  S   S470      1.0  0.92325  0.57066  0.72925  1.0000
  S   S471      1.0  0.87525  0.55359  0.73836  1.0000
  H   H2752     1.0  0.96773  0.57512  0.71278  1.0000
  C   C3453     1.0  0.84313  0.46554  0.81456  1.0000
  C   C3454     1.0  0.85950  0.47989  0.81569  1.0000
  C   C3455     1.0  0.86715  0.48881  0.79227  1.0000
  C   C3456     1.0  0.85888  0.48301  0.76737  1.0000
  C   C3457     1.0  0.84241  0.46873  0.76622  1.0000
  C   C3458     1.0  0.83436  0.46026  0.78970  1.0000
  H   H2753     1.0  0.86648  0.48402  0.83476  1.0000
  H   H2754     1.0  0.87983  0.49975  0.79348  1.0000
  H   H2755     1.0  0.83593  0.46410  0.74706  1.0000
  H   H2756     1.0  0.82185  0.44915  0.78850  1.0000
  C   C3459     1.0  0.83931  0.38934  0.79326  1.0000
  H   H2757     1.0  0.90496  0.52172  0.50626  1.0000
  H   H2758     1.0  0.79037  0.51818  0.83218  1.0000
  H   H2759     1.0  0.81768  0.61589  0.88964  1.0000
  C   C3460     1.0  0.94725  0.60867  0.87131  1.0000
  C   C3461     1.0  0.89811  0.55596  0.88422  1.0000
  C   C3462     1.0  0.90127  0.54155  0.86252  1.0000
  C   C3463     1.0  0.90187  0.54942  0.83638  1.0000
  C   C3464     1.0  0.89947  0.57177  0.83188  1.0000
  C   C3465     1.0  0.89618  0.58613  0.85355  1.0000
  C   C3466     1.0  0.89552  0.57828  0.87961  1.0000
  H   H2760     1.0  0.90319  0.52425  0.86590  1.0000
  H   H2761     1.0  0.90431  0.53819  0.81979  1.0000
  H   H2762     1.0  0.89408  0.60343  0.85015  1.0000
  H   H2763     1.0  0.89258  0.58954  0.89599  1.0000
  C   C3467     1.0  0.89072  0.55864  0.58235  1.0000
  C   C3468     1.0  0.89395  0.58002  0.58934  1.0000
  C   C3469     1.0  0.89249  0.58681  0.61620  1.0000
  C   C3470     1.0  0.88813  0.57227  0.63623  1.0000
  C   C3471     1.0  0.88611  0.55063  0.62940  1.0000
  C   C3472     1.0  0.88733  0.54388  0.60255  1.0000
  H   H2764     1.0  0.89668  0.59149  0.57398  1.0000
  H   H2765     1.0  0.89445  0.60345  0.62145  1.0000
  H   H2766     1.0  0.88297  0.53928  0.64473  1.0000
  H   H2767     1.0  0.88531  0.52720  0.59737  1.0000
  H   H2768     1.0  0.85020  0.58892  0.89363  1.0000
  S   S472      1.0  0.77072  0.45916  0.85042  1.0000
  H   H2769     1.0  0.78567  0.57357  0.86817  1.0000
  C   C3473     1.0  0.83266  0.39667  0.76794  1.0000
  S   S473      1.0  0.97409  0.52802  0.71981  1.0000
  H   H2770     1.0  0.80038  0.43643  0.72565  1.0000
  C   C3474     1.0  0.77019  0.51544  0.62293  1.0000
  C   C3475     1.0  0.83524  0.56912  0.92182  1.0000
  H   H2771     1.0  0.77434  0.52350  0.60495  1.0000
  H   H2772     1.0  0.78417  0.39039  0.70585  1.0000
  H   H2773     1.0  0.76458  0.57729  0.63873  1.0000
  H   H2774     1.0  0.84974  0.55772  0.92330  1.0000
  C   C3476     1.0  0.85041  0.65075  0.93478  1.0000
  C   C3477     1.0  0.85819  0.63994  0.91163  1.0000
  C   C3478     1.0  0.84955  0.64655  0.88652  1.0000
  C   C3479     1.0  0.84223  0.53010  0.96591  1.0000
  C   C3480     1.0  0.87366  0.51490  0.48998  1.0000
  H   H2775     1.0  0.87118  0.62682  0.91300  1.0000
  H   H2776     1.0  0.85592  0.63834  0.86868  1.0000
  C   C3481     1.0  0.89666  0.64033  0.58781  1.0000
  H   H2777     1.0  0.80413  0.42718  0.48709  1.0000
  H   H2778     1.0  0.92558  0.60917  0.68801  1.0000
  C   C3482     1.0  0.99671  0.48858  0.57345  1.0000
  C   C3483     1.0  0.78728  0.43340  0.48323  1.0000
  C   C3484     1.0  0.77285  0.44095  0.75212  1.0000
  Fe  Fe243     1.0  0.76259  0.43564  0.88198  1.0000
  C   C3485     1.0  0.97432  0.56284  0.78784  1.0000
  H   H2779     1.0  0.86454  0.52665  0.50278  1.0000
  S   S474      1.0  0.96709  0.60421  0.49413  1.0000
  H   H2780     1.0  0.76934  0.36587  0.59288  1.0000
  S   S475      1.0  0.92671  0.55927  0.48884  1.0000
  H   H2781     1.0  0.00026  0.53196  0.87204  1.0000
  H   H2782     1.0  0.85373  0.52288  0.55072  1.0000
  C   C3486     1.0  0.82269  0.36430  0.54900  1.0000
  C   C3487     1.0  0.96870  0.61086  0.91200  1.0000
  C   C3488     1.0  0.87450  0.50707  0.95161  1.0000
  H   H2783     1.0  0.00844  0.61318  0.86469  1.0000
  H   H2784     1.0  0.85139  0.39746  0.80451  1.0000
  H   H2785     1.0  0.87185  0.62649  0.65431  1.0000
  C   C3489     1.0  0.01042  0.47614  0.55588  1.0000
  H   H2786     1.0  0.99423  0.51483  0.60207  1.0000
  C   C3490     1.0  0.99987  0.55532  0.55023  1.0000
  H   H2787     1.0  0.00094  0.53055  0.96512  1.0000
  C   C3491     1.0  0.90857  0.49769  0.47497  1.0000
  C   C3492     1.0  0.84434  0.61346  0.53963  1.0000
  C   C3493     1.0  0.84166  0.59310  0.55003  1.0000
  C   C3494     1.0  0.84144  0.59030  0.57758  1.0000
  C   C3495     1.0  0.84422  0.60776  0.59478  1.0000
  C   C3496     1.0  0.84705  0.62828  0.58452  1.0000
  C   C3497     1.0  0.84718  0.63096  0.55674  1.0000
  P   P116      1.0  0.85389  0.64989  0.60671  1.0000
  C   C3498     1.0  0.82972  0.37212  0.80447  1.0000
  C   C3499     1.0  0.84278  0.64554  0.63923  1.0000
  C   C3500     1.0  0.85541  0.63362  0.65861  1.0000
  C   C3501     1.0  0.84689  0.63059  0.68384  1.0000
  C   C3502     1.0  0.82541  0.63884  0.68968  1.0000
  P   P117      1.0  0.81529  0.54339  0.95820  1.0000
  H   H2788     1.0  0.97335  0.55479  0.52168  1.0000
  C   C3503     1.0  0.97834  0.56035  0.54117  1.0000
  C   C3504     1.0  0.98180  0.51394  0.89845  1.0000
  C   C3505     1.0  0.98031  0.57165  0.84229  1.0000
  H   H2789     1.0  0.84502  0.61552  0.51825  1.0000
  H   H2790     1.0  0.84064  0.57932  0.53673  1.0000
  H   H2791     1.0  0.84051  0.57427  0.58563  1.0000
  H   H2792     1.0  0.84533  0.60485  0.61600  1.0000
  H   H2793     1.0  0.85030  0.64633  0.54818  1.0000
  S   S476      1.0  0.77081  0.40926  0.60321  1.0000
  H   H2794     1.0  0.78155  0.56490  0.71940  1.0000
  H   H2795     1.0  0.83393  0.37382  0.94443  1.0000
  C   C3506     1.0  0.81347  0.36225  0.79041  1.0000
  Fe  Fe244     1.0  0.76210  0.43418  0.63511  1.0000
  C   C3507     1.0  0.79850  0.59957  0.91738  1.0000
  C   C3508     1.0  0.98740  0.53295  0.88674  1.0000
  C   C3509     1.0  0.95386  0.53491  0.92403  1.0000
  P   P118      1.0  0.78506  0.35682  0.74727  1.0000
  H   H2796     1.0  0.81877  0.63635  0.70919  1.0000
  H   H2797     1.0  0.83518  0.49591  0.52397  1.0000
  C   C3510     1.0  0.82069  0.35195  0.91629  1.0000
  C   C3511     1.0  0.80675  0.36933  0.76479  1.0000
  C   C3512     1.0  0.88350  0.64961  0.60854  1.0000
  H   H2798     1.0  0.78302  0.44078  0.76983  1.0000
  C   C3513     1.0  0.78930  0.48686  0.93943  1.0000
  C   C3514     1.0  0.00008  0.58598  0.71273  1.0000
  C   C3515     1.0  0.95969  0.57942  0.64567  1.0000
  H   H2799     1.0  0.76908  0.47934  0.90592  1.0000
  C   C3516     1.0  0.99257  0.54840  0.71791  1.0000
  C   C3517     1.0  0.99668  0.57529  0.82397  1.0000
  H   H2800     1.0  0.79566  0.65619  0.67447  1.0000
  H   H2801     1.0  0.80194  0.63996  0.82501  1.0000
  H   H2802     1.0  0.95819  0.59138  0.59306  1.0000
  C   C3518     1.0  0.76150  0.63245  0.61230  1.0000
  S   S477      1.0  0.78833  0.35977  0.85257  1.0000
  H   H2803     1.0  0.80564  0.39520  0.55986  1.0000
  H   H2804     1.0  0.78445  0.43005  0.94243  1.0000
  S   S478      1.0  0.78397  0.43685  0.53770  1.0000
  H   H2805     1.0  0.78353  0.58027  0.94582  1.0000
  C   C3519     1.0  0.81538  0.48718  0.55653  1.0000
  C   C3520     1.0  0.83088  0.49894  0.54463  1.0000
  C   C3521     1.0  0.84126  0.51417  0.55964  1.0000
  C   C3522     1.0  0.83609  0.51772  0.58648  1.0000
  C   C3523     1.0  0.82027  0.50626  0.59843  1.0000
  C   C3524     1.0  0.81025  0.49065  0.58341  1.0000
  P   P119      1.0  0.81513  0.50937  0.63359  1.0000
  C   C3525     1.0  0.83385  0.48891  0.64949  1.0000
  C   C3526     1.0  0.81864  0.53673  0.64432  1.0000
  C   C3527     1.0  0.82792  0.54093  0.66937  1.0000
  C   C3528     1.0  0.83021  0.56224  0.67746  1.0000
  C   C3529     1.0  0.82276  0.57951  0.66098  1.0000
  C   C3530     1.0  0.81280  0.57555  0.63646  1.0000
  C   C3531     1.0  0.81076  0.55424  0.62812  1.0000
  C   C3532     1.0  0.82773  0.46791  0.65307  1.0000
  C   C3533     1.0  0.84168  0.45239  0.66666  1.0000
  C   C3534     1.0  0.86218  0.45748  0.67587  1.0000
  C   C3535     1.0  0.86899  0.47787  0.67077  1.0000
  C   C3536     1.0  0.85501  0.49345  0.65731  1.0000
  C   C3537     1.0  0.78673  0.50643  0.64035  1.0000
  H   H2806     1.0  0.96023  0.56434  0.63458  1.0000
  H   H2807     1.0  0.95044  0.56925  0.91802  1.0000
  C   C3538     1.0  0.80072  0.50256  0.95209  1.0000
  C   C3539     1.0  0.77910  0.63581  0.59598  1.0000
  C   C3540     1.0  0.78080  0.49626  0.66366  1.0000
  H   H2808     1.0  0.81603  0.66384  0.57155  1.0000
  C   C3541     1.0  0.78582  0.37680  0.53423  1.0000
  C   C3542     1.0  0.82114  0.65362  0.64521  1.0000
  H   H2809     1.0  0.84476  0.52912  0.59799  1.0000
  H   H2810     1.0  0.79879  0.48085  0.59254  1.0000
  H   H2811     1.0  0.83358  0.52787  0.68273  1.0000
  H   H2812     1.0  0.83821  0.56536  0.69634  1.0000
  H   H2813     1.0  0.82497  0.59592  0.66711  1.0000
  H   H2814     1.0  0.80696  0.58902  0.62381  1.0000
  H   H2815     1.0  0.80315  0.55142  0.60897  1.0000
  H   H2816     1.0  0.81205  0.46353  0.64579  1.0000
  H   H2817     1.0  0.83638  0.43653  0.67036  1.0000
  H   H2818     1.0  0.87279  0.44572  0.68707  1.0000
  H   H2819     1.0  0.88488  0.48182  0.67801  1.0000
  H   H2820     1.0  0.86069  0.50908  0.65349  1.0000
  C   C3543     1.0  0.89373  0.65798  0.63111  1.0000
  C   C3544     1.0  0.80041  0.52340  0.94132  1.0000
  H   H2821     1.0  0.83726  0.36690  0.56060  1.0000
  C   C3545     1.0  0.81649  0.56649  0.93673  1.0000
  H   H2822     1.0  0.79309  0.48949  0.67777  1.0000
  C   C3546     1.0  0.00715  0.54380  0.64618  1.0000
  H   H2823     1.0  0.99405  0.60284  0.71022  1.0000
  H   H2824     1.0  0.76928  0.51568  0.88574  1.0000
  C   C3547     1.0  0.77333  0.43903  0.50476  1.0000
  C   C3548     1.0  0.00481  0.50532  0.58827  1.0000
  H   H2825     1.0  0.80580  0.34947  0.80003  1.0000
  Fe  Fe245     1.0  0.93293  0.59418  0.48784  1.0000
  C   C3549     1.0  0.83297  0.66387  0.88435  1.0000
  C   C3550     1.0  0.76723  0.36497  0.95576  1.0000
  C   C3551     1.0  0.80483  0.38018  0.54875  1.0000
  C   C3552     1.0  0.99125  0.57510  0.59148  1.0000
  C   C3553     1.0  0.78895  0.52809  0.91727  1.0000
  H   H2826     1.0  0.92916  0.57410  0.66361  1.0000
  C   C3554     1.0  0.96340  0.57325  0.55679  1.0000
  C   C3555     1.0  0.76779  0.37327  0.93000  1.0000
  H   H2827     1.0  0.76555  0.37286  0.79740  1.0000
  C   C3556     1.0  0.78924  0.55479  0.73503  1.0000
  C   C3557     1.0  0.79871  0.53388  0.72903  1.0000
  C   C3558     1.0  0.80941  0.52119  0.74900  1.0000
  C   C3559     1.0  0.81019  0.52910  0.77518  1.0000
  C   C3560     1.0  0.80002  0.54984  0.78160  1.0000
  C   C3561     1.0  0.79004  0.56281  0.76117  1.0000
  P   P120      1.0  0.80045  0.56052  0.81528  1.0000
  C   C3562     1.0  0.81466  0.54104  0.83747  1.0000
  C   C3563     1.0  0.81314  0.58555  0.81394  1.0000
  C   C3564     1.0  0.83441  0.58561  0.80390  1.0000
  C   C3565     1.0  0.84392  0.60513  0.80200  1.0000
  C   C3566     1.0  0.83236  0.62463  0.80997  1.0000
  C   C3567     1.0  0.81102  0.62475  0.81930  1.0000
  C   C3568     1.0  0.80140  0.60536  0.82124  1.0000
  C   C3569     1.0  0.83421  0.54503  0.85075  1.0000
  C   C3570     1.0  0.84465  0.52941  0.86781  1.0000
  C   C3571     1.0  0.83566  0.50987  0.87172  1.0000
  C   C3572     1.0  0.81591  0.50615  0.85922  1.0000
  C   C3573     1.0  0.80544  0.52162  0.84216  1.0000
  C   C3574     1.0  0.77332  0.56592  0.82894  1.0000
  C   C3575     1.0  0.78657  0.62013  0.57713  1.0000
  H   H2828     1.0  0.92440  0.66239  0.65102  1.0000
  C   C3576     1.0  0.77771  0.49170  0.91576  1.0000
  H   H2829     1.0  0.94388  0.60121  0.85233  1.0000
  H   H2830     1.0  0.78292  0.57916  0.76550  1.0000
  H   H2831     1.0  0.78357  0.63228  0.96182  1.0000
  H   H2832     1.0  0.79816  0.52758  0.70886  1.0000
  H   H2833     1.0  0.81751  0.50529  0.74410  1.0000
  H   H2834     1.0  0.81909  0.51903  0.79003  1.0000
  H   H2835     1.0  0.85689  0.62137  0.69863  1.0000
  H   H2836     1.0  0.84373  0.57064  0.79765  1.0000
  H   H2837     1.0  0.86034  0.60521  0.79440  1.0000
  H   H2838     1.0  0.83994  0.63969  0.80894  1.0000
  H   H2839     1.0  0.83426  0.36687  0.82450  1.0000
  C   C3577     1.0  0.99363  0.57090  0.79680  1.0000
  H   H2840     1.0  0.84166  0.55994  0.84793  1.0000
  H   H2841     1.0  0.85991  0.53228  0.87770  1.0000
  H   H2842     1.0  0.84418  0.49734  0.88400  1.0000
  H   H2843     1.0  0.80899  0.49098  0.86232  1.0000
  H   H2844     1.0  0.83972  0.41042  0.75955  1.0000
  C   C3578     1.0  0.86809  0.41806  0.48061  1.0000
  H   H2845     1.0  0.94309  0.55298  0.79904  1.0000
  S   S479      1.0  0.79122  0.41583  0.81591  1.0000
  C   C3579     1.0  0.96501  0.51492  0.91708  1.0000
  C   C3580     1.0  0.95472  0.62885  0.92025  1.0000
  C   C3581     1.0  0.81722  0.60206  0.90261  1.0000
  H   H2846     1.0  0.84979  0.39011  0.47984  1.0000
  S   S480      1.0  0.87480  0.57533  0.47844  1.0000
  C   C3582     1.0  0.95605  0.61890  0.67340  1.0000
  C   C3583     1.0  0.98587  0.56680  0.46953  1.0000
  C   C3584     1.0  0.93967  0.60492  0.67548  1.0000
  C   C3585     1.0  0.95813  0.55901  0.80597  1.0000
  C   C3586     1.0  0.76978  0.43930  0.70368  1.0000
  S   S481      1.0  0.85884  0.63768  0.47292  1.0000
  H   H2847     1.0  0.88362  0.49824  0.93588  1.0000
  H   H2848     1.0  0.94059  0.53560  0.93810  1.0000
  C   C3587     1.0  0.94158  0.58518  0.66167  1.0000
  H   H2849     1.0  0.78964  0.47082  0.94783  1.0000
  H   H2850     1.0  0.78208  0.58899  0.55967  1.0000
  C   C3588     1.0  0.97438  0.61308  0.65758  1.0000
  H   H2851     1.0  0.98682  0.62417  0.65660  1.0000
  H   H2852     1.0  0.98989  0.54257  0.64327  1.0000
  C   C3589     1.0  0.92952  0.64657  0.61290  1.0000
  C   C3590     1.0  0.91662  0.65633  0.63332  1.0000
  C   C3591     1.0  0.83353  0.66776  0.93265  1.0000
  C   C3592     1.0  0.95951  0.55400  0.91253  1.0000
  H   H2853     1.0  0.77220  0.38936  0.53450  1.0000
  P   P121      1.0  0.98331  0.57727  0.87750  1.0000
  C   C3593     1.0  0.97652  0.59312  0.64375  1.0000
  H   H2854     1.0  0.76517  0.49481  0.73143  1.0000
  C   C3594     1.0  0.96512  0.60065  0.88745  1.0000
  Fe  Fe246     1.0  0.78091  0.39623  0.85010  1.0000
  C   C3595     1.0  0.77762  0.51226  0.90461  1.0000
  C   C3596     1.0  0.79254  0.37384  0.66926  1.0000
  C   C3597     1.0  0.80284  0.34178  0.51951  1.0000
  H   H2855     1.0  0.97983  0.48517  0.57576  1.0000
  C   C3598     1.0  0.82662  0.34424  0.96312  1.0000
  C   C3599     1.0  0.91953  0.63874  0.59007  1.0000
  H   H2856     1.0  0.91932  0.63251  0.86733  1.0000
  S   S482      1.0  0.78284  0.43605  0.67250  1.0000
  C   C3600     1.0  0.85375  0.51769  0.94613  1.0000
  H   H2857     1.0  0.81154  0.39318  0.73455  1.0000
  C   C3601     1.0  0.77119  0.57263  0.85570  1.0000
  H   H2858     1.0  0.94691  0.57768  0.54928  1.0000
  H   H2859     1.0  0.94834  0.56013  0.84680  1.0000
  C   C3602     1.0  0.89653  0.51229  0.49184  1.0000
  C   C3603     1.0  0.93696  0.63669  0.90415  1.0000
  C   C3604     1.0  0.79813  0.58191  0.93443  1.0000
  C   C3605     1.0  0.96115  0.56320  0.83306  1.0000
  H   H2860     1.0  0.78908  0.54368  0.90789  1.0000
  H   H2861     1.0  0.84692  0.51661  0.92628  1.0000
  C   C3606     1.0  0.96988  0.58088  0.58171  1.0000
  H   H2862     1.0  0.78651  0.65091  0.59759  1.0000
  H   H2863     1.0  0.77981  0.66615  0.92884  1.0000
  H   H2864     1.0  0.96046  0.50020  0.92596  1.0000
  H   H2865     1.0  0.80002  0.62298  0.56427  1.0000
  H   H2866     1.0  0.88316  0.44762  0.47727  1.0000
  C   C3607     1.0  0.76341  0.35026  0.59510  1.0000
  H   H2867     1.0  0.78259  0.37915  0.92266  1.0000
  Fe  Fe247     1.0  0.88463  0.60926  0.47814  1.0000
  C   C3608     1.0  0.98932  0.58603  0.48314  1.0000
  C   C3609     1.0  0.76715  0.65796  0.91878  1.0000
  H   H2868     1.0  0.97184  0.55951  0.76686  1.0000
  C   C3610     1.0  0.76784  0.34193  0.84778  1.0000
  H   H2869     1.0  0.92951  0.63122  0.57415  1.0000
  H   H2870     1.0  0.78472  0.65445  0.88188  1.0000
  H   H2871     1.0  0.95742  0.63636  0.93946  1.0000
  C   C3611     1.0  0.78855  0.37469  0.69660  1.0000
  C   C3612     1.0  0.81244  0.65006  0.67021  1.0000
  H   H2872     1.0  0.88406  0.66538  0.64730  1.0000
  H   H2873     1.0  0.78439  0.61145  0.91582  1.0000
  C   C3613     1.0  0.00634  0.56272  0.57527  1.0000
  H   H2874     1.0  0.78475  0.60618  0.82816  1.0000
  H   H2875     1.0  0.82139  0.36273  0.89949  1.0000
  C   C3614     1.0  0.76997  0.65131  0.89228  1.0000
  H   H2876     1.0  0.99037  0.49844  0.89289  1.0000
  C   C3615     1.0  0.79726  0.35387  0.65641  1.0000
  C   C3616     1.0  0.77634  0.60104  0.57446  1.0000
  P   P122      1.0  0.00023  0.58507  0.62336  1.0000
  H   H2877     1.0  0.77314  0.49889  0.77950  1.0000
  H   H2878     1.0  0.77044  0.54723  0.67035  1.0000
  Fe  Fe248     1.0  0.76184  0.43571  0.57355  1.0000
  H   H2879     1.0  0.94725  0.64506  0.61475  1.0000
  S   S483      1.0  0.86167  0.64397  0.96661  1.0000
  H   H2880     1.0  0.87751  0.41297  0.49828  1.0000
  H   H2881     1.0  0.92587  0.65035  0.91081  1.0000
  H   H2882     1.0  0.84504  0.50485  0.47040  1.0000
  H   H2883     1.0  0.81090  0.66282  0.63076  1.0000
  C   C3617     1.0  0.78964  0.35554  0.71157  1.0000
  C   C3618     1.0  0.82172  0.34511  0.53434  1.0000
  H   H2884     1.0  0.79936  0.35890  0.46847  1.0000
  H   H2885     1.0  0.98214  0.60474  0.92500  1.0000
  C   C3619     1.0  0.86274  0.50259  0.47152  1.0000
  S   S484      1.0  0.82279  0.67193  0.85239  1.0000
  C   C3620     1.0  0.85252  0.40514  0.47018  1.0000
  C   C3621     1.0  0.87127  0.43775  0.46857  1.0000
  H   H2886     1.0  0.77048  0.76893  0.98997  1.0000
  H   H2887     1.0  0.84997  0.98457  0.10560  1.0000
  S   S485      1.0  0.78549  0.75770  0.33011  1.0000
  S   S486      1.0  0.78203  0.70632  0.37384  1.0000
  C   C3622     1.0  0.81099  0.68574  0.06536  1.0000
  H   H2888     1.0  0.77085  0.70463  0.25419  1.0000
  H   H2889     1.0  0.81864  0.81412  0.09451  1.0000
  S   S487      1.0  0.76564  0.70234  0.02264  1.0000
  S   S488      1.0  0.78492  0.90344  0.12478  1.0000
  H   H2890     1.0  0.80434  0.85769  0.23696  1.0000
  H   H2891     1.0  0.89244  0.96338  0.11549  1.0000
  S   S489      1.0  0.78626  0.91059  0.05998  1.0000
  C   C3623     1.0  0.80244  0.97462  0.25770  1.0000
  Fe  Fe249     1.0  0.77332  0.88664  0.08776  1.0000
  S   S490      1.0  0.77976  0.85034  0.08030  1.0000
  Fe  Fe250     1.0  0.79411  0.92938  0.09718  1.0000
  S   S491      1.0  0.82329  0.94940  0.09869  1.0000
  C   C3624     1.0  0.78130  0.00178  0.10526  1.0000
  H   H2892     1.0  0.81036  0.74488  0.37507  1.0000
  C   C3625     1.0  0.90832  0.97871  0.08377  1.0000
  C   C3626     1.0  0.83636  0.94190  0.26919  1.0000
  C   C3627     1.0  0.82447  0.96311  0.03222  1.0000
  H   H2893     1.0  0.98138  0.99664  0.16672  1.0000
  H   H2894     1.0  0.79955  0.83588  0.12981  1.0000
  C   C3628     1.0  0.91889  0.98077  0.13026  1.0000
  C   C3629     1.0  0.00222  0.99740  0.25874  1.0000
  H   H2895     1.0  0.83384  0.73479  0.30616  1.0000
  C   C3630     1.0  0.81492  0.80045  0.25797  1.0000
  H   H2896     1.0  0.84941  0.92930  0.27362  1.0000
  H   H2897     1.0  0.83783  0.91044  0.20939  1.0000
  H   H2898     1.0  0.92659  0.99587  0.05644  1.0000
  C   C3631     1.0  0.85068  0.98961  0.02870  1.0000
  C   C3632     1.0  0.77925  0.77260  0.41135  1.0000
  C   C3633     1.0  0.87026  0.67979  0.29956  1.0000
  H   H2899     1.0  0.86409  0.71703  0.44429  1.0000
  H   H2900     1.0  0.79560  0.96813  0.00773  1.0000
  C   C3634     1.0  0.99727  0.98844  0.17210  1.0000
  C   C3635     1.0  0.81408  0.81624  0.16219  1.0000
  H   H2901     1.0  0.77576  0.92384  0.17780  1.0000
  H   H2902     1.0  0.79191  0.91900  0.22320  1.0000
  C   C3636     1.0  0.81075  0.97455  0.01366  1.0000
  C   C3637     1.0  0.77878  0.86683  0.98150  1.0000
  C   C3638     1.0  0.84427  0.97079  0.04005  1.0000
  H   H2903     1.0  0.97699  0.97400  0.11394  1.0000
  C   C3639     1.0  0.76507  0.77977  0.33176  1.0000
  S   S492      1.0  0.77272  0.91086  0.27382  1.0000
  H   H2904     1.0  0.79530  0.71882  0.11767  1.0000
  C   C3640     1.0  0.82230  0.73918  0.39009  1.0000
  H   H2905     1.0  0.77653  0.93205  0.00675  1.0000
  C   C3641     1.0  0.93013  0.67615  0.24484  1.0000
  H   H2906     1.0  0.81241  0.68638  0.04387  1.0000
  H   H2907     1.0  0.86197  0.00436  0.41475  1.0000
  C   C3642     1.0  0.83349  0.96153  0.12779  1.0000
  C   C3643     1.0  0.82958  0.95387  0.15319  1.0000
  C   C3644     1.0  0.83979  0.96250  0.17566  1.0000
  C   C3645     1.0  0.85356  0.97919  0.17309  1.0000
  C   C3646     1.0  0.85677  0.98742  0.14775  1.0000
  C   C3647     1.0  0.84689  0.97852  0.12520  1.0000
  H   H2908     1.0  0.81936  0.94076  0.15544  1.0000
  H   H2909     1.0  0.83729  0.95587  0.19505  1.0000
  H   H2910     1.0  0.83254  0.70973  0.36830  1.0000
  H   H2911     1.0  0.80772  0.85317  0.39201  1.0000
  H   H2912     1.0  0.79516  0.97510  0.20033  1.0000
  H   H2913     1.0  0.83030  0.82116  0.23155  1.0000
  H   H2914     1.0  0.79052  0.98701  0.11225  1.0000
  C   C3648     1.0  0.82471  0.79830  0.46232  1.0000
  H   H2915     1.0  0.82861  0.84441  0.35070  1.0000
  C   C3649     1.0  0.82155  0.80955  0.11517  1.0000
  H   H2916     1.0  0.90780  0.69010  0.27434  1.0000
  H   H2917     1.0  0.85589  0.95893  0.24272  1.0000
  H   H2918     1.0  0.78124  0.80431  0.07428  1.0000
  C   C3650     1.0  0.76733  0.69243  0.46707  1.0000
  C   C3651     1.0  0.76870  0.90590  0.46087  1.0000
  C   C3652     1.0  0.79641  0.78973  0.26286  1.0000
  H   H2919     1.0  0.83561  0.80481  0.44837  1.0000
  H   H2920     1.0  0.82871  0.79875  0.27178  1.0000
  C   C3653     1.0  0.82112  0.86764  0.17417  1.0000
  C   C3654     1.0  0.82849  0.79789  0.16855  1.0000
  H   H2921     1.0  0.78833  0.80325  0.33780  1.0000
  C   C3655     1.0  0.81212  0.86526  0.22081  1.0000
  H   H2922     1.0  0.82425  0.70734  0.27287  1.0000
  C   C3656     1.0  0.77120  0.80079  0.33558  1.0000
  H   H2923     1.0  0.83128  0.79294  0.18899  1.0000
  C   C3657     1.0  0.77868  0.79172  0.24498  1.0000
  H   H2924     1.0  0.76945  0.80584  0.39944  1.0000
  C   C3658     1.0  0.93861  0.99917  0.09704  1.0000
  H   H2925     1.0  0.86616  0.99547  0.03445  1.0000
  H   H2926     1.0  0.94578  0.99940  0.13940  1.0000
  S   S493      1.0  0.78891  0.69698  0.30984  1.0000
  C   C3659     1.0  0.86308  0.71559  0.31992  1.0000
  C   C3660     1.0  0.83928  0.78547  0.14831  1.0000
  C   C3661     1.0  0.82179  0.88438  0.22610  1.0000
  C   C3662     1.0  0.77200  0.83943  0.17419  1.0000
  H   H2927     1.0  0.91626  0.97685  0.15091  1.0000
  C   C3663     1.0  0.81206  0.85647  0.19487  1.0000
  H   H2928     1.0  0.83235  0.77665  0.36853  1.0000
  H   H2929     1.0  0.78501  0.89876  0.45608  1.0000
  C   C3664     1.0  0.79769  0.81581  0.21750  1.0000
  C   C3665     1.0  0.87620  0.69585  0.31750  1.0000
  C   C3666     1.0  0.80334  0.70458  0.07925  1.0000
  H   H2930     1.0  0.86736  0.72764  0.33437  1.0000
  C   C3667     1.0  0.84737  0.98677  0.44569  1.0000
  H   H2931     1.0  0.78263  0.73855  0.42187  1.0000
  H   H2932     1.0  0.78330  0.95688  0.28441  1.0000
  C   C3668     1.0  0.83580  0.79129  0.12163  1.0000
  H   H2933     1.0  0.85023  0.77123  0.15328  1.0000
  C   C3669     1.0  0.77767  0.97965  0.19910  1.0000
  H   H2934     1.0  0.82627  0.98741  0.23220  1.0000
  C   C3670     1.0  0.84429  0.71968  0.30396  1.0000
  H   H2935     1.0  0.76514  0.80623  0.20921  1.0000
  H   H2936     1.0  0.76850  0.80724  0.15833  1.0000
  H   H2937     1.0  0.76980  0.83832  0.45186  1.0000
  H   H2938     1.0  0.77039  0.87348  0.18565  1.0000
  Fe  Fe251     1.0  0.79349  0.67808  0.34774  1.0000
  P   P123      1.0  0.79910  0.83199  0.18780  1.0000
  C   C3671     1.0  0.81588  0.94154  0.28086  1.0000
  C   C3672     1.0  0.77924  0.80474  0.22244  1.0000
  C   C3673     1.0  0.83998  0.95854  0.25178  1.0000
  C   C3674     1.0  0.83094  0.89526  0.20542  1.0000
  C   C3675     1.0  0.81567  0.81325  0.23526  1.0000
  H   H2939     1.0  0.93553  0.69162  0.23945  1.0000
  C   C3676     1.0  0.98955  0.97896  0.10109  1.0000
  H   H2940     1.0  0.86739  0.00020  0.14544  1.0000
  H   H2941     1.0  0.82062  0.86178  0.15381  1.0000
  C   C3677     1.0  0.83488  0.71930  0.38618  1.0000
  C   C3678     1.0  0.79898  0.95779  0.27517  1.0000
  H   H2942     1.0  0.81965  0.94834  0.04078  1.0000
  H   H2943     1.0  0.84402  0.78161  0.10592  1.0000
  H   H2944     1.0  0.89760  0.97312  0.06837  1.0000
  C   C3679     1.0  0.82731  0.79322  0.37435  1.0000
  C   C3680     1.0  0.82522  0.83151  0.36397  1.0000
  C   C3681     1.0  0.81555  0.79802  0.39786  1.0000
  H   H2945     1.0  0.81312  0.67746  0.40523  1.0000
  H   H2946     1.0  0.83704  0.89570  0.16327  1.0000
  C   C3682     1.0  0.83878  0.70414  0.28533  1.0000
  C   C3683     1.0  0.91440  0.67522  0.26464  1.0000
  C   C3684     1.0  0.83221  0.80992  0.35758  1.0000
  H   H2947     1.0  0.79933  0.82388  0.42190  1.0000
  H   H2948     1.0  0.84663  0.67220  0.26922  1.0000
  P   P124      1.0  0.80757  0.77660  0.41880  1.0000
  Fe  Fe252     1.0  0.77434  0.72433  0.33573  1.0000
  C   C3685     1.0  0.76520  0.92318  0.19475  1.0000
  C   C3686     1.0  0.83047  0.88696  0.17945  1.0000
  C   C3687     1.0  0.77578  0.85087  0.00019  1.0000
  H   H2949     1.0  0.84102  0.80607  0.33930  1.0000
  H   H2950     1.0  0.77663  0.84648  0.27032  1.0000
  C   C3688     1.0  0.85259  0.72339  0.42903  1.0000
  C   C3689     1.0  0.90536  0.97327  0.11032  1.0000
  H   H2951     1.0  0.79578  0.77983  0.28049  1.0000
  H   H2952     1.0  0.89080  0.69304  0.32986  1.0000
  C   C3690     1.0  0.82469  0.75134  0.41353  1.0000
  H   H2953     1.0  0.78533  0.76346  0.46641  1.0000
  C   C3691     1.0  0.81667  0.99394  0.00293  1.0000
  H   H2954     1.0  0.81289  0.92855  0.29420  1.0000
  H   H2955     1.0  0.85458  0.96205  0.05491  1.0000
  C   C3692     1.0  0.80943  0.78423  0.45358  1.0000
  C   C3693     1.0  0.92485  0.99163  0.07711  1.0000
  C   C3694     1.0  0.93549  0.99365  0.12367  1.0000
  C   C3695     1.0  0.81074  0.82194  0.13532  1.0000
  H   H2956     1.0  0.82133  0.89128  0.24608  1.0000
  C   C3696     1.0  0.82309  0.97475  0.24592  1.0000
  H   H2957     1.0  0.96743  0.00223  0.03249  1.0000
  C   C3697     1.0  0.99858  0.96951  0.18710  1.0000
  H   H2958     1.0  0.77039  0.68908  0.42444  1.0000
  H   H2959     1.0  0.78728  0.70116  0.97222  1.0000
  H   H2960     1.0  0.78465  0.88201  0.98793  1.0000
  C   C3698     1.0  0.76626  0.97460  0.17589  1.0000
  C   C3699     1.0  0.85156  0.68419  0.28330  1.0000
  S   S494      1.0  0.86711  0.98855  0.20180  1.0000
  C   C3700     1.0  0.77438  0.92021  0.22047  1.0000
  C   C3701     1.0  0.80733  0.68505  0.12079  1.0000
  C   C3702     1.0  0.84992  0.71134  0.40571  1.0000
  C   C3703     1.0  0.77084  0.00350  0.98408  1.0000
  H   H2961     1.0  0.79860  0.71938  0.06839  1.0000
  C   C3704     1.0  0.76105  0.82378  0.16040  1.0000
  C   C3705     1.0  0.76640  0.98995  0.22068  1.0000
  C   C3706     1.0  0.84015  0.74338  0.43290  1.0000
  H   H2962     1.0  0.98367  0.96288  0.19296  1.0000
  H   H2963     1.0  0.84496  0.97293  0.43299  1.0000
  H   H2964     1.0  0.85921  0.69564  0.40297  1.0000
  C   C3707     1.0  0.81351  0.83644  0.38730  1.0000
  C   C3708     1.0  0.83711  0.00097  0.00987  1.0000
  C   C3709     1.0  0.77173  0.75214  0.41465  1.0000
  C   C3710     1.0  0.80881  0.81980  0.40423  1.0000
  H   H2965     1.0  0.99219  0.99230  0.24232  1.0000
  P   P125      1.0  0.78108  0.99630  0.25083  1.0000
  H   H2966     1.0  0.77928  0.71901  0.20990  1.0000
  H   H2967     1.0  0.92073  0.68160  0.12772  1.0000
  S   S495      1.0  0.76189  0.71276  0.15736  1.0000
  C   C3711     1.0  0.85698  0.00439  0.43541  1.0000
  C   C3712     1.0  0.00285  0.00411  0.07006  1.0000
  C   C3713     1.0  0.80146  0.70424  0.10693  1.0000
  H   H2968     1.0  0.84242  0.75227  0.45123  1.0000
  H   H2969     1.0  0.80564  0.68491  0.14227  1.0000
  C   C3714     1.0  0.76279  0.00322  0.01014  1.0000
  C   C3715     1.0  0.98590  0.99796  0.08599  1.0000
  H   H2970     1.0  0.80064  0.74017  0.98313  1.0000
  C   C3716     1.0  0.76692  0.70782  0.21148  1.0000
  C   C3717     1.0  0.76527  0.93394  0.98999  1.0000
  H   H2971     1.0  0.77489  0.96591  0.15969  1.0000
  C   C3718     1.0  0.76779  0.83145  0.99203  1.0000
  H   H2972     1.0  0.77950  0.85360  0.02109  1.0000
  C   C3719     1.0  0.77908  0.76809  0.97122  1.0000
  C   C3720     1.0  0.76220  0.69965  0.23662  1.0000
  H   H2973     1.0  0.80488  0.85440  0.45643  1.0000
  C   C3721     1.0  0.76440  0.78988  0.40242  1.0000
  H   H2974     1.0  0.76466  0.87484  0.23737  1.0000
  H   H2975     1.0  0.76566  0.81925  0.00683  1.0000
  C   C3722     1.0  0.76207  0.99905  0.27828  1.0000
  C   C3723     1.0  0.76428  0.81040  0.07717  1.0000
  C   C3724     1.0  0.00970  0.96620  0.09992  1.0000
  S   S496      1.0  0.76175  0.90592  0.40668  1.0000
  H   H2976     1.0  0.76437  0.78334  0.24884  1.0000
  C   C3725     1.0  0.76226  0.86091  0.17561  1.0000
  C   C3726     1.0  0.76092  0.91852  0.24257  1.0000
  C   C3727     1.0  0.76993  0.70523  0.96854  1.0000
  S   S497      1.0  0.76117  0.94867  0.09775  1.0000
  Fe  Fe253     1.0  0.78334  0.74845  0.84546  1.0000
  H   H2977     1.0  0.80083  0.83342  0.76408  1.0000
  S   S498      1.0  0.79467  0.78182  0.85077  1.0000
  S   S499      1.0  0.78835  0.72486  0.87906  1.0000
  H   H2978     1.0  0.82101  0.73767  0.94056  1.0000
  C   C3728     1.0  0.76498  0.80253  0.67096  1.0000
  C   C3729     1.0  0.77179  0.87584  0.76368  1.0000
  H   H2979     1.0  0.85612  0.92533  0.69238  1.0000
  S   S500      1.0  0.78870  0.89971  0.62965  1.0000
  C   C3730     1.0  0.77433  0.86314  0.95452  1.0000
  C   C3731     1.0  0.77332  0.93258  0.96383  1.0000
  S   S501      1.0  0.79088  0.90135  0.56427  1.0000
  C   C3732     1.0  0.88752  0.97946  0.84571  1.0000
  Fe  Fe254     1.0  0.77880  0.87915  0.59501  1.0000
  S   S502      1.0  0.78690  0.84246  0.59405  1.0000
  Fe  Fe255     1.0  0.79687  0.92375  0.59900  1.0000
  S   S503      1.0  0.82561  0.94447  0.60011  1.0000
  H   H2980     1.0  0.83806  0.95936  0.54324  1.0000
  H   H2981     1.0  0.76251  0.85677  0.86396  1.0000
  C   C3733     1.0  0.80463  0.97887  0.93713  1.0000
  C   C3734     1.0  0.87059  0.95168  0.55863  1.0000
  H   H2982     1.0  0.91679  0.00195  0.78917  1.0000
  H   H2983     1.0  0.78776  0.68640  0.70302  1.0000
  C   C3735     1.0  0.79725  0.80220  0.78057  1.0000
  C   C3736     1.0  0.89124  0.95883  0.56316  1.0000
  H   H2984     1.0  0.97739  0.00464  0.89927  1.0000
  C   C3737     1.0  0.77154  0.80234  0.59290  1.0000
  C   C3738     1.0  0.80407  0.85591  0.49928  1.0000
  S   S504      1.0  0.76301  0.94119  0.59673  1.0000
  C   C3739     1.0  0.85773  0.98637  0.53895  1.0000
  H   H2985     1.0  0.83544  0.68908  0.68033  1.0000
  H   H2986     1.0  0.80771  0.70566  0.64811  1.0000
  H   H2987     1.0  0.83756  0.97474  0.88302  1.0000
  H   H2988     1.0  0.85788  0.82361  0.63389  1.0000
  C   C3740     1.0  0.77814  0.92745  0.72097  1.0000
  C   C3741     1.0  0.81242  0.79561  0.50776  1.0000
  H   H2989     1.0  0.80030  0.78987  0.63777  1.0000
  H   H2990     1.0  0.81060  0.95464  0.90631  1.0000
  H   H2991     1.0  0.77887  0.92378  0.67818  1.0000
  H   H2992     1.0  0.79575  0.92656  0.72312  1.0000
  H   H2993     1.0  0.78487  0.69044  0.47069  1.0000
  H   H2994     1.0  0.79805  0.69978  0.56011  1.0000
  H   H2995     1.0  0.81324  0.80031  0.52861  1.0000
  H   H2996     1.0  0.84517  0.73008  0.60798  1.0000
  S   S505      1.0  0.76398  0.69543  0.52139  1.0000
  H   H2997     1.0  0.77841  0.69758  0.74949  1.0000
  C   C3742     1.0  0.80973  0.99896  0.94732  1.0000
  S   S506      1.0  0.76337  0.69079  0.65315  1.0000
  C   C3743     1.0  0.85562  0.98700  0.64723  1.0000
  H   H2998     1.0  0.83252  0.74886  0.72458  1.0000
  Fe  Fe256     1.0  0.79599  0.69967  0.84735  1.0000
  C   C3744     1.0  0.82289  0.67804  0.57938  1.0000
  C   C3745     1.0  0.83340  0.95967  0.62828  1.0000
  C   C3746     1.0  0.84876  0.97486  0.62524  1.0000
  H   H2999     1.0  0.79220  0.74356  0.65396  1.0000
  H   H3000     1.0  0.90402  0.94832  0.57296  1.0000
  C   C3747     1.0  0.83154  0.96912  0.67549  1.0000
  C   C3748     1.0  0.82483  0.95685  0.65356  1.0000
  H   H3001     1.0  0.85550  0.97720  0.60581  1.0000
  H   H3002     1.0  0.79343  0.96952  0.94748  1.0000
  H   H3003     1.0  0.82479  0.96679  0.69494  1.0000
  H   H3004     1.0  0.81310  0.94516  0.65626  1.0000
  C   C3749     1.0  0.82614  0.80398  0.48932  1.0000
  H   H3005     1.0  0.84758  0.71074  0.71860  1.0000
  C   C3750     1.0  0.89532  0.97956  0.55515  1.0000
  H   H3006     1.0  0.84176  0.79449  0.70737  1.0000
  H   H3007     1.0  0.79289  0.76950  0.79149  1.0000
  C   C3751     1.0  0.80785  0.75046  0.94360  1.0000
  C   C3752     1.0  0.90856  0.97066  0.83870  1.0000
  H   H3008     1.0  0.77692  0.87545  0.94001  1.0000
  H   H3009     1.0  0.78861  0.79607  0.59195  1.0000
  H   H3010     1.0  0.81942  0.86308  0.50127  1.0000
  H   H3011     1.0  0.81122  0.76459  0.90496  1.0000
  H   H3012     1.0  0.87486  0.95455  0.71407  1.0000
  H   H3013     1.0  0.78080  0.79318  0.91117  1.0000
  C   C3753     1.0  0.79616  0.77251  0.74891  1.0000
  C   C3754     1.0  0.81247  0.69847  0.57298  1.0000
  C   C3755     1.0  0.83904  0.71554  0.59987  1.0000
  H   H3014     1.0  0.79111  0.82580  0.87018  1.0000
  S   S507      1.0  0.85586  0.99824  0.70111  1.0000
  H   H3015     1.0  0.92282  0.97718  0.84743  1.0000
  S   S508      1.0  0.76110  0.69205  0.84102  1.0000
  C   C3756     1.0  0.77675  0.82379  0.85800  1.0000
  H   H3016     1.0  0.88548  0.99295  0.85972  1.0000
  C   C3757     1.0  0.81445  0.97032  0.91382  1.0000
  C   C3758     1.0  0.79940  0.78660  0.72793  1.0000
  C   C3759     1.0  0.87867  0.99321  0.54293  1.0000
  H   H3017     1.0  0.86762  0.99844  0.64463  1.0000
  H   H3018     1.0  0.83431  0.97283  0.48029  1.0000
  H   H3019     1.0  0.91132  0.98517  0.55850  1.0000
  H   H3020     1.0  0.79296  0.86674  0.70180  1.0000
  C   C3760     1.0  0.82867  0.70577  0.68296  1.0000
  H   H3021     1.0  0.77531  0.90653  0.50334  1.0000
  H   H3022     1.0  0.77355  0.70757  0.92609  1.0000
  S   S509      1.0  0.77020  0.93523  0.90937  1.0000
  C   C3761     1.0  0.85391  0.96531  0.54640  1.0000
  C   C3762     1.0  0.84115  0.98688  0.47243  1.0000
  H   H3023     1.0  0.86725  0.93573  0.56513  1.0000
  H   H3024     1.0  0.79889  0.85513  0.54159  1.0000
  S   S510      1.0  0.77746  0.93110  0.77559  1.0000
  H   H3025     1.0  0.77033  0.99679  0.82375  1.0000
  C   C3763     1.0  0.84192  0.91550  0.72883  1.0000
  H   H3026     1.0  0.86649  0.81501  0.68134  1.0000
  C   C3764     1.0  0.86540  0.94445  0.72598  1.0000
  C   C3765     1.0  0.86322  0.94843  0.75334  1.0000
  C   C3766     1.0  0.85088  0.93548  0.76887  1.0000
  C   C3767     1.0  0.83980  0.91932  0.75626  1.0000
  P   P126      1.0  0.84795  0.94067  0.80426  1.0000
  C   C3768     1.0  0.84585  0.91515  0.82093  1.0000
  C   C3769     1.0  0.87161  0.95305  0.81702  1.0000
  C   C3770     1.0  0.89284  0.94471  0.80955  1.0000
  C   C3771     1.0  0.91121  0.95348  0.82037  1.0000
  C   C3772     1.0  0.86910  0.97083  0.83476  1.0000
  C   C3773     1.0  0.86418  0.90389  0.83349  1.0000
  C   C3774     1.0  0.86234  0.88401  0.84579  1.0000
  C   C3775     1.0  0.84228  0.87514  0.84561  1.0000
  C   C3776     1.0  0.82399  0.88619  0.83323  1.0000
  C   C3777     1.0  0.82569  0.90616  0.82112  1.0000
  C   C3778     1.0  0.82331  0.95848  0.81021  1.0000
  C   C3779     1.0  0.81359  0.95913  0.83543  1.0000
  C   C3780     1.0  0.79480  0.97322  0.84044  1.0000
  H   H3027     1.0  0.78342  0.97677  0.64577  1.0000
  C   C3781     1.0  0.82048  0.71720  0.58325  1.0000
  C   C3782     1.0  0.81380  0.97193  0.78998  1.0000
  C   C3783     1.0  0.79773  0.78104  0.49934  1.0000
  H   H3028     1.0  0.91972  0.98791  0.93787  1.0000
  H   H3029     1.0  0.78741  0.77418  0.51371  1.0000
  H   H3030     1.0  0.87095  0.96181  0.76214  1.0000
  H   H3031     1.0  0.82921  0.90989  0.76736  1.0000
  H   H3032     1.0  0.89517  0.93121  0.79561  1.0000
  H   H3033     1.0  0.85301  0.97811  0.84019  1.0000
  H   H3034     1.0  0.87992  0.91027  0.83394  1.0000
  H   H3035     1.0  0.87651  0.87542  0.85547  1.0000
  H   H3036     1.0  0.84085  0.85971  0.85509  1.0000
  H   H3037     1.0  0.80846  0.87923  0.83305  1.0000
  H   H3038     1.0  0.81126  0.91451  0.81177  1.0000
  H   H3039     1.0  0.82039  0.94856  0.85116  1.0000
  H   H3040     1.0  0.78717  0.97328  0.85981  1.0000
  C   C3784     1.0  0.79474  0.98567  0.79490  1.0000
  C   C3785     1.0  0.78496  0.78174  0.92708  1.0000
  H   H3041     1.0  0.82071  0.97149  0.77021  1.0000
  C   C3786     1.0  0.80997  0.99495  0.52886  1.0000
  H   H3042     1.0  0.82476  0.81098  0.61230  1.0000
  C   C3787     1.0  0.92727  0.99701  0.92281  1.0000
  C   C3788     1.0  0.84387  0.00492  0.48892  1.0000
  C   C3789     1.0  0.77287  0.78278  0.95070  1.0000
  H   H3043     1.0  0.76248  0.00027  0.94217  1.0000
  C   C3790     1.0  0.79530  0.99210  0.50762  1.0000
  C   C3791     1.0  0.95001  0.99471  0.91994  1.0000
  S   S511      1.0  0.79464  0.72394  0.81384  1.0000
  H   H3044     1.0  0.81221  0.73298  0.57837  1.0000
  H   H3045     1.0  0.83320  0.90315  0.71916  1.0000
  C   C3792     1.0  0.85481  0.92798  0.71373  1.0000
  C   C3793     1.0  0.78532  0.98644  0.82014  1.0000
  H   H3046     1.0  0.86370  0.69421  0.61947  1.0000
  C   C3794     1.0  0.81060  0.74887  0.69030  1.0000
  C   C3795     1.0  0.82667  0.73952  0.70807  1.0000
  C   C3796     1.0  0.83546  0.71798  0.70455  1.0000
  H   H3047     1.0  0.80239  0.88178  0.74614  1.0000
  C   C3797     1.0  0.81310  0.71512  0.66481  1.0000
  C   C3798     1.0  0.80414  0.73661  0.66837  1.0000
  C   C3799     1.0  0.84715  0.98406  0.67253  1.0000
  H   H3048     1.0  0.92754  0.94683  0.81470  1.0000
  H   H3049     1.0  0.83775  0.81504  0.49595  1.0000
  C   C3800     1.0  0.81869  0.79146  0.67476  1.0000
  C   C3801     1.0  0.81452  0.79550  0.64761  1.0000
  C   C3802     1.0  0.82853  0.80722  0.63302  1.0000
  C   C3803     1.0  0.84715  0.81440  0.64522  1.0000
  C   C3804     1.0  0.85190  0.80966  0.67197  1.0000
  C   C3805     1.0  0.83779  0.79813  0.68669  1.0000
  C   C3806     1.0  0.79525  0.78032  0.77518  1.0000
  C   C3807     1.0  0.79971  0.81643  0.75974  1.0000
  S   S512      1.0  0.76513  0.90242  0.84307  1.0000
  H   H3050     1.0  0.80221  0.82006  0.71752  1.0000
  C   C3808     1.0  0.82961  0.98164  0.90067  1.0000
  H   H3051     1.0  0.78701  0.99527  0.77888  1.0000
  H   H3052     1.0  0.79919  0.99612  0.48745  1.0000
  P   P127      1.0  0.80020  0.77704  0.69388  1.0000
  H   H3053     1.0  0.77586  0.88249  0.78297  1.0000
  C   C3809     1.0  0.77219  0.69554  0.70694  1.0000
  C   C3810     1.0  0.78360  0.98280  0.55955  1.0000
  C   C3811     1.0  0.77586  0.84208  0.47155  1.0000
  C   C3812     1.0  0.80063  0.80872  0.73347  1.0000
  C   C3813     1.0  0.83498  0.00153  0.91080  1.0000
  C   C3814     1.0  0.80370  0.99073  0.55492  1.0000
  H   H3054     1.0  0.81199  0.68751  0.90626  1.0000
  C   C3815     1.0  0.76499  0.93013  0.74365  1.0000
  C   C3816     1.0  0.77696  0.99164  0.63613  1.0000
  H   H3055     1.0  0.76449  0.98047  0.49579  1.0000
  H   H3056     1.0  0.82736  0.67613  0.95046  1.0000
  C   C3817     1.0  0.78678  0.87535  0.74292  1.0000
  C   C3818     1.0  0.79243  0.85157  0.52200  1.0000
  C   C3819     1.0  0.77409  0.80351  0.84638  1.0000
  H   H3057     1.0  0.94632  0.00117  0.75571  1.0000
  H   H3058     1.0  0.79405  0.75559  0.74509  1.0000
  H   H3059     1.0  0.81462  0.99298  0.57170  1.0000
  H   H3060     1.0  0.97327  0.99207  0.61783  1.0000
  C   C3820     1.0  0.77246  0.78215  0.68142  1.0000
  H   H3061     1.0  0.79079  0.92953  0.96070  1.0000
  H   H3062     1.0  0.77924  0.97932  0.57971  1.0000
  C   C3821     1.0  0.84957  0.69512  0.60624  1.0000
  C   C3822     1.0  0.78141  0.86696  0.71798  1.0000
  P   P128      1.0  0.83643  0.00454  0.52367  1.0000
  C   C3823     1.0  0.79588  0.85099  0.47406  1.0000
  C   C3824     1.0  0.76857  0.92575  0.69547  1.0000
  C   C3825     1.0  0.76962  0.97877  0.53823  1.0000
  C   C3826     1.0  0.80231  0.76557  0.92353  1.0000
  H   H3063     1.0  0.96016  0.98376  0.93275  1.0000
  C   C3827     1.0  0.77539  0.98360  0.51229  1.0000
  H   H3064     1.0  0.79677  0.80817  0.80094  1.0000
  H   H3065     1.0  0.77574  0.81531  0.66989  1.0000
  C   C3828     1.0  0.79639  0.77520  0.47241  1.0000
  C   C3829     1.0  0.76221  0.82807  0.96515  1.0000
  H   H3066     1.0  0.76872  0.97273  0.69928  1.0000
  C   C3830     1.0  0.76699  0.70197  0.73336  1.0000
  C   C3831     1.0  0.76582  0.82484  0.59374  1.0000
  C   C3832     1.0  0.84163  0.67618  0.59598  1.0000
  H   H3067     1.0  0.99707  0.00477  0.85124  1.0000
  C   C3833     1.0  0.77221  0.84307  0.51955  1.0000
  H   H3068     1.0  0.76341  0.84100  0.92524  1.0000
  C   C3834     1.0  0.82480  0.67426  0.90758  1.0000
  H   H3069     1.0  0.76322  0.84027  0.53742  1.0000
  C   C3835     1.0  0.76324  0.91031  0.48772  1.0000
  H   H3070     1.0  0.77548  0.00194  0.73067  1.0000
  C   C3836     1.0  0.76348  0.83884  0.49424  1.0000
  C   C3837     1.0  0.76639  0.84370  0.94629  1.0000
  H   H3071     1.0  0.80795  0.00522  0.63658  1.0000
  H   H3072     1.0  0.76281  0.75092  0.69299  1.0000
  C   C3838     1.0  0.76217  0.70893  0.94232  1.0000
  C   C3839     1.0  0.76088  0.85942  0.71366  1.0000
  C   C3840     1.0  0.79636  0.75185  0.96752  1.0000
