data_image0
_chemical_formula_structural       FeSCFeS2FeSFeS3FeSCFeS2FeSFeS3C2HCHC2HCH4CH5C4H2C2H4C6HSH2C6H5C6H2C2HC4H5C11SHCH2C2H2PCH3C3H3CHC2SC2HC4H3CHCHC3H3SHC3HC2HSH2CHSH2CHC2H2C7HC2HC6HCH4CH4C3H5C2HCHC2H2C5PC8HC10PH10CH7CHC2HC3H2C3H2PC3H4C2H2C2PC2HCH3SC3HCH2FeSCFeS2FeSFeS3FeSHFeS2FeSFeS3C2HCHC2HCHCPHCHCHC3H2CH3C2H2C7H2CHC6H6C3H5C6HSHCH2C2H2C3HC3HCHCH2C2HC2H2CH3C3SC3H2CHC10HPC8PC3H3CH2CH9CH2CHC2HC4SCH3CH2C2H2C11HC2H6C4HCH3C3HC5HC4H2C3PHC2HC3H2C2H3CH8PHCH2CHCPH2C2H2C3HC3HCH2CH4C2HSHCHC2HC2H2C2H3C2HSFeSFe2S2CHS2C2H2C2H2C2H3C7H2CH2CHC3H4CHPC8H5C3H3CHC2H2SC2PSFeSCH2CFeC2PH4CH3C6HCHCHPC4SHSFeCFeCH2CH2CH2C2H2C2H4C4HCHCH3CHC2HC2FeHCHC2H2CH2CHC2H3C4H2CH6SC2H2CHCHCHCSCFePC4HCH3CH4CHC3H2SCH2SFeCSHC2H3FeCHC2SH2CHC2HCH2C5SC2HFeHCHC2HC5HCSCFeC2FeSC2HC2SHC2H3C4HCSCHC3H2SPCFeSHC5H8CH2SCHCSHC3HCH2C2SCPC3FeC2H2C6H4CPHC2HC5HC5HCH2FeSHFeS2FeSFeS3FeS2FeS2FeS2FeS2FeCFeS3CFeS2CSFeS2C6H5CFe2CS2C7H4C6H4C6H4C3H4CH2C4HC7H2CHCHCH2SC2H2C2H3FeH2CHCH4C6PC2HC2HC12H5CHC2H8CH3C6PC15H5CH15CSCH2C8HSHC3H4C6PC18H21CHCH6CPH2CHCH5CH2C2H2CHC2HCH2CH2CFeHC2HCHCHCH4C6HC4HCHC3HC3HCH3CH2C6HSC5HPHCHC3HC2H2CHC2H3CH2C6SHFeSCFeSFeS2HFeS2FeS2FeCFeHS3C4HC7H2C6H3C7H4C6H9CFeC2H4CHCHC3HCHC2H2CH2C2HSHC2H2C2HCHC2H4C3HC5H2CH2CH2C2H4C4HSC2HCHC3PCH2CH2C3H2CHCHPHC10PC18H21CHCHCH3C2HC2HC5HC6HCHCHCHC3HC6H6CHC2H2CPCH2SCH2CH4C3HC8HCH2CPHS2CHCHCH2CHC2HC2HCFeHCFeSCFeSFeS2CFeS2FeS2FeSFePS3C2H2CH2CPCHCH2C7HC8H4C6H4C3HPHCHCH2CHCH3C2HC6H2C2PCHCHC3H2C2HCH2CH2CH2CH3C2H4C6HC7HSHCH4C6PC18H12CH8C3HCHC5H2CH2CHCHC2H2SCH2C3HSC3HC2HC2HC2H4CPSCHCH5SCH3CHC3FeCH2CH3CH2FeS2FeS2FeSFeS3FeS2FeS2FeSFeS3FeS2FeSCHFeS3FeS2FeS2FeSFeS3C7H4C2HC3H4C2HCHCHC2HC6H4C6H4C6H3C7H3C2H3CH3CFeCHC2H2CH3C2HCHCHCH7C3H2C9H2C6PC18H20CSHCH3PC2PC18H16C4H3C2PC10H6PC2HCH3C2HC2HC2HC2H2CHCH2C2H3CHC3HC2HCHC5HC4H4C3H2CH3PCHCH2C3H3CHC3H2C3H3C2H5CHC3HCHC4HCHC3H4CHC2HFeS2FeS2FeSFeS3FeS2FeS2FeSFeS3FeCSFeSCHFeS3FeS2FeS2FeSFeS3HC6H4C2H2C2H4C2HC2H5C6H4C6H4C6H4C6H3PC2H2C2HPC7H5CHC2PC3PC12HCHCHCH2CH9CH3CHCH2CH2CH5C2H2CH2C7H2C7H10C2HSC11H3CHC5H2CH2SC4H2C7PC18H7CH10CH2C2H3CH3C2H2C3HCHCHCH2CHC14HCHC3H2C2H2C5H2C3HPH3CHCPH4C2H2C3HC2H3C4HC4HC2HC2HCH4CH5C2H2CH2C3HC2H3PH2CHC3H3FeS2FeS2H2C2H2FeS2FeS2FeSFeS3FeS2FeS2FeHFePS5C7H3C3H3CH2C8H2C2HC5H2C5H5C6H4C6H4CH2CSH2CH2C6FeHCH5CHC3H2C3HC2HCSCH2C6PC3HC7HC2HC3H5C2H3C3HCHCH3C2HC3PC7HPC3HC3H2SH6C4HCH2CHCHC3HC11PC12H12C5PCHC6HCH3CHC2H6CH2C2HCH2CHC3HCHCH3CHCH2C3H5SH2C2HC3H2CHC2HCHC2H4C3H2C3HC2H2CH2CHC3H2FeHC3HC3H2CHCH2C2H4C6H3CHCH2CH2CH2CH2CHSHCSC2H2CSC2H2SFeCH2C4H2FeS2FeS2CH2C2HFeS2FeS2FeSFeS3FeS2FeS2FeHFeHS5C7H2C4H2CPH2C3H2C2H4C3HC3H2C5H3CHC6H4C6H5C3SHCH2FeHC2SCHPC13H2C4HCHCH8CHC3H2C6HC4H2CHC5H2CH7CH2C2H7CH2CHC3H2C3HCH2C2H2C4H2C3H2CHC3HC5H2C7PH4C3H2C2HC2H4C7PC3PC12HCH5CH10C3HCPC2H2C2HFeC2HC2HC5PCHCH2CH4CHCH2CFeCHCH2C7PCHC3HC2HSH2C2H6SC2HSCHC2HC2H2C7HC3H2C3HCH3CHCHCHSHC3PH3C6H2CHPC3HPHC4H3C4H4C2HC5FeH2C2HC3H3CH2FeC2SH4CH3CFeS2FeS2FeSFeS3CSFeSCSHSCSCHFeS2HCH4CH2C2H4C6H4C8H2CHC4HCHCHC5H2C4H2CHC6PC18H6CH13C5H2CHCHSHC4H3C2HCH8CHPC2H3CFeHC2HCH4CHC5HCH2C5HCHC2H2CFeH2CH7CH2CHC2PHCH3C6HCH2CHC2Fe2S2FeS2FeSFeS3HSFeSCSH2C2H2FeSCHC2H2C6H4C6H4C6H4C6H3C7PC18HS2H19CHC3HC4H3CHC2FeHCSH3CH3C3PCHCHCH2C2H2C2HSCH5CHC7H2CHCH2C5HPHC7HC4HCH2CHCHC2H7CH4C2H2C2HCHC6HPHSHCHCH2C2H2CHCHC2H3C2FeS2FeS2FeSFeS3CSC3HFeS4H2SFeSHS2C2H3C4HCH2SC6H4C6H4C6H4C3HC2H8C2H2Fe2C6HC7H3CH2CHC2PHC7PC19HPH14CH2CSH2C2H2C5HCHC6H4C3HC7PC18H20C2H2C4H4PHCHCHC2HCHPCHCH2CHFeH4CH4C2HC3HC3HC2H2C6HCHC4HCH3C2HCHCFeHCSCH2SH2CHC2HCHC3FeS2FeS2FeSFeS3CHC2HSFeSHFeSH2SFeSCS2C4HC2HC3HCHC6H4C6H4C6H4C2HC3H2C3H2CH3CH2CHPC2HC2H2CH2C5HC3HCHCH2C2SCH3CHC3HC4H2CH2C2PHC2H2FeHCHC2H2PH3CHC3HC2H2SCH2SH2C2PHC5HC5PC7HCH3C2HC2HCH2C2H2CHC6H3CHC4HC2H2CHCHCH2CH2PC3HCHC6HCHCH6C2H2C2H2CHCHC3H4C4HCHCHC2HC2H2FeH2C3HCHC3HC2HCH2CFeCHCHC2H2CSH2CHC3H2CHCHSC2FeSHFeSHFeSHS2CFeS2FeS2FeCFeS3FeS2FeS2FeHFeS3HSFeSCFeSFeS3HC6H4C6H3C7H5C6HCH2C6H4C6H4CH2C8PC18H20PH2C2H3CHC4PC2HCH2C2HCHFeHSHFeC6HC2HC3HCHCH9CHCH3C2HC2H2CHC2HCH2CH2PC2H3C4HCPC5HC13H6CHCH3C2H5CH4C4HPC2HC13HCHCH10C2H2C6HC4HCHC2SCHC2H2FeC4HCH3CSC2SHCH3PHCHC3HSCHCSCH3CH3CH2C2H4CSPFeSCFeSHFeSCS2HFeS2FeS2FeCFeS3FeS2FeS2FeCFeS3HSFeSCFeSFeS3HC6H4C6H4C6H4C7HCH2C6H4C6H6C3H2CHC6HC3H2C6H3CH2CHC2SHCHC2PH5C6PC9HC7SH4CH5C2HCHCH2CH2C2HC3H2CH3CH3C3HC2HC2HC2HCHC2HC2H3C3HCHC2H3C2HCHCH2C5H2CHC2H2CH3CHC2HFeCPH2C4SH2C2H2C2HC3H2CH2CH5CH3C3H2C2HC2H2PHCH3C3HC2HC2HCH2CSH2C2HCHCH2CH2CHC3H5C3HSPC2H2C2HC2FeS2FeS2FeCFeHS2FeS2FeS2FeSFeS5FeS2FeS2FeSFeS3C6H5C6H4C2HCHCHC2HC5HC2H2C6H5C4H2CHC4H4C8PC15H18C6PC3H2C2HCHCH4C2HCHC3HPC14H13CH7CH2C7PC7H3CHC6H10CSHCH6C6HCH2C2H2C3H3CHC2H2C2HCH5C2H3CH3C5PC2H2SHC4H2CHC6H3C3HCH3C2HC2HC3H2C4HCH2CSH2CHPC2HC7HCHCPC2H2C2HCH3CHC2HC2HCH2FeS2FeS2FeHFeCS2FeS2FeS2FeSFeS5FeS2FeS2FeSFeS3C6H5C6H4C2H3CH2CHSC2H2C3PC7H5C4H3C6H6CH2C2H3CHCHCH3CH3CH2C3PC19PH14C2HC7PC2H2C5H3CH3CH5CHC7H5C6HCHC2H2CHCHCHC6PC18H20C2H2C3H4C5H4CH2CH2CH2FeH2CHC2H2C4HC5HC4H2SC4HCH3C2HCHCHCH3C3HCHFeCHCSCH3SHC4HCH3CH2S2FeSHSCSFeSHSFeS2FeC2HCS3HSHCH3CHCHC4SCH2C8H2C6H3C6PC12H2C2HCH10C2H3FeH2CHC2H2C2PC15HCH4SH3C3H6C3H6FeCFeH2C3H5CH2C3PC7HCHC4HCHCH4C2H2FeCHC4H2CH3CHCHSCH2C3FeCHSHCH2C3HCH4FeC2PHCHFeH3SFeSCSCSCSCHFeS2CHCH2S2HCH2CHCH2SC6H4C6HCH2C4SH3CH3CHC3HCHC3FeC8HC2PC2HC2H2CHSHCHC2H2C2HCHCHC5HCHFeSCH2CH2C3HCFeH4C2H3CH6SH3C3HCH3CH4C6HCSC3HCFeCSHCHCHCH3FeH2C6HSCHSCS2FeS2FeS2FeSFeS4FeSHFeS2FeSFeS3C6H4C6H4C6H4C6H4C7H4C5H2C7HC2H3CHC2H2C3HC2HC2H2C12H2CH3CH2CH3C2SH3C5HC6H2C4HC2H5C3H4CHC2HCH2CHCH5CH2CFeHCHPC3H2C6HC6HCHCHC2H4CH5C7H2CHC2PH3CH2C3PC3PC2H2C12SH2CH7CHC5PC4H2C13HC2H2CH16CFeCH2CH9FeH2PCH3PH2C10H2C2H5CHCPH2CHCHCHC4SCHCH3CH3FeCH3PH3C3HC2H2SC2SCHCHCSCHFeS2FeS2FeS2FeSFeS4FeSCFeS2FeSFeS3C6H4C6H4C6H4C6H4C6H4CHC5HC5HPCH2C5H3C3H3C6H4C2H2C3FeHC6PC2HCHCHC11HCPH2SH3CH6CH3CHC4PH6CH3CHCHCHC3HCH2CH3CHC2HC3HCHCHC2H3CHC4HCHC2H3CHCPC2H4C4H2CH2C3HC2H2CPC5HC5HC3HCHC2HCH2CH3CH3CHCHC2HCH3CH3C2HCHCH2C3HCHCH2SC4HC3H3FeH3PC2HSCHC2HCHC4H5CHCHC3HC5HCH2CH4CFeC2H2C3HCHC2HFeS2C2FeSFeSC2FeS2HCFeSFeSCHFeS2FeS2FeSFeS3FeS2FeS2FeSFeS3HC7H5C4H4C6H4CHCHC2H4C6H4C6H4C3HC2HCH3CHC2H2CHCH2CHC4HC3HCHC2HCH2CH2C2HC4HCH2C2PC6H4CHC7HPCHCHCH5CHC3HC4HCHSHPCH2C2HC2HC8PC18H22C2HC9PCHCH6C2H6CHC2HC8H5SH2CPCHC2HC2HSC2HCHCHCHCH2CHC2PFeS2H2FeSFeS3FeS2HCFeSFeSC2FeS2FeS2FeSFeS3FeS2FeS2FeSFeS3C2HC5H3C5H5C6H4C2H2C2H4C6H4C6HCHC7HCH2CH2CH2CHC2HCHCHC4H3C4HCHCH2CH3CHC2HC4PC3H4C6H2CHC6H2C2H3C2H2S2HC6PC7H4SCHC2H11C4H2C2H2C2HCH2C5H2C2P2C7HCH2C6H4PH4CH9C2H2C5H2CHC2H3CHCH3C2HC7PC6HC8HCHCH6C3H3C2HC9H3C4H2C2HSCHCH3C3H6CHC3H2CH2C3
_chemical_formula_sum              "Fe288 S576 C4320 H3456 P144"
_cell_length_a       75.9745
_cell_length_b       76.2752
_cell_length_c       49.947
_cell_angle_alpha    90.2752
_cell_angle_beta     91.2973
_cell_angle_gamma    113.197

_space_group_name_H-M_alt    "P 1"
_space_group_IT_number       1

loop_
  _space_group_symop_operation_xyz
  'x, y, z'

loop_
  _atom_site_type_symbol
  _atom_site_label
  _atom_site_symmetry_multiplicity
  _atom_site_fract_x
  _atom_site_fract_y
  _atom_site_fract_z
  _atom_site_occupancy
  Fe  Fe1       1.0  0.28579  0.17131  0.09768  1.0000
  S   S1        1.0  0.27874  0.14005  0.09942  1.0000
  C   C1        1.0  0.31498  0.17126  0.99856  1.0000
  Fe  Fe2       1.0  0.24374  0.16531  0.09409  1.0000
  S   S2        1.0  0.23383  0.13323  0.09560  1.0000
  S   S3        1.0  0.22065  0.17705  0.08753  1.0000
  Fe  Fe3       1.0  0.25630  0.13902  0.12841  1.0000
  S   S4        1.0  0.25465  0.12018  0.16422  1.0000
  Fe  Fe4       1.0  0.25721  0.13710  0.06644  1.0000
  S   S5        1.0  0.25584  0.11614  0.03302  1.0000
  S   S6        1.0  0.26462  0.17069  0.12895  1.0000
  S   S7        1.0  0.26572  0.16868  0.06267  1.0000
  Fe  Fe5       1.0  0.29215  0.13484  0.34402  1.0000
  S   S8        1.0  0.27390  0.15161  0.34472  1.0000
  C   C2        1.0  0.27201  0.20410  0.18748  1.0000
  Fe  Fe6       1.0  0.25743  0.09697  0.35494  1.0000
  S   S9        1.0  0.23687  0.11186  0.35596  1.0000
  S   S10       1.0  0.25152  0.06511  0.36089  1.0000
  Fe  Fe7       1.0  0.25270  0.12771  0.31991  1.0000
  S   S11       1.0  0.23999  0.13772  0.28440  1.0000
  Fe  Fe8       1.0  0.26001  0.13460  0.38080  1.0000
  S   S12       1.0  0.25754  0.15420  0.41407  1.0000
  S   S13       1.0  0.27170  0.11155  0.31716  1.0000
  S   S14       1.0  0.27985  0.11910  0.38180  1.0000
  C   C3        1.0  0.06426  0.22625  0.30749  1.0000
  C   C4        1.0  0.22013  0.04002  0.43672  1.0000
  H   H1        1.0  0.31911  0.22681  0.27904  1.0000
  C   C5        1.0  0.04110  0.24316  0.45965  1.0000
  H   H2        1.0  0.01032  0.21737  0.42005  1.0000
  C   C6        1.0  0.28704  0.21893  0.04590  1.0000
  C   C7        1.0  0.30974  0.16164  0.26389  1.0000
  H   H3        1.0  0.05335  0.22967  0.31710  1.0000
  C   C8        1.0  0.30160  0.15343  0.47022  1.0000
  H   H4        1.0  0.21110  0.06022  0.41697  1.0000
  H   H5        1.0  0.29823  0.13931  0.04875  1.0000
  H   H6        1.0  0.26501  0.20854  0.01510  1.0000
  H   H7        1.0  0.17671  0.04220  0.42600  1.0000
  C   C9        1.0  0.08851  0.21316  0.31084  1.0000
  H   H8        1.0  0.27712  0.21412  0.14697  1.0000
  H   H9        1.0  0.29980  0.11738  0.01346  1.0000
  H   H10       1.0  0.31103  0.22673  0.07377  1.0000
  H   H11       1.0  0.29278  0.17838  0.43807  1.0000
  H   H12       1.0  0.23511  0.04786  0.43240  1.0000
  C   C10       1.0  0.03981  0.19695  0.41947  1.0000
  C   C11       1.0  0.30539  0.22082  0.05412  1.0000
  C   C12       1.0  0.08445  0.21998  0.09774  1.0000
  C   C13       1.0  0.21432  0.02287  0.45062  1.0000
  H   H13       1.0  0.11680  0.00647  0.01714  1.0000
  H   H14       1.0  0.31386  0.16991  0.28229  1.0000
  C   C14       1.0  0.03101  0.22130  0.36498  1.0000
  C   C15       1.0  0.01309  0.20579  0.36174  1.0000
  H   H15       1.0  0.27263  0.20639  0.33331  1.0000
  H   H16       1.0  0.04400  0.21878  0.36710  1.0000
  H   H17       1.0  0.01251  0.19139  0.36131  1.0000
  H   H18       1.0  0.31367  0.18186  0.33132  1.0000
  C   C16       1.0  0.21778  0.19593  0.10524  1.0000
  C   C17       1.0  0.20108  0.19935  0.10060  1.0000
  C   C18       1.0  0.19813  0.21409  0.11443  1.0000
  C   C19       1.0  0.21193  0.22560  0.13302  1.0000
  C   C20       1.0  0.22877  0.22235  0.13734  1.0000
  C   C21       1.0  0.23167  0.20757  0.12360  1.0000
  H   H19       1.0  0.19029  0.19046  0.08633  1.0000
  S   S15       1.0  0.31646  0.19323  0.09970  1.0000
  H   H20       1.0  0.23968  0.23139  0.15127  1.0000
  H   H21       1.0  0.24462  0.20518  0.12712  1.0000
  C   C22       1.0  0.25135  0.12588  0.19759  1.0000
  C   C23       1.0  0.25120  0.11319  0.21798  1.0000
  C   C24       1.0  0.24855  0.11710  0.24480  1.0000
  C   C25       1.0  0.24541  0.13345  0.25133  1.0000
  C   C26       1.0  0.24567  0.14621  0.23095  1.0000
  C   C27       1.0  0.24899  0.14263  0.20425  1.0000
  H   H22       1.0  0.25319  0.10030  0.21300  1.0000
  H   H23       1.0  0.24842  0.10722  0.26031  1.0000
  H   H24       1.0  0.24334  0.15893  0.23573  1.0000
  H   H25       1.0  0.24940  0.15265  0.18879  1.0000
  H   H26       1.0  0.24758  0.02663  0.37010  1.0000
  C   C28       1.0  0.00308  0.23706  0.28765  1.0000
  C   C29       1.0  0.24174  0.13155  0.45805  1.0000
  C   C30       1.0  0.25234  0.14981  0.44850  1.0000
  C   C31       1.0  0.25799  0.16544  0.46647  1.0000
  C   C32       1.0  0.99400  0.21751  0.29225  1.0000
  C   C33       1.0  0.32270  0.19619  0.44509  1.0000
  H   H27       1.0  0.23707  0.11942  0.44442  1.0000
  H   H28       1.0  0.26572  0.17964  0.45921  1.0000
  C   C34       1.0  0.31313  0.14373  0.15345  1.0000
  C   C35       1.0  0.23654  0.12911  0.48515  1.0000
  H   H29       1.0  0.05853  0.24732  0.42454  1.0000
  C   C36       1.0  0.19630  0.02551  0.36730  1.0000
  C   C37       1.0  0.21214  0.04290  0.36338  1.0000
  C   C38       1.0  0.23079  0.04351  0.36461  1.0000
  C   C39       1.0  0.23325  0.02637  0.36913  1.0000
  H   H30       1.0  0.06709  0.23003  0.07293  1.0000
  H   H31       1.0  0.18199  0.02534  0.36679  1.0000
  H   H32       1.0  0.20991  0.05586  0.35984  1.0000
  H   H33       1.0  0.31676  0.15595  0.08775  1.0000
  H   H34       1.0  0.27548  0.22871  0.26329  1.0000
  C   C40       1.0  0.29820  0.19916  0.21032  1.0000
  C   C41       1.0  0.27948  0.21049  0.02109  1.0000
  C   C42       1.0  0.30560  0.19229  0.40228  1.0000
  C   C43       1.0  0.28037  0.18436  0.27812  1.0000
  C   C44       1.0  0.27132  0.18731  0.30074  1.0000
  C   C45       1.0  0.30659  0.16991  0.24018  1.0000
  C   C46       1.0  0.28901  0.13498  0.47650  1.0000
  C   C47       1.0  0.30617  0.16838  0.48910  1.0000
  C   C48       1.0  0.30098  0.13125  0.24100  1.0000
  C   C49       1.0  0.29763  0.13928  0.21739  1.0000
  C   C50       1.0  0.30036  0.15851  0.21691  1.0000
  S   S16       1.0  0.12481  0.24838  0.45047  1.0000
  H   H35       1.0  0.04247  0.18022  0.38612  1.0000
  C   C51       1.0  0.09283  0.21743  0.28403  1.0000
  H   H36       1.0  0.27403  0.17092  0.26727  1.0000
  H   H37       1.0  0.25810  0.17617  0.30709  1.0000
  C   C52       1.0  0.18720  0.03682  0.43300  1.0000
  C   C53       1.0  0.99983  0.19415  0.47956  1.0000
  H   H38       1.0  0.29833  0.11622  0.24147  1.0000
  H   H39       1.0  0.29211  0.13037  0.19968  1.0000
  P   P1        1.0  0.30910  0.19450  0.24051  1.0000
  C   C54       1.0  0.18741  0.22494  0.49161  1.0000
  H   H40       1.0  0.05935  0.22919  0.14953  1.0000
  H   H41       1.0  0.28493  0.12370  0.46145  1.0000
  H   H42       1.0  0.24833  0.21527  0.44328  1.0000
  C   C55       1.0  0.32542  0.13503  0.16150  1.0000
  C   C56       1.0  0.22786  0.20835  0.47486  1.0000
  C   C57       1.0  0.07951  0.20909  0.42600  1.0000
  H   H43       1.0  0.18058  0.23850  0.22335  1.0000
  H   H44       1.0  0.15747  0.24818  0.03748  1.0000
  H   H45       1.0  0.32282  0.20369  0.18592  1.0000
  C   C58       1.0  0.04949  0.21014  0.43998  1.0000
  H   H46       1.0  0.28072  0.22876  0.48438  1.0000
  C   C59       1.0  0.21513  0.17086  0.45525  1.0000
  C   C60       1.0  0.21278  0.19382  0.48742  1.0000
  S   S17       1.0  0.15403  0.24174  0.13776  1.0000
  C   C61       1.0  0.00202  0.20814  0.43565  1.0000
  C   C62       1.0  0.23662  0.20409  0.45283  1.0000
  H   H47       1.0  0.30324  0.23163  0.31908  1.0000
  C   C63       1.0  0.06983  0.19622  0.40541  1.0000
  C   C64       1.0  0.26775  0.24144  0.22905  1.0000
  C   C65       1.0  0.05659  0.23830  0.22585  1.0000
  C   C66       1.0  0.08295  0.22616  0.26888  1.0000
  H   H48       1.0  0.32533  0.16293  0.38985  1.0000
  H   H49       1.0  0.15100  0.24268  0.23012  1.0000
  H   H50       1.0  0.02656  0.21960  0.22090  1.0000
  C   C67       1.0  0.10634  0.24293  0.12905  1.0000
  H   H51       1.0  0.26208  0.01141  0.32891  1.0000
  C   C68       1.0  0.04999  0.19017  0.40212  1.0000
  H   H52       1.0  0.30935  0.21326  0.14593  1.0000
  C   C69       1.0  0.19481  0.01226  0.45515  1.0000
  C   C70       1.0  0.15003  0.19776  0.48388  1.0000
  C   C71       1.0  0.14805  0.25199  0.99747  1.0000
  H   H53       1.0  0.15423  0.18867  0.17311  1.0000
  H   H54       1.0  0.21047  0.15629  0.44787  1.0000
  H   H55       1.0  0.00872  0.23950  0.10642  1.0000
  S   S18       1.0  0.13583  0.24877  0.32361  1.0000
  H   H56       1.0  0.29698  0.16412  0.19856  1.0000
  C   C72       1.0  0.00344  0.20549  0.28693  1.0000
  C   C73       1.0  0.29672  0.21851  0.30746  1.0000
  C   C74       1.0  0.30877  0.20583  0.01252  1.0000
  H   H57       1.0  0.16628  0.01210  0.45071  1.0000
  C   C75       1.0  0.18133  0.01959  0.44673  1.0000
  C   C76       1.0  0.09859  0.22454  0.11798  1.0000
  H   H58       1.0  0.29243  0.18586  0.39041  1.0000
  S   S19       1.0  0.32418  0.14864  0.33574  1.0000
  H   H59       1.0  0.07845  0.20570  0.08916  1.0000
  H   H60       1.0  0.29421  0.20815  0.46264  1.0000
  C   C77       1.0  0.04013  0.22648  0.21121  1.0000
  H   H61       1.0  0.25764  0.20375  0.18745  1.0000
  S   S20       1.0  0.09855  0.24257  0.37995  1.0000
  H   H62       1.0  0.20555  0.01607  0.22441  1.0000
  H   H63       1.0  0.32014  0.11961  0.16192  1.0000
  C   C78       1.0  0.14521  0.24644  0.27145  1.0000
  H   H64       1.0  0.17691  0.24459  0.47302  1.0000
  C   C79       1.0  0.31617  0.21418  0.03764  1.0000
  C   C80       1.0  0.30881  0.16422  0.02407  1.0000
  H   H65       1.0  0.21226  0.02411  0.31027  1.0000
  H   H66       1.0  0.30925  0.13612  0.28272  1.0000
  C   C81       1.0  0.28298  0.20993  0.16462  1.0000
  C   C82       1.0  0.02199  0.21299  0.27704  1.0000
  C   C83       1.0  0.30707  0.14244  0.26423  1.0000
  C   C84       1.0  0.02166  0.24465  0.27784  1.0000
  C   C85       1.0  0.07388  0.24696  0.21245  1.0000
  C   C86       1.0  0.20914  0.01763  0.26765  1.0000
  C   C87       1.0  0.03135  0.23269  0.27278  1.0000
  H   H67       1.0  0.23720  0.18192  0.42624  1.0000
  C   C88       1.0  0.21740  0.00895  0.37277  1.0000
  C   C89       1.0  0.23026  0.18535  0.44306  1.0000
  H   H68       1.0  0.02445  0.19176  0.41668  1.0000
  C   C90       1.0  0.30870  0.20395  0.18672  1.0000
  C   C91       1.0  0.20925  0.02521  0.24206  1.0000
  C   C92       1.0  0.21402  0.04480  0.23911  1.0000
  C   C93       1.0  0.21846  0.05685  0.26166  1.0000
  C   C94       1.0  0.21785  0.04930  0.28723  1.0000
  C   C95       1.0  0.21294  0.02974  0.29025  1.0000
  H   H69       1.0  0.07067  0.21401  0.34324  1.0000
  C   C96       1.0  0.30569  0.21570  0.28464  1.0000
  H   H70       1.0  0.11718  0.24642  0.14486  1.0000
  H   H71       1.0  0.30792  0.17355  0.03993  1.0000
  H   H72       1.0  0.09671  0.20703  0.32274  1.0000
  H   H73       1.0  0.15321  0.23850  0.27924  1.0000
  C   C97       1.0  0.14410  0.24889  0.24366  1.0000
  H   H74       1.0  0.15607  0.22022  0.18905  1.0000
  H   H75       1.0  0.25587  0.25073  0.19498  1.0000
  H   H76       1.0  0.01293  0.25178  0.15324  1.0000
  H   H77       1.0  0.02920  0.20351  0.27333  1.0000
  C   C98       1.0  0.29025  0.20394  0.00448  1.0000
  C   C99       1.0  0.27955  0.19866  0.21026  1.0000
  C   C100      1.0  0.05849  0.23181  0.17071  1.0000
  H   H78       1.0  0.08845  0.25020  0.17532  1.0000
  H   H79       1.0  0.21424  0.05069  0.21934  1.0000
  H   H80       1.0  0.22220  0.07203  0.25936  1.0000
  H   H81       1.0  0.22119  0.05861  0.30478  1.0000
  H   H82       1.0  0.03505  0.18407  0.49112  1.0000
  C   C101      1.0  0.30587  0.18791  0.42932  1.0000
  C   C102      1.0  0.19878  0.00844  0.37222  1.0000
  H   H83       1.0  0.03666  0.24759  0.07751  1.0000
  C   C103      1.0  0.01106  0.20575  0.45941  1.0000
  H   H84       1.0  0.24184  0.01630  0.29315  1.0000
  C   C104      1.0  0.06865  0.23083  0.28054  1.0000
  C   C105      1.0  0.29757  0.19855  0.26979  1.0000
  H   H85       1.0  0.23278  0.22297  0.48200  1.0000
  H   H86       1.0  0.09491  0.21384  0.42856  1.0000
  C   C106      1.0  0.30117  0.20949  0.16406  1.0000
  C   C107      1.0  0.17948  0.22451  0.21690  1.0000
  C   C108      1.0  0.19221  0.21703  0.22743  1.0000
  C   C109      1.0  0.19148  0.19929  0.21828  1.0000
  C   C110      1.0  0.17745  0.18893  0.19896  1.0000
  P   P2        1.0  0.20900  0.19051  0.23066  1.0000
  C   C111      1.0  0.23214  0.21031  0.23012  1.0000
  C   C112      1.0  0.20372  0.18158  0.26438  1.0000
  C   C113      1.0  0.21329  0.17090  0.27594  1.0000
  C   C114      1.0  0.20933  0.16407  0.30198  1.0000
  C   C115      1.0  0.19584  0.16789  0.31680  1.0000
  C   C116      1.0  0.18626  0.17851  0.30553  1.0000
  C   C117      1.0  0.19014  0.18531  0.27943  1.0000
  C   C118      1.0  0.23571  0.22443  0.21057  1.0000
  H   H87       1.0  0.99586  0.24638  0.29232  1.0000
  C   C119      1.0  0.99700  0.22745  0.35949  1.0000
  C   C120      1.0  0.26436  0.22752  0.24859  1.0000
  C   C121      1.0  0.24666  0.21200  0.24915  1.0000
  C   C122      1.0  0.20957  0.17230  0.20772  1.0000
  C   C123      1.0  0.21688  0.17742  0.18205  1.0000
  C   C124      1.0  0.21722  0.16354  0.16394  1.0000
  C   C125      1.0  0.21016  0.14439  0.17119  1.0000
  C   C126      1.0  0.20247  0.13908  0.19647  1.0000
  C   C127      1.0  0.20193  0.15292  0.21457  1.0000
  C   C128      1.0  0.25340  0.23990  0.21009  1.0000
  P   P3        1.0  0.05575  0.24237  0.26149  1.0000
  H   H88       1.0  0.19434  0.16369  0.48600  1.0000
  H   H89       1.0  0.20295  0.22532  0.24221  1.0000
  H   H90       1.0  0.17656  0.17527  0.19144  1.0000
  H   H91       1.0  0.22373  0.16766  0.26482  1.0000
  H   H92       1.0  0.21664  0.15566  0.31057  1.0000
  H   H93       1.0  0.19276  0.16252  0.33695  1.0000
  H   H94       1.0  0.17574  0.18143  0.31699  1.0000
  H   H95       1.0  0.18242  0.19339  0.27117  1.0000
  H   H96       1.0  0.22480  0.22361  0.19568  1.0000
  H   H97       1.0  0.14375  0.22064  0.46670  1.0000
  C   C129      1.0  0.07484  0.24368  0.18511  1.0000
  H   H98       1.0  0.07730  0.22632  0.45875  1.0000
  H   H99       1.0  0.24451  0.20146  0.26443  1.0000
  H   H100      1.0  0.22204  0.19209  0.17579  1.0000
  H   H101      1.0  0.22285  0.16758  0.14414  1.0000
  H   H102      1.0  0.21076  0.13371  0.15724  1.0000
  H   H103      1.0  0.19708  0.12422  0.20211  1.0000
  H   H104      1.0  0.19550  0.14831  0.23373  1.0000
  C   C130      1.0  0.16469  0.19645  0.18854  1.0000
  H   H105      1.0  0.10364  0.21389  0.12508  1.0000
  C   C131      1.0  0.32217  0.20510  0.39074  1.0000
  C   C132      1.0  0.02282  0.24877  0.11405  1.0000
  H   H106      1.0  0.10436  0.21457  0.27520  1.0000
  C   C133      1.0  0.30359  0.14488  0.02935  1.0000
  C   C134      1.0  0.03211  0.24004  0.36500  1.0000
  C   C135      1.0  0.16573  0.21424  0.19746  1.0000
  H   H107      1.0  0.07776  0.19103  0.39195  1.0000
  H   H108      1.0  0.02842  0.21401  0.17259  1.0000
  C   C136      1.0  0.27952  0.20432  0.31550  1.0000
  C   C137      1.0  0.01497  0.24297  0.36234  1.0000
  C   C138      1.0  0.15465  0.21657  0.47591  1.0000
  H   H109      1.0  0.18513  0.21643  0.11089  1.0000
  H   H110      1.0  0.25264  0.14815  0.00458  1.0000
  P   P4        1.0  0.32212  0.19236  0.48086  1.0000
  C   C139      1.0  0.20658  0.04702  0.42799  1.0000
  C   C140      1.0  0.29929  0.21355  0.48257  1.0000
  C   C141      1.0  0.07825  0.23389  0.08836  1.0000
  H   H111      1.0  0.30742  0.15606  0.45046  1.0000
  H   H112      1.0  0.27081  0.19414  0.22769  1.0000
  H   H113      1.0  0.29833  0.13507  0.14790  1.0000
  H   H114      1.0  0.31020  0.17027  0.14670  1.0000
  C   C142      1.0  0.04111  0.22328  0.18374  1.0000
  C   C143      1.0  0.07405  0.21733  0.32246  1.0000
  H   H115      1.0  0.08693  0.22950  0.24836  1.0000
  H   H116      1.0  0.27846  0.22351  0.05907  1.0000
  C   C144      1.0  0.06945  0.21619  0.44305  1.0000
  C   C145      1.0  0.30453  0.13247  0.00937  1.0000
  P   P5        1.0  0.03672  0.21834  0.46374  1.0000
  C   C146      1.0  0.25771  0.12258  0.99888  1.0000
  C   C147      1.0  0.17336  0.23011  0.47961  1.0000
  H   H117      1.0  0.13554  0.18725  0.48075  1.0000
  C   C148      1.0  0.20624  0.17509  0.47712  1.0000
  H   H118      1.0  0.32170  0.20900  0.37010  1.0000
  H   H119      1.0  0.31684  0.13592  0.42109  1.0000
  H   H120      1.0  0.99648  0.19041  0.29116  1.0000
  S   S21       1.0  0.20852  0.24367  0.15206  1.0000
  C   C149      1.0  0.31980  0.16360  0.15301  1.0000
  C   C150      1.0  0.99595  0.20872  0.35888  1.0000
  C   C151      1.0  0.23659  0.00298  0.30385  1.0000
  H   H121      1.0  0.22506  0.01784  0.45769  1.0000
  C   C152      1.0  0.03253  0.25180  0.47704  1.0000
  H   H122      1.0  0.23354  0.00397  0.23269  1.0000
  H   H123      1.0  0.22795  0.11500  0.49225  1.0000
  Fe  Fe9       1.0  0.28848  0.18773  0.59570  1.0000
  S   S22       1.0  0.27394  0.15604  0.59225  1.0000
  C   C153      1.0  0.07036  0.22308  0.81093  1.0000
  Fe  Fe10      1.0  0.25195  0.19230  0.61198  1.0000
  S   S23       1.0  0.23433  0.16054  0.60986  1.0000
  S   S24       1.0  0.24542  0.21738  0.62692  1.0000
  Fe  Fe11      1.0  0.25965  0.15762  0.63055  1.0000
  S   S25       1.0  0.26013  0.13532  0.66009  1.0000
  Fe  Fe12      1.0  0.24996  0.16122  0.57154  1.0000
  S   S26       1.0  0.23482  0.14115  0.53672  1.0000
  S   S27       1.0  0.27616  0.18910  0.63559  1.0000
  S   S28       1.0  0.26563  0.19318  0.57207  1.0000
  Fe  Fe13      1.0  0.29479  0.12175  0.83690  1.0000
  S   S29       1.0  0.27791  0.13963  0.84225  1.0000
  H   H124      1.0  0.27012  0.22280  0.67653  1.0000
  Fe  Fe14      1.0  0.25881  0.08424  0.84043  1.0000
  S   S30       1.0  0.23952  0.10001  0.84637  1.0000
  S   S31       1.0  0.24839  0.05211  0.83165  1.0000
  Fe  Fe15      1.0  0.25623  0.11928  0.81380  1.0000
  S   S32       1.0  0.24192  0.13199  0.78379  1.0000
  Fe  Fe16      1.0  0.26285  0.11919  0.87452  1.0000
  S   S33       1.0  0.25759  0.13572  0.90925  1.0000
  S   S34       1.0  0.27414  0.10260  0.80582  1.0000
  S   S35       1.0  0.28118  0.10209  0.87102  1.0000
  C   C154      1.0  0.17596  0.17812  0.55388  1.0000
  C   C155      1.0  0.24235  0.14477  0.50310  1.0000
  H   H125      1.0  0.23570  0.20606  0.68544  1.0000
  C   C156      1.0  0.06230  0.19554  0.83939  1.0000
  H   H126      1.0  0.30836  0.20750  0.67962  1.0000
  C   C157      1.0  0.99418  0.21360  0.85837  1.0000
  C   C158      1.0  0.02132  0.21567  0.76255  1.0000
  H   H127      1.0  0.23532  0.24813  0.64357  1.0000
  C   C159      1.0  0.26906  0.07072  0.73964  1.0000
  H   H128      1.0  0.25769  0.17515  0.50715  1.0000
  C   C160      1.0  0.05718  0.23032  0.51251  1.0000
  P   P6        1.0  0.29173  0.20401  0.76199  1.0000
  H   H129      1.0  0.18059  0.02059  0.55962  1.0000
  C   C161      1.0  0.31748  0.16691  0.64295  1.0000
  H   H130      1.0  0.20593  0.06167  0.66692  1.0000
  C   C162      1.0  0.99426  0.19055  0.74010  1.0000
  H   H131      1.0  0.02362  0.19536  0.73373  1.0000
  C   C163      1.0  0.01405  0.20021  0.74433  1.0000
  C   C164      1.0  0.21805  0.07224  0.94650  1.0000
  C   C165      1.0  0.25329  0.16295  0.49367  1.0000
  H   H132      1.0  0.15225  0.00776  0.84806  1.0000
  H   H133      1.0  0.04300  0.22766  0.86225  1.0000
  C   C166      1.0  0.00845  0.22088  0.77704  1.0000
  H   H134      1.0  0.29165  0.24154  0.53033  1.0000
  H   H135      1.0  0.31622  0.16781  0.83406  1.0000
  H   H136      1.0  0.01350  0.23210  0.79213  1.0000
  C   C167      1.0  0.01259  0.21459  0.85261  1.0000
  C   C168      1.0  0.07677  0.22305  0.74203  1.0000
  H   H137      1.0  0.28376  0.19701  0.98580  1.0000
  H   H138      1.0  0.29875  0.24420  0.75290  1.0000
  C   C169      1.0  0.05276  0.21446  0.79694  1.0000
  C   C170      1.0  0.22320  0.21999  0.62556  1.0000
  C   C171      1.0  0.22244  0.23702  0.63535  1.0000
  C   C172      1.0  0.20515  0.23982  0.63452  1.0000
  C   C173      1.0  0.18837  0.22546  0.62418  1.0000
  C   C174      1.0  0.18915  0.20844  0.61449  1.0000
  C   C175      1.0  0.20647  0.20573  0.61496  1.0000
  H   H139      1.0  0.27967  0.14290  0.54051  1.0000
  H   H140      1.0  0.12589  0.06206  0.83493  1.0000
  C   C176      1.0  0.14412  0.05188  0.85818  1.0000
  H   H141      1.0  0.20683  0.19260  0.60726  1.0000
  C   C177      1.0  0.25552  0.13536  0.69453  1.0000
  C   C178      1.0  0.26014  0.12293  0.71118  1.0000
  C   C179      1.0  0.25652  0.12212  0.73870  1.0000
  C   C180      1.0  0.24789  0.13354  0.74969  1.0000
  C   C181      1.0  0.24323  0.14598  0.73305  1.0000
  C   C182      1.0  0.24735  0.14717  0.70561  1.0000
  H   H142      1.0  0.26681  0.11410  0.70272  1.0000
  H   H143      1.0  0.26011  0.11245  0.75128  1.0000
  H   H144      1.0  0.23630  0.15462  0.74140  1.0000
  H   H145      1.0  0.24378  0.15683  0.69295  1.0000
  H   H146      1.0  0.23132  0.01251  0.81637  1.0000
  H   H147      1.0  0.15522  0.24396  0.98792  1.0000
  C   C183      1.0  0.26174  0.11481  0.95241  1.0000
  C   C184      1.0  0.25858  0.13072  0.94366  1.0000
  C   C185      1.0  0.25553  0.14283  0.96265  1.0000
  H   H148      1.0  0.21315  0.05514  0.81429  1.0000
  H   H149      1.0  0.20189  0.23556  0.49405  1.0000
  H   H150      1.0  0.26412  0.10541  0.93797  1.0000
  H   H151      1.0  0.25300  0.15513  0.95603  1.0000
  H   H152      1.0  0.00387  0.17435  0.95404  1.0000
  C   C186      1.0  0.29156  0.22532  0.49486  1.0000
  C   C187      1.0  0.02713  0.20186  0.95363  1.0000
  C   C188      1.0  0.21356  0.01642  0.88716  1.0000
  C   C189      1.0  0.22590  0.03304  0.87434  1.0000
  C   C190      1.0  0.23248  0.03176  0.84876  1.0000
  C   C191      1.0  0.22635  0.01368  0.83614  1.0000
  H   H153      1.0  0.27099  0.11704  0.50659  1.0000
  S   S36       1.0  0.16600  0.22776  0.62332  1.0000
  H   H154      1.0  0.23047  0.04678  0.88438  1.0000
  C   C192      1.0  0.29744  0.18403  0.75224  1.0000
  H   H155      1.0  0.28860  0.18362  0.71053  1.0000
  H   H156      1.0  0.28249  0.18092  0.90881  1.0000
  C   C193      1.0  0.15304  0.01625  0.90333  1.0000
  C   C194      1.0  0.29896  0.16185  0.71825  1.0000
  H   H157      1.0  0.30816  0.17053  0.62937  1.0000
  H   H158      1.0  0.21357  0.16898  0.53109  1.0000
  C   C195      1.0  0.16563  0.01819  0.84103  1.0000
  C   C196      1.0  0.31167  0.14843  0.65280  1.0000
  C   C197      1.0  0.13662  0.01427  0.91751  1.0000
  H   H159      1.0  0.29777  0.13774  0.64678  1.0000
  C   C198      1.0  0.20657  0.08843  0.65285  1.0000
  C   C199      1.0  0.29619  0.19010  0.91786  1.0000
  C   C200      1.0  0.32351  0.21584  0.67748  1.0000
  H   H160      1.0  0.29621  0.15653  0.69781  1.0000
  C   C201      1.0  0.24880  0.23374  0.55810  1.0000
  H   H161      1.0  0.22672  0.05546  0.77137  1.0000
  C   C202      1.0  0.23678  0.06127  0.75553  1.0000
  H   H162      1.0  0.29451  0.22254  0.70988  1.0000
  H   H163      1.0  0.29531  0.13671  0.90165  1.0000
  C   C203      1.0  0.31069  0.13936  0.98395  1.0000
  C   C204      1.0  0.31242  0.24322  0.75672  1.0000
  H   H164      1.0  0.06882  0.20666  0.56292  1.0000
  C   C205      1.0  0.19337  0.04793  0.84641  1.0000
  C   C206      1.0  0.05120  0.19328  0.52810  1.0000
  H   H165      1.0  0.01415  0.20550  0.83698  1.0000
  H   H166      1.0  0.17065  0.04640  0.69353  1.0000
  C   C207      1.0  0.25529  0.13890  0.99017  1.0000
  H   H167      1.0  0.20200  0.06066  0.85767  1.0000
  H   H168      1.0  0.26300  0.23423  0.56251  1.0000
  H   H169      1.0  0.31329  0.15161  0.77905  1.0000
  C   C208      1.0  0.25572  0.06321  0.75965  1.0000
  C   C209      1.0  0.32226  0.13583  0.91401  1.0000
  C   C210      1.0  0.29463  0.17734  0.72561  1.0000
  S   S37       1.0  0.31991  0.20585  0.59046  1.0000
  C   C211      1.0  0.30993  0.20391  0.90265  1.0000
  C   C212      1.0  0.05332  0.22970  0.71493  1.0000
  C   C213      1.0  0.15381  0.05295  0.88280  1.0000
  H   H170      1.0  0.15742  0.16251  0.58519  1.0000
  H   H171      1.0  0.21244  0.04528  0.96515  1.0000
  C   C214      1.0  0.04574  0.21474  0.49618  1.0000
  H   H172      1.0  0.12343  0.08323  0.87123  1.0000
  C   C215      1.0  0.30028  0.18758  0.94463  1.0000
  C   C216      1.0  0.13326  0.06283  0.85401  1.0000
  C   C217      1.0  0.32562  0.09806  0.74924  1.0000
  C   C218      1.0  0.20504  0.01294  0.56154  1.0000
  C   C219      1.0  0.16406  0.19251  0.49577  1.0000
  C   C220      1.0  0.04312  0.19622  0.50395  1.0000
  C   C221      1.0  0.20700  0.10633  0.65991  1.0000
  C   C222      1.0  0.20647  0.11106  0.68684  1.0000
  C   C223      1.0  0.20592  0.09808  0.70680  1.0000
  C   C224      1.0  0.20536  0.07998  0.69990  1.0000
  H   H173      1.0  0.13995  0.08474  0.91513  1.0000
  P   P7        1.0  0.20632  0.06368  0.72555  1.0000
  C   C225      1.0  0.23097  0.06671  0.73117  1.0000
  C   C226      1.0  0.19665  0.06862  0.75610  1.0000
  C   C227      1.0  0.20808  0.08374  0.77302  1.0000
  C   C228      1.0  0.20043  0.08838  0.79588  1.0000
  C   C229      1.0  0.18143  0.07771  0.80239  1.0000
  C   C230      1.0  0.17000  0.06244  0.78588  1.0000
  C   C231      1.0  0.17751  0.05796  0.76273  1.0000
  C   C232      1.0  0.26113  0.11068  0.97992  1.0000
  P   P8        1.0  0.16768  0.03870  0.88842  1.0000
  C   C233      1.0  0.06529  0.22734  0.53659  1.0000
  C   C234      1.0  0.26343  0.07613  0.71533  1.0000
  C   C235      1.0  0.24446  0.07410  0.71105  1.0000
  H   H174      1.0  0.22859  0.00425  0.55729  1.0000
  H   H175      1.0  0.20736  0.08497  0.63196  1.0000
  H   H176      1.0  0.05880  0.23291  0.67266  1.0000
  C   C236      1.0  0.23639  0.21986  0.54044  1.0000
  H   H177      1.0  0.04729  0.23109  0.95211  1.0000
  H   H178      1.0  0.26013  0.05904  0.77851  1.0000
  C   C237      1.0  0.20573  0.07528  0.67273  1.0000
  H   H179      1.0  0.20822  0.11674  0.64458  1.0000
  H   H180      1.0  0.20719  0.12510  0.69231  1.0000
  H   H181      1.0  0.20636  0.10249  0.72750  1.0000
  H   H182      1.0  0.20140  0.14327  0.56372  1.0000
  H   H183      1.0  0.22283  0.09224  0.76824  1.0000
  H   H184      1.0  0.20923  0.10046  0.80836  1.0000
  H   H185      1.0  0.17562  0.08132  0.82021  1.0000
  H   H186      1.0  0.15528  0.05413  0.79092  1.0000
  H   H187      1.0  0.16828  0.04625  0.75012  1.0000
  C   C238      1.0  0.29855  0.16439  0.51478  1.0000
  H   H188      1.0  0.13222  0.02607  0.91950  1.0000
  H   H189      1.0  0.07431  0.23943  0.54895  1.0000
  C   C239      1.0  0.19203  0.03936  0.71508  1.0000
  H   H190      1.0  0.24058  0.07863  0.69215  1.0000
  C   C240      1.0  0.25428  0.19622  0.74349  1.0000
  C   C241      1.0  0.31141  0.22776  0.53433  1.0000
  H   H191      1.0  0.17619  0.19726  0.60667  1.0000
  C   C242      1.0  0.00792  0.18961  0.95613  1.0000
  C   C243      1.0  0.21760  0.21851  0.53590  1.0000
  C   C244      1.0  0.06227  0.20885  0.54441  1.0000
  C   C245      1.0  0.28119  0.13121  0.50190  1.0000
  S   S38       1.0  0.12650  0.24653  0.63350  1.0000
  C   C246      1.0  0.05312  0.25146  0.78010  1.0000
  H   H192      1.0  0.20889  0.01754  0.90712  1.0000
  H   H193      1.0  0.14492  0.04264  0.84217  1.0000
  H   H194      1.0  0.08046  0.23710  0.80553  1.0000
  C   C247      1.0  0.31897  0.21575  0.52223  1.0000
  H   H195      1.0  0.24946  0.18836  0.76171  1.0000
  H   H196      1.0  0.02292  0.24440  0.95993  1.0000
  C   C248      1.0  0.31798  0.19914  0.95672  1.0000
  C   C249      1.0  0.31599  0.15872  0.97853  1.0000
  H   H197      1.0  0.31088  0.12957  0.96836  1.0000
  H   H198      1.0  0.20998  0.02714  0.73543  1.0000
  C   C250      1.0  0.17834  0.15094  0.57612  1.0000
  C   C251      1.0  0.27952  0.21534  0.71435  1.0000
  C   C252      1.0  0.27390  0.20565  0.73858  1.0000
  C   C253      1.0  0.28022  0.21220  0.83995  1.0000
  C   C254      1.0  0.26811  0.19382  0.84746  1.0000
  C   C255      1.0  0.26314  0.17870  0.82905  1.0000
  C   C256      1.0  0.27037  0.18189  0.80324  1.0000
  C   C257      1.0  0.28268  0.20022  0.79557  1.0000
  C   C258      1.0  0.28744  0.21543  0.81406  1.0000
  C   C259      1.0  0.30450  0.17480  0.77134  1.0000
  C   C260      1.0  0.31338  0.22552  0.76190  1.0000
  H   H199      1.0  0.04914  0.17897  0.53397  1.0000
  C   C261      1.0  0.17631  0.03455  0.85652  1.0000
  C   C262      1.0  0.26578  0.21553  0.69538  1.0000
  H   H200      1.0  0.28396  0.22395  0.85419  1.0000
  H   H201      1.0  0.26247  0.19126  0.86747  1.0000
  H   H202      1.0  0.25365  0.16442  0.83468  1.0000
  H   H203      1.0  0.26637  0.17004  0.78919  1.0000
  H   H204      1.0  0.29674  0.22976  0.80865  1.0000
  H   H205      1.0  0.30657  0.17957  0.79203  1.0000
  C   C263      1.0  0.02899  0.22724  0.86679  1.0000
  C   C264      1.0  0.18942  0.02829  0.80667  1.0000
  C   C265      1.0  0.07519  0.21354  0.83182  1.0000
  C   C266      1.0  0.08693  0.22308  0.71901  1.0000
  H   H206      1.0  0.30691  0.20559  0.88174  1.0000
  C   C267      1.0  0.22370  0.24479  0.56732  1.0000
  H   H207      1.0  0.32072  0.16380  0.95871  1.0000
  H   H208      1.0  0.28374  0.07239  0.74308  1.0000
  H   H209      1.0  0.02616  0.18928  0.79429  1.0000
  C   C268      1.0  0.30558  0.15250  0.73745  1.0000
  C   C269      1.0  0.20086  0.16737  0.54200  1.0000
  C   C270      1.0  0.18568  0.00552  0.71591  1.0000
  H   H210      1.0  0.31709  0.16679  0.58147  1.0000
  C   C271      1.0  0.21119  0.23078  0.54994  1.0000
  C   C272      1.0  0.17513  0.03514  0.69963  1.0000
  C   C273      1.0  0.14113  0.07558  0.89921  1.0000
  C   C274      1.0  0.15198  0.06465  0.90345  1.0000
  C   C275      1.0  0.21596  0.00496  0.54771  1.0000
  H   H211      1.0  0.03780  0.19611  0.94972  1.0000
  C   C276      1.0  0.02724  0.23949  0.88649  1.0000
  C   C277      1.0  0.18779  0.05172  0.91069  1.0000
  C   C278      1.0  0.24057  0.19645  0.72445  1.0000
  C   C279      1.0  0.31065  0.14451  0.90331  1.0000
  H   H212      1.0  0.22545  0.18894  0.72817  1.0000
  H   H213      1.0  0.19181  0.23829  0.84471  1.0000
  C   C280      1.0  0.24631  0.20605  0.70038  1.0000
  C   C281      1.0  0.19980  0.04483  0.82157  1.0000
  C   C282      1.0  0.19323  0.04233  0.93140  1.0000
  P   P9        1.0  0.32241  0.19635  0.99196  1.0000
  H   H214      1.0  0.18593  0.02712  0.93401  1.0000
  C   C283      1.0  0.21293  0.08171  0.92582  1.0000
  C   C284      1.0  0.19783  0.07152  0.90800  1.0000
  H   H215      1.0  0.30799  0.13992  0.73184  1.0000
  C   C285      1.0  0.28607  0.14586  0.52105  1.0000
  C   C286      1.0  0.29767  0.23249  0.52072  1.0000
  C   C287      1.0  0.03993  0.19626  0.80448  1.0000
  H   H216      1.0  0.10023  0.22102  0.72062  1.0000
  H   H217      1.0  0.19637  0.22910  0.54830  1.0000
  C   C288      1.0  0.05984  0.22633  0.74017  1.0000
  C   C289      1.0  0.19143  0.17973  0.53777  1.0000
  H   H218      1.0  0.16929  0.18829  0.55234  1.0000
  H   H219      1.0  0.15898  0.06538  0.92283  1.0000
  H   H220      1.0  0.27379  0.08213  0.69986  1.0000
  C   C290      1.0  0.01874  0.22908  0.95962  1.0000
  H   H221      1.0  0.28962  0.17645  0.95586  1.0000
  H   H222      1.0  0.06041  0.24484  0.50651  1.0000
  H   H223      1.0  0.08901  0.22014  0.84207  1.0000
  H   H224      1.0  0.30200  0.17555  0.52990  1.0000
  H   H225      1.0  0.24125  0.20976  0.53113  1.0000
  H   H226      1.0  0.22952  0.08013  0.96057  1.0000
  H   H227      1.0  0.22067  0.09700  0.92372  1.0000
  H   H228      1.0  0.19397  0.07915  0.89224  1.0000
  P   P10       1.0  0.04679  0.22690  0.76981  1.0000
  H   H229      1.0  0.03458  0.17301  0.83172  1.0000
  C   C291      1.0  0.13182  0.07473  0.87448  1.0000
  H   H230      1.0  0.14387  0.24762  0.50037  1.0000
  H   H231      1.0  0.30978  0.16938  0.88476  1.0000
  C   C292      1.0  0.30843  0.15902  0.76400  1.0000
  H   H232      1.0  0.31828  0.08539  0.76082  1.0000
  C   C293      1.0  0.16931  0.16362  0.57275  1.0000
  P   P11       1.0  0.20106  0.19947  0.51524  1.0000
  H   H233      1.0  0.17334  0.13986  0.59095  1.0000
  H   H234      1.0  0.04047  0.23256  0.71303  1.0000
  C   C294      1.0  0.03252  0.22159  0.95515  1.0000
  C   C295      1.0  0.18789  0.24978  0.85137  1.0000
  H   H235      1.0  0.08246  0.22079  0.76112  1.0000
  H   H236      1.0  0.06601  0.18830  0.85581  1.0000
  C   C296      1.0  0.19719  0.02439  0.72326  1.0000
  C   C297      1.0  0.20830  0.05257  0.94918  1.0000
  C   C298      1.0  0.18896  0.01424  0.54903  1.0000
  H   H237      1.0  0.31588  0.12106  0.92002  1.0000
  C   C299      1.0  0.04465  0.18692  0.82577  1.0000
  C   C300      1.0  0.24250  0.24628  0.57139  1.0000
  C   C301      1.0  0.17614  0.24717  0.87341  1.0000
  H   H238      1.0  0.31594  0.23308  0.55455  1.0000
  C   C302      1.0  0.19413  0.15286  0.56080  1.0000
  H   H239      1.0  0.19477  0.02572  0.78779  1.0000
  H   H240      1.0  0.17083  0.23368  0.88374  1.0000
  C   C303      1.0  0.99950  0.21687  0.96227  1.0000
  H   H241      1.0  0.31960  0.22640  0.63890  1.0000
  H   H242      1.0  0.14043  0.24718  0.77696  1.0000
  H   H243      1.0  0.20912  0.01827  0.58187  1.0000
  H   H244      1.0  0.08872  0.22729  0.67641  1.0000
  C   C304      1.0  0.31882  0.16321  0.89441  1.0000
  C   C305      1.0  0.08042  0.22659  0.69405  1.0000
  H   H245      1.0  0.04494  0.24447  0.82105  1.0000
  S   S39       1.0  0.09471  0.24536  0.88992  1.0000
  H   H246      1.0  0.31872  0.12948  0.67809  1.0000
  C   C306      1.0  0.06361  0.22987  0.69200  1.0000
  H   H247      1.0  0.00619  0.19255  0.49847  1.0000
  C   C307      1.0  0.18277  0.20616  0.50026  1.0000
  C   C308      1.0  0.00878  0.23827  0.89265  1.0000
  H   H248      1.0  0.17136  0.00876  0.51316  1.0000
  C   C309      1.0  0.18372  0.00746  0.52276  1.0000
  C   C310      1.0  0.31320  0.20876  0.49606  1.0000
  H   H249      1.0  0.26311  0.09809  0.98657  1.0000
  H   H250      1.0  0.32507  0.08252  0.71290  1.0000
  C   C311      1.0  0.32363  0.14383  0.67059  1.0000
  C   C312      1.0  0.16369  0.01627  0.69227  1.0000
  H   H251      1.0  0.00722  0.24760  0.90793  1.0000
  H   H252      1.0  0.15065  0.01307  0.68038  1.0000
  H   H253      1.0  0.16029  0.17779  0.50135  1.0000
  C   C313      1.0  0.17229  0.01500  0.81635  1.0000
  C   C314      1.0  0.99391  0.19701  0.96029  1.0000
  H   H254      1.0  0.02368  0.24372  0.49306  1.0000
  S   S40       1.0  0.15960  0.38344  0.14629  1.0000
  Fe  Fe17      1.0  0.15782  0.26502  0.10778  1.0000
  S   S41       1.0  0.15404  0.28446  0.13880  1.0000
  Fe  Fe18      1.0  0.12187  0.26136  0.35347  1.0000
  Fe  Fe19      1.0  0.12558  0.29785  0.38278  1.0000
  S   S42       1.0  0.14072  0.27819  0.38762  1.0000
  S   S43       1.0  0.14063  0.33026  0.38403  1.0000
  C   C315      1.0  0.10227  0.32771  0.10443  1.0000
  H   H255      1.0  0.31722  0.49042  0.42886  1.0000
  S   S44       1.0  0.10814  0.28219  0.34654  1.0000
  S   S45       1.0  0.10235  0.28202  0.41150  1.0000
  C   C316      1.0  0.16575  0.34291  0.38863  1.0000
  C   C317      1.0  0.17347  0.36293  0.38768  1.0000
  H   H256      1.0  0.17243  0.31821  0.39419  1.0000
  H   H257      1.0  0.16410  0.37025  0.38345  1.0000
  C   C318      1.0  0.16155  0.34849  0.15213  1.0000
  C   C319      1.0  0.17109  0.33603  0.15336  1.0000
  H   H258      1.0  0.14616  0.34294  0.15399  1.0000
  H   H259      1.0  0.16304  0.32110  0.15668  1.0000
  C   C320      1.0  0.05695  0.26565  0.10734  1.0000
  C   C321      1.0  0.12182  0.33199  0.10201  1.0000
  H   H260      1.0  0.11953  0.28825  0.08371  1.0000
  H   H261      1.0  0.24452  0.46110  0.18979  1.0000
  H   H262      1.0  0.01274  0.49762  0.09170  1.0000
  C   C322      1.0  0.26974  0.39787  0.02771  1.0000
  C   C323      1.0  0.16346  0.37027  0.46900  1.0000
  C   C324      1.0  0.12518  0.26391  0.27891  1.0000
  C   C325      1.0  0.07688  0.29307  0.30338  1.0000
  C   C326      1.0  0.08098  0.30669  0.28332  1.0000
  C   C327      1.0  0.07760  0.30087  0.25646  1.0000
  C   C328      1.0  0.03534  0.27092  0.47389  1.0000
  H   H263      1.0  0.00645  0.43060  0.09918  1.0000
  H   H264      1.0  0.19670  0.49290  0.13997  1.0000
  C   C329      1.0  0.19229  0.49612  0.12048  1.0000
  H   H265      1.0  0.11280  0.31363  0.48311  1.0000
  H   H266      1.0  0.11761  0.26945  0.29237  1.0000
  C   C330      1.0  0.08884  0.30905  0.09976  1.0000
  H   H267      1.0  0.07377  0.30603  0.10167  1.0000
  C   C331      1.0  0.99606  0.46839  0.08089  1.0000
  C   C332      1.0  0.02716  0.50061  0.40118  1.0000
  C   C333      1.0  0.06973  0.27366  0.29662  1.0000
  H   H268      1.0  0.07925  0.29750  0.32429  1.0000
  H   H269      1.0  0.08679  0.32174  0.28864  1.0000
  H   H270      1.0  0.14920  0.36391  0.00764  1.0000
  H   H271      1.0  0.21924  0.33164  0.02909  1.0000
  C   C334      1.0  0.00557  0.50137  0.31270  1.0000
  H   H272      1.0  0.31916  0.46029  0.21078  1.0000
  P   P12       1.0  0.00175  0.49244  0.39374  1.0000
  C   C335      1.0  0.11454  0.29908  0.08963  1.0000
  C   C336      1.0  0.17292  0.33290  0.02875  1.0000
  C   C337      1.0  0.15625  0.31736  0.46160  1.0000
  C   C338      1.0  0.17781  0.34728  0.04854  1.0000
  C   C339      1.0  0.18165  0.34340  0.07491  1.0000
  C   C340      1.0  0.18069  0.32526  0.08150  1.0000
  C   C341      1.0  0.17595  0.31098  0.06187  1.0000
  C   C342      1.0  0.17207  0.31475  0.03559  1.0000
  H   H273      1.0  0.17846  0.36135  0.04381  1.0000
  H   H274      1.0  0.18511  0.35428  0.09044  1.0000
  H   H275      1.0  0.18345  0.32216  0.10187  1.0000
  H   H276      1.0  0.17497  0.29686  0.06710  1.0000
  H   H277      1.0  0.16798  0.30331  0.02077  1.0000
  C   C343      1.0  0.13851  0.32437  0.30756  1.0000
  C   C344      1.0  0.13041  0.31416  0.28398  1.0000
  C   C345      1.0  0.13983  0.31968  0.25981  1.0000
  H   H278      1.0  0.13119  0.32032  0.32630  1.0000
  H   H279      1.0  0.11691  0.30192  0.28447  1.0000
  H   H280      1.0  0.13355  0.31181  0.24149  1.0000
  C   C346      1.0  0.15629  0.33971  0.30718  1.0000
  H   H281      1.0  0.02876  0.27753  0.48743  1.0000
  C   C347      1.0  0.15752  0.33521  0.25928  1.0000
  C   C348      1.0  0.16612  0.34497  0.28314  1.0000
  H   H282      1.0  0.16250  0.34726  0.32578  1.0000
  H   H283      1.0  0.16442  0.33939  0.24027  1.0000
  S   S46       1.0  0.15150  0.46463  0.16626  1.0000
  C   C349      1.0  0.17808  0.33361  0.39370  1.0000
  C   C350      1.0  0.17188  0.36812  0.14907  1.0000
  P   P13       1.0  0.18959  0.36405  0.28348  1.0000
  S   S47       1.0  0.18426  0.27534  0.17775  1.0000
  Fe  Fe20      1.0  0.18561  0.29611  0.14554  1.0000
  S   S48       1.0  0.19004  0.27853  0.11212  1.0000
  C   C351      1.0  0.14909  0.48416  0.18287  1.0000
  H   H284      1.0  0.19592  0.33442  0.25298  1.0000
  H   H285      1.0  0.26557  0.49436  0.31899  1.0000
  C   C352      1.0  0.19089  0.40038  0.46944  1.0000
  Fe  Fe21      1.0  0.18625  0.25641  0.14394  1.0000
  C   C353      1.0  0.13557  0.25374  0.28915  1.0000
  C   C354      1.0  0.06357  0.48289  0.19523  1.0000
  P   P14       1.0  0.18809  0.31437  0.48652  1.0000
  H   H286      1.0  0.15239  0.35883  0.45785  1.0000
  H   H287      1.0  0.16404  0.31932  0.44323  1.0000
  H   H288      1.0  0.18898  0.34997  0.46208  1.0000
  H   H289      1.0  0.08433  0.47042  0.20130  1.0000
  C   C355      1.0  0.07646  0.47521  0.18670  1.0000
  H   H290      1.0  0.04392  0.49547  0.18361  1.0000
  H   H291      1.0  0.13158  0.31904  0.44165  1.0000
  H   H292      1.0  0.08928  0.46788  0.15276  1.0000
  C   C356      1.0  0.07939  0.47394  0.15936  1.0000
  C   C357      1.0  0.13779  0.31716  0.46064  1.0000
  C   C358      1.0  0.09495  0.29448  0.09293  1.0000
  C   C359      1.0  0.24828  0.49448  0.45090  1.0000
  C   C360      1.0  0.05697  0.48868  0.14902  1.0000
  C   C361      1.0  0.06977  0.48075  0.14061  1.0000
  H   H293      1.0  0.05282  0.28269  0.05403  1.0000
  C   C362      1.0  0.20150  0.49402  0.09756  1.0000
  H   H294      1.0  0.03360  0.45623  0.12190  1.0000
  C   C363      1.0  0.02333  0.45990  0.11044  1.0000
  H   H295      1.0  0.13499  0.31544  0.03191  1.0000
  P   P15       1.0  0.04521  0.49809  0.12463  1.0000
  C   C364      1.0  0.32199  0.47072  0.25175  1.0000
  C   C365      1.0  0.19552  0.49784  0.07240  1.0000
  C   C366      1.0  0.29603  0.48677  0.27577  1.0000
  C   C367      1.0  0.02530  0.47895  0.10837  1.0000
  S   S49       1.0  0.17161  0.42729  0.19438  1.0000
  H   H296      1.0  0.12166  0.47832  0.16391  1.0000
  S   S50       1.0  0.17788  0.43891  0.13082  1.0000
  Fe  Fe22      1.0  0.17712  0.41458  0.15654  1.0000
  C   C368      1.0  0.13246  0.48759  0.17772  1.0000
  Fe  Fe23      1.0  0.17498  0.45299  0.16943  1.0000
  C   C369      1.0  0.09467  0.45951  0.09274  1.0000
  H   H297      1.0  0.08149  0.44685  0.09308  1.0000
  H   H298      1.0  0.08233  0.47587  0.06964  1.0000
  C   C370      1.0  0.09515  0.47582  0.07956  1.0000
  H   H299      1.0  0.08678  0.25611  0.22320  1.0000
  H   H300      1.0  0.16281  0.25954  0.42362  1.0000
  C   C371      1.0  0.01149  0.48305  0.09357  1.0000
  H   H301      1.0  0.14085  0.47539  0.11517  1.0000
  H   H302      1.0  0.11094  0.44705  0.11616  1.0000
  C   C372      1.0  0.11120  0.45956  0.10564  1.0000
  C   C373      1.0  0.12827  0.47579  0.10509  1.0000
  H   H303      1.0  0.03284  0.48614  0.36708  1.0000
  H   H304      1.0  0.28561  0.47586  0.47172  1.0000
  C   C374      1.0  0.12882  0.31735  0.01298  1.0000
  C   C375      1.0  0.18587  0.38559  0.29039  1.0000
  H   H305      1.0  0.14305  0.32090  0.09281  1.0000
  H   H306      1.0  0.10657  0.27105  0.12862  1.0000
  H   H307      1.0  0.26684  0.38313  0.03202  1.0000
  H   H308      1.0  0.09761  0.33888  0.11021  1.0000
  C   C376      1.0  0.17961  0.39441  0.26981  1.0000
  C   C377      1.0  0.29386  0.47503  0.48917  1.0000
  C   C378      1.0  0.18850  0.39335  0.31649  1.0000
  C   C379      1.0  0.20301  0.34784  0.24292  1.0000
  H   H309      1.0  0.21343  0.33510  0.21166  1.0000
  C   C380      1.0  0.21312  0.34820  0.21975  1.0000
  H   H310      1.0  0.19246  0.38641  0.33304  1.0000
  C   C381      1.0  0.00788  0.44526  0.09764  1.0000
  H   H311      1.0  0.23345  0.33583  0.11310  1.0000
  H   H312      1.0  0.02885  0.49800  0.00315  1.0000
  H   H313      1.0  0.28146  0.25345  0.22860  1.0000
  C   C382      1.0  0.16318  0.49637  0.20050  1.0000
  H   H314      1.0  0.18826  0.32936  0.31069  1.0000
  C   C383      1.0  0.20075  0.34140  0.31803  1.0000
  C   C384      1.0  0.20195  0.36466  0.25284  1.0000
  H   H315      1.0  0.29709  0.44992  0.47431  1.0000
  C   C385      1.0  0.20458  0.35994  0.30906  1.0000
  C   C386      1.0  0.12401  0.26628  0.25111  1.0000
  Fe  Fe24      1.0  0.15261  0.26254  0.16914  1.0000
  H   H316      1.0  0.20975  0.32398  0.34421  1.0000
  C   C387      1.0  0.21308  0.33822  0.33676  1.0000
  H   H317      1.0  0.19722  0.41553  0.01863  1.0000
  C   C388      1.0  0.17640  0.38573  0.45529  1.0000
  C   C389      1.0  0.12894  0.49221  0.09182  1.0000
  H   H318      1.0  0.29086  0.45272  0.30765  1.0000
  H   H319      1.0  0.17525  0.38634  0.43370  1.0000
  C   C390      1.0  0.06428  0.26608  0.99648  1.0000
  H   H320      1.0  0.04853  0.29619  0.45038  1.0000
  H   H321      1.0  0.18890  0.41665  0.34144  1.0000
  C   C391      1.0  0.13323  0.25854  0.23336  1.0000
  H   H322      1.0  0.09933  0.26482  0.47223  1.0000
  C   C392      1.0  0.12193  0.25569  0.48309  1.0000
  C   C393      1.0  0.18618  0.41036  0.32148  1.0000
  H   H323      1.0  0.00299  0.49142  0.23258  1.0000
  H   H324      1.0  0.24697  0.38859  0.47773  1.0000
  H   H325      1.0  0.10002  0.30357  0.02672  1.0000
  C   C394      1.0  0.99428  0.44952  0.08280  1.0000
  C   C395      1.0  0.28287  0.40697  0.00790  1.0000
  C   C396      1.0  0.27366  0.42865  0.14598  1.0000
  C   C397      1.0  0.10812  0.26299  0.48843  1.0000
  H   H326      1.0  0.06139  0.48410  0.21645  1.0000
  H   H327      1.0  0.06661  0.26344  0.31256  1.0000
  C   C398      1.0  0.17420  0.28342  0.45112  1.0000
  H   H328      1.0  0.28963  0.39921  0.99679  1.0000
  H   H329      1.0  0.31485  0.49155  0.20607  1.0000
  H   H330      1.0  0.31424  0.47614  0.36776  1.0000
  H   H331      1.0  0.23315  0.48529  0.45000  1.0000
  H   H332      1.0  0.06306  0.28088  0.41899  1.0000
  H   H333      1.0  0.17699  0.38845  0.24965  1.0000
  S   S51       1.0  0.05439  0.26028  0.36755  1.0000
  C   C399      1.0  0.26578  0.42731  0.03664  1.0000
  C   C400      1.0  0.05480  0.27283  0.43549  1.0000
  H   H334      1.0  0.13227  0.34637  0.10614  1.0000
  H   H335      1.0  0.12149  0.27952  0.03200  1.0000
  C   C401      1.0  0.19322  0.37360  0.39227  1.0000
  H   H336      1.0  0.25848  0.45624  0.23266  1.0000
  C   C402      1.0  0.23566  0.37462  0.47995  1.0000
  H   H337      1.0  0.04572  0.28049  0.00522  1.0000
  C   C403      1.0  0.07006  0.28143  0.24965  1.0000
  H   H338      1.0  0.11584  0.27404  0.24337  1.0000
  C   C404      1.0  0.17482  0.27282  0.42855  1.0000
  S   S52       1.0  0.31431  0.45115  0.42049  1.0000
  C   C405      1.0  0.04648  0.28143  0.45309  1.0000
  Fe  Fe25      1.0  0.08584  0.26456  0.37553  1.0000
  P   P16       1.0  0.07778  0.27024  0.08748  1.0000
  C   C406      1.0  0.27120  0.40620  0.11008  1.0000
  C   C407      1.0  0.12792  0.31767  0.09449  1.0000
  C   C408      1.0  0.27175  0.47874  0.17349  1.0000
  C   C409      1.0  0.17725  0.41139  0.27489  1.0000
  H   H339      1.0  0.28055  0.43617  0.16426  1.0000
  C   C410      1.0  0.05373  0.48947  0.17647  1.0000
  H   H340      1.0  0.17609  0.49397  0.20456  1.0000
  H   H341      1.0  0.22898  0.36668  0.02744  1.0000
  H   H342      1.0  0.23810  0.42584  0.10180  1.0000
  C   C411      1.0  0.18072  0.41947  0.30064  1.0000
  H   H343      1.0  0.17942  0.43290  0.30435  1.0000
  H   H344      1.0  0.06741  0.49678  0.37782  1.0000
  H   H345      1.0  0.20102  0.41233  0.45882  1.0000
  H   H346      1.0  0.22722  0.41085  0.02274  1.0000
  C   C412      1.0  0.25883  0.49631  0.47480  1.0000
  H   H347      1.0  0.26548  0.48098  0.15471  1.0000
  C   C413      1.0  0.27960  0.48311  0.29075  1.0000
  C   C414      1.0  0.11215  0.49218  0.07934  1.0000
  C   C415      1.0  0.21741  0.37079  0.46912  1.0000
  H   H348      1.0  0.28248  0.45131  0.01264  1.0000
  H   H349      1.0  0.00778  0.49287  0.14655  1.0000
  S   S53       1.0  0.13757  0.26452  0.07325  1.0000
  C   C416      1.0  0.22944  0.35344  0.34630  1.0000
  H   H350      1.0  0.23866  0.35112  0.36151  1.0000
  H   H351      1.0  0.25193  0.46073  0.01760  1.0000
  S   S54       1.0  0.26501  0.42901  0.38043  1.0000
  Fe  Fe26      1.0  0.28204  0.44402  0.41745  1.0000
  C   C417      1.0  0.05840  0.50083  0.39087  1.0000
  S   S55       1.0  0.26188  0.42274  0.44553  1.0000
  H   H352      1.0  0.25351  0.44216  0.14340  1.0000
  C   C418      1.0  0.26629  0.41110  0.25681  1.0000
  C   C419      1.0  0.29956  0.48440  0.20251  1.0000
  H   H353      1.0  0.17390  0.40631  0.05515  1.0000
  H   H354      1.0  0.17323  0.41856  0.25864  1.0000
  H   H355      1.0  0.19892  0.38898  0.39140  1.0000
  Fe  Fe27      1.0  0.24897  0.44799  0.38563  1.0000
  C   C420      1.0  0.19098  0.34303  0.15084  1.0000
  H   H356      1.0  0.23319  0.41946  0.27957  1.0000
  C   C421      1.0  0.20700  0.45330  0.03699  1.0000
  C   C422      1.0  0.20127  0.36264  0.14765  1.0000
  S   S56       1.0  0.24090  0.46473  0.35372  1.0000
  H   H357      1.0  0.27648  0.39649  0.10061  1.0000
  H   H358      1.0  0.24123  0.43099  0.32659  1.0000
  C   C423      1.0  0.22863  0.45999  0.07584  1.0000
  H   H359      1.0  0.25862  0.39316  0.29136  1.0000
  C   C424      1.0  0.12898  0.27190  0.02235  1.0000
  C   C425      1.0  0.19101  0.39602  0.08037  1.0000
  H   H360      1.0  0.22164  0.31627  0.07183  1.0000
  C   C426      1.0  0.21175  0.38190  0.23978  1.0000
  H   H361      1.0  0.21718  0.32094  0.44488  1.0000
  H   H362      1.0  0.23022  0.36551  0.18858  1.0000
  C   C427      1.0  0.23295  0.34269  0.09429  1.0000
  C   C428      1.0  0.22129  0.37509  0.31823  1.0000
  C   C429      1.0  0.26581  0.40758  0.28425  1.0000
  C   C430      1.0  0.19178  0.37514  0.14721  1.0000
  C   C431      1.0  0.20005  0.40893  0.03635  1.0000
  S   S57       1.0  0.20339  0.32774  0.15103  1.0000
  C   C432      1.0  0.99610  0.49183  0.35832  1.0000
  C   C433      1.0  0.22164  0.39913  0.06270  1.0000
  H   H363      1.0  0.24284  0.37053  0.11214  1.0000
  Fe  Fe28      1.0  0.20940  0.45185  0.14036  1.0000
  H   H364      1.0  0.19273  0.44991  0.02875  1.0000
  C   C434      1.0  0.22626  0.33164  0.07100  1.0000
  H   H365      1.0  0.21141  0.38770  0.10130  1.0000
  C   C435      1.0  0.03884  0.49502  0.38469  1.0000
  C   C436      1.0  0.22190  0.45478  0.01978  1.0000
  H   H366      1.0  0.27427  0.41991  0.32374  1.0000
  C   C437      1.0  0.23774  0.37140  0.06931  1.0000
  C   C438      1.0  0.20576  0.29694  0.41796  1.0000
  C   C439      1.0  0.24369  0.46217  0.05858  1.0000
  C   C440      1.0  0.22641  0.46476  0.30283  1.0000
  C   C441      1.0  0.20823  0.39356  0.08307  1.0000
  H   H367      1.0  0.25945  0.39939  0.24274  1.0000
  C   C442      1.0  0.22415  0.44179  0.26768  1.0000
  S   S58       1.0  0.20881  0.42654  0.16323  1.0000
  C   C443      1.0  0.20532  0.30745  0.44080  1.0000
  Fe  Fe29      1.0  0.20367  0.44077  0.19991  1.0000
  C   C444      1.0  0.22175  0.38221  0.21653  1.0000
  C   C445      1.0  0.21024  0.45547  0.06490  1.0000
  Fe  Fe30      1.0  0.24360  0.40952  0.40883  1.0000
  S   S59       1.0  0.22650  0.42751  0.41138  1.0000
  C   C446      1.0  0.22492  0.34034  0.04692  1.0000
  C   C447      1.0  0.21730  0.40652  0.03899  1.0000
  H   H368      1.0  0.18099  0.39222  0.09657  1.0000
  C   C448      1.0  0.18697  0.40385  0.05702  1.0000
  C   C449      1.0  0.23575  0.43856  0.31270  1.0000
  S   S60       1.0  0.21967  0.43339  0.23415  1.0000
  H   H369      1.0  0.20722  0.33702  0.40253  1.0000
  C   C450      1.0  0.27464  0.42265  0.30246  1.0000
  C   C451      1.0  0.24030  0.45928  0.03068  1.0000
  H   H370      1.0  0.08074  0.31146  0.24092  1.0000
  H   H371      1.0  0.19853  0.45387  0.07790  1.0000
  H   H372      1.0  0.19066  0.27164  0.39389  1.0000
  C   C452      1.0  0.19781  0.34430  0.39849  1.0000
  C   C453      1.0  0.19051  0.27964  0.41182  1.0000
  C   C454      1.0  0.22255  0.36538  0.20663  1.0000
  C   C455      1.0  0.23356  0.37186  0.33702  1.0000
  H   H373      1.0  0.21178  0.39516  0.24747  1.0000
  C   C456      1.0  0.25551  0.40911  0.09872  1.0000
  S   S61       1.0  0.23037  0.37720  0.40442  1.0000
  C   C457      1.0  0.05944  0.27571  0.04115  1.0000
  H   H374      1.0  0.21781  0.30238  0.40478  1.0000
  C   C458      1.0  0.18947  0.30076  0.45753  1.0000
  C   C459      1.0  0.22162  0.45810  0.27620  1.0000
  C   C460      1.0  0.23357  0.45507  0.32113  1.0000
  H   H375      1.0  0.24597  0.38369  0.34505  1.0000
  H   H376      1.0  0.19986  0.39014  0.14455  1.0000
  S   S62       1.0  0.20700  0.46762  0.17759  1.0000
  P   P17       1.0  0.24415  0.39684  0.06799  1.0000
  C   C461      1.0  0.23048  0.36013  0.04610  1.0000
  Fe  Fe31      1.0  0.24611  0.44214  0.44629  1.0000
  S   S63       1.0  0.23344  0.46369  0.11079  1.0000
  H   H377      1.0  0.21478  0.38174  0.45805  1.0000
  C   C462      1.0  0.23121  0.43207  0.28603  1.0000
  C   C463      1.0  0.23846  0.36246  0.09358  1.0000
  C   C464      1.0  0.13945  0.26398  0.03810  1.0000
  C   C465      1.0  0.28392  0.44127  0.29324  1.0000
  C   C466      1.0  0.20547  0.36434  0.39796  1.0000
  H   H378      1.0  0.22873  0.39554  0.20614  1.0000
  H   H379      1.0  0.21660  0.36821  0.14534  1.0000
  H   H380      1.0  0.22471  0.38943  0.31113  1.0000
  H   H381      1.0  0.22473  0.47757  0.30920  1.0000
  H   H382      1.0  0.21626  0.46572  0.26220  1.0000
  H   H383      1.0  0.06702  0.27733  0.22878  1.0000
  H   H384      1.0  0.16170  0.27819  0.46350  1.0000
  H   H385      1.0  0.01560  0.25738  0.36234  1.0000
  C   C467      1.0  0.24950  0.42247  0.11070  1.0000
  H   H386      1.0  0.26764  0.46939  0.28932  1.0000
  H   H387      1.0  0.29214  0.41341  0.14253  1.0000
  S   S64       1.0  0.23067  0.44801  0.48154  1.0000
  C   C468      1.0  0.20643  0.33819  0.48459  1.0000
  H   H388      1.0  0.25802  0.46596  0.06684  1.0000
  C   C469      1.0  0.06633  0.26763  0.26970  1.0000
  S   S65       1.0  0.26739  0.46438  0.42065  1.0000
  H   H389      1.0  0.07235  0.47994  0.11956  1.0000
  C   C470      1.0  0.28776  0.47255  0.22197  1.0000
  C   C471      1.0  0.20281  0.35266  0.47136  1.0000
  C   C472      1.0  0.29156  0.48729  0.17822  1.0000
  H   H390      1.0  0.14158  0.50021  0.03514  1.0000
  C   C473      1.0  0.28013  0.41582  0.13376  1.0000
  H   H391      1.0  0.25948  0.43541  0.04792  1.0000
  H   H392      1.0  0.27601  0.43203  0.22614  1.0000
  C   C474      1.0  0.27890  0.43638  0.01687  1.0000
  C   C475      1.0  0.28415  0.44499  0.26569  1.0000
  S   S66       1.0  0.12905  0.25916  0.19851  1.0000
  C   C476      1.0  0.16445  0.31474  0.48596  1.0000
  P   P18       1.0  0.29758  0.46872  0.25362  1.0000
  C   C477      1.0  0.25992  0.46750  0.19316  1.0000
  C   C478      1.0  0.26077  0.40791  0.04182  1.0000
  C   C479      1.0  0.26787  0.46460  0.21738  1.0000
  Fe  Fe32      1.0  0.11646  0.26114  0.41381  1.0000
  C   C480      1.0  0.25842  0.43201  0.13434  1.0000
  C   C481      1.0  0.27558  0.42968  0.24751  1.0000
  H   H393      1.0  0.21321  0.48931  0.09930  1.0000
  H   H394      1.0  0.20263  0.49601  0.05466  1.0000
  C   C482      1.0  0.12729  0.31424  0.48397  1.0000
  C   C483      1.0  0.10888  0.31068  0.01019  1.0000
  C   C484      1.0  0.02519  0.25565  0.14045  1.0000
  C   C485      1.0  0.27832  0.49731  0.30743  1.0000
  C   C486      1.0  0.28738  0.42619  0.00241  1.0000
  C   C487      1.0  0.30028  0.46020  0.49065  1.0000
  H   H395      1.0  0.09126  0.25424  0.04235  1.0000
  H   H396      1.0  0.15644  0.39692  0.99345  1.0000
  H   H397      1.0  0.02852  0.25987  0.27484  1.0000
  H   H398      1.0  0.07343  0.28057  0.14244  1.0000
  C   C488      1.0  0.14945  0.25444  0.02554  1.0000
  P   P19       1.0  0.16624  0.33667  0.99512  1.0000
  H   H399      1.0  0.30066  0.49629  0.16309  1.0000
  C   C489      1.0  0.05218  0.25375  0.43871  1.0000
  C   C490      1.0  0.07203  0.26802  0.05198  1.0000
  H   H400      1.0  0.04536  0.27219  0.17116  1.0000
  C   C491      1.0  0.05929  0.27208  0.13410  1.0000
  C   C492      1.0  0.16167  0.37114  0.99573  1.0000
  C   C493      1.0  0.04343  0.26724  0.15050  1.0000
  C   C494      1.0  0.10033  0.25693  0.11958  1.0000
  C   C495      1.0  0.08097  0.25970  0.03467  1.0000
  H   H401      1.0  0.14075  0.49852  0.49184  1.0000
  C   C496      1.0  0.05547  0.27459  0.01352  1.0000
  C   C497      1.0  0.12775  0.26965  0.99432  1.0000
  C   C498      1.0  0.07705  0.25868  0.00707  1.0000
  C   C499      1.0  0.17714  0.50208  0.11833  1.0000
  C   C500      1.0  0.03867  0.25357  0.09761  1.0000
  H   H402      1.0  0.24922  0.50192  0.40925  1.0000
  C   C501      1.0  0.08655  0.25264  0.09869  1.0000
  H   H403      1.0  0.08416  0.25236  0.99385  1.0000
  H   H404      1.0  0.25159  0.48865  0.49223  1.0000
  Fe  Fe33      1.0  0.20576  0.46967  0.66406  1.0000
  S   S67       1.0  0.23741  0.47639  0.66954  1.0000
  H   H405      1.0  0.13872  0.25409  0.72856  1.0000
  Fe  Fe34      1.0  0.19570  0.42701  0.66121  1.0000
  S   S68       1.0  0.22613  0.43075  0.66663  1.0000
  S   S69       1.0  0.17198  0.39770  0.65621  1.0000
  Fe  Fe35      1.0  0.22810  0.45218  0.69871  1.0000
  S   S70       1.0  0.24478  0.44891  0.73548  1.0000
  Fe  Fe36      1.0  0.23266  0.45429  0.63706  1.0000
  S   S71       1.0  0.25431  0.45564  0.60546  1.0000
  S   S72       1.0  0.19682  0.44691  0.69537  1.0000
  S   S73       1.0  0.20181  0.44925  0.62945  1.0000
  Fe  Fe37      1.0  0.13224  0.26991  0.60361  1.0000
  S   S74       1.0  0.16327  0.27557  0.59984  1.0000
  S   S75       1.0  0.16616  0.27461  0.66619  1.0000
  Fe  Fe38      1.0  0.16845  0.29622  0.63435  1.0000
  S   S76       1.0  0.19245  0.32575  0.63437  1.0000
  S   S77       1.0  0.13777  0.29208  0.63576  1.0000
  Fe  Fe39      1.0  0.23330  0.41207  0.91677  1.0000
  S   S78       1.0  0.21718  0.43101  0.91664  1.0000
  S   S79       1.0  0.21923  0.37986  0.90941  1.0000
  Fe  Fe40      1.0  0.27189  0.44598  0.92845  1.0000
  S   S80       1.0  0.25801  0.46732  0.92873  1.0000
  S   S81       1.0  0.30358  0.45061  0.93392  1.0000
  Fe  Fe41      1.0  0.23512  0.44547  0.95303  1.0000
  C   C502      1.0  0.14625  0.31010  0.82715  1.0000
  Fe  Fe42      1.0  0.24109  0.45097  0.89238  1.0000
  S   S82       1.0  0.23155  0.46440  0.85729  1.0000
  S   S83       1.0  0.24979  0.42498  0.95493  1.0000
  S   S84       1.0  0.25640  0.43115  0.89027  1.0000
  C   C503      1.0  0.99348  0.46388  0.94749  1.0000
  Fe  Fe43      1.0  0.11659  0.30087  0.89189  1.0000
  S   S85       1.0  0.13437  0.28385  0.88659  1.0000
  S   S86       1.0  0.12909  0.33337  0.89301  1.0000
  C   C504      1.0  0.19242  0.30370  0.51689  1.0000
  S   S87       1.0  0.11244  0.27061  0.56920  1.0000
  Fe  Fe44      1.0  0.07930  0.26505  0.89450  1.0000
  S   S88       1.0  0.09444  0.28408  0.86047  1.0000
  S   S89       1.0  0.10042  0.28331  0.92620  1.0000
  C   C505      1.0  0.19404  0.36742  0.90565  1.0000
  C   C506      1.0  0.18616  0.34746  0.90719  1.0000
  C   C507      1.0  0.16636  0.33694  0.90337  1.0000
  C   C508      1.0  0.15410  0.34629  0.89836  1.0000
  C   C509      1.0  0.16189  0.36632  0.89747  1.0000
  C   C510      1.0  0.18178  0.37684  0.90098  1.0000
  H   H406      1.0  0.19541  0.34013  0.91182  1.0000
  H   H407      1.0  0.16059  0.32159  0.90428  1.0000
  H   H408      1.0  0.15255  0.37377  0.89406  1.0000
  H   H409      1.0  0.18760  0.39221  0.90025  1.0000
  H   H410      1.0  0.20364  0.26895  0.82091  1.0000
  C   C511      1.0  0.11661  0.26508  0.53618  1.0000
  Fe  Fe45      1.0  0.15832  0.25338  0.63154  1.0000
  Fe  Fe46      1.0  0.11694  0.26510  0.91877  1.0000
  C   C512      1.0  0.14860  0.48426  0.70268  1.0000
  S   S90       1.0  0.21655  0.45044  0.98502  1.0000
  S   S91       1.0  0.11654  0.27211  0.69969  1.0000
  C   C513      1.0  0.17657  0.49793  0.82694  1.0000
  C   C514      1.0  0.24707  0.45234  0.57119  1.0000
  C   C515      1.0  0.23031  0.45414  0.56221  1.0000
  C   C516      1.0  0.22551  0.45268  0.53470  1.0000
  C   C517      1.0  0.23719  0.44905  0.51593  1.0000
  C   C518      1.0  0.25367  0.44671  0.52492  1.0000
  C   C519      1.0  0.25874  0.44862  0.55243  1.0000
  H   H411      1.0  0.22127  0.45713  0.57637  1.0000
  H   H412      1.0  0.21275  0.45454  0.52790  1.0000
  H   H413      1.0  0.26253  0.44354  0.51069  1.0000
  H   H414      1.0  0.27170  0.44715  0.55919  1.0000
  C   C520      1.0  0.24063  0.45319  0.76914  1.0000
  C   C521      1.0  0.23017  0.46405  0.77579  1.0000
  C   C522      1.0  0.22736  0.46724  0.80288  1.0000
  C   C523      1.0  0.23495  0.45960  0.82351  1.0000
  C   C524      1.0  0.24521  0.44855  0.81682  1.0000
  C   C525      1.0  0.24813  0.44548  0.78976  1.0000
  H   H415      1.0  0.22446  0.47012  0.76006  1.0000
  H   H416      1.0  0.21943  0.47583  0.80787  1.0000
  H   H417      1.0  0.25117  0.44264  0.83249  1.0000
  H   H418      1.0  0.25628  0.43711  0.78478  1.0000
  C   C526      1.0  0.17803  0.37808  0.64911  1.0000
  C   C527      1.0  0.16342  0.35980  0.64776  1.0000
  C   C528      1.0  0.16766  0.34379  0.64276  1.0000
  C   C529      1.0  0.18654  0.34582  0.63891  1.0000
  C   C530      1.0  0.20115  0.36417  0.63973  1.0000
  C   C531      1.0  0.19693  0.38022  0.64500  1.0000
  H   H419      1.0  0.14874  0.35797  0.65075  1.0000
  H   H420      1.0  0.15623  0.32994  0.64209  1.0000
  H   H421      1.0  0.21579  0.36600  0.63655  1.0000
  H   H422      1.0  0.20831  0.39418  0.64571  1.0000
  C   C532      1.0  0.17782  0.27937  0.86881  1.0000
  C   C533      1.0  0.16383  0.48184  0.68987  1.0000
  C   C534      1.0  0.25345  0.34321  0.87284  1.0000
  H   H423      1.0  0.16572  0.46856  0.69161  1.0000
  H   H424      1.0  0.32381  0.47114  0.55102  1.0000
  H   H425      1.0  0.23839  0.31446  0.81758  1.0000
  H   H426      1.0  0.08839  0.45938  0.77727  1.0000
  C   C535      1.0  0.14046  0.32643  0.99155  1.0000
  H   H427      1.0  0.17262  0.44643  0.54791  1.0000
  H   H428      1.0  0.10160  0.27391  0.79427  1.0000
  C   C536      1.0  0.25433  0.33390  0.84901  1.0000
  C   C537      1.0  0.21257  0.31599  0.77843  1.0000
  C   C538      1.0  0.13685  0.25920  0.98185  1.0000
  C   C539      1.0  0.15147  0.32937  0.83354  1.0000
  H   H429      1.0  0.18331  0.48169  0.77831  1.0000
  C   C540      1.0  0.21341  0.31391  0.75069  1.0000
  C   C541      1.0  0.23571  0.34008  0.88372  1.0000
  C   C542      1.0  0.11770  0.46609  0.76704  1.0000
  C   C543      1.0  0.19955  0.30119  0.79339  1.0000
  C   C544      1.0  0.13320  0.25330  0.50432  1.0000
  C   C545      1.0  0.06544  0.28533  0.77034  1.0000
  C   C546      1.0  0.15376  0.31170  0.50930  1.0000
  H   H430      1.0  0.02153  0.47777  0.55824  1.0000
  H   H431      1.0  0.29749  0.43325  0.98699  1.0000
  C   C547      1.0  0.19539  0.27711  0.54036  1.0000
  H   H432      1.0  0.03812  0.47839  0.51624  1.0000
  C   C548      1.0  0.06295  0.28943  0.79696  1.0000
  H   H433      1.0  0.08502  0.30802  0.98391  1.0000
  C   C549      1.0  0.03273  0.49070  0.91203  1.0000
  H   H434      1.0  0.17738  0.27011  0.74193  1.0000
  H   H435      1.0  0.22344  0.32535  0.73922  1.0000
  S   S92       1.0  0.19660  0.49461  0.65964  1.0000
  C   C550      1.0  0.17074  0.34128  0.83766  1.0000
  C   C551      1.0  0.18476  0.33378  0.83621  1.0000
  H   H436      1.0  0.16353  0.46575  0.87758  1.0000
  H   H437      1.0  0.31561  0.44701  0.51420  1.0000
  C   C552      1.0  0.17415  0.29946  0.94185  1.0000
  C   C553      1.0  0.20447  0.49597  0.84942  1.0000
  H   H438      1.0  0.14064  0.33623  0.95101  1.0000
  H   H439      1.0  0.07127  0.29679  0.75620  1.0000
  H   H440      1.0  0.26812  0.33603  0.84091  1.0000
  Fe  Fe47      1.0  0.11124  0.26553  0.85798  1.0000
  H   H441      1.0  0.19950  0.34311  0.83998  1.0000
  H   H442      1.0  0.03888  0.44953  0.67597  1.0000
  C   C554      1.0  0.17153  0.32356  0.70595  1.0000
  H   H443      1.0  0.16228  0.30897  0.77006  1.0000
  C   C555      1.0  0.21955  0.31925  0.84599  1.0000
  H   H444      1.0  0.26650  0.35273  0.88303  1.0000
  H   H445      1.0  0.20523  0.32523  0.87952  1.0000
  H   H446      1.0  0.09967  0.28046  0.74577  1.0000
  H   H447      1.0  0.20625  0.39799  0.95363  1.0000
  C   C556      1.0  0.13425  0.33722  0.56935  1.0000
  C   C557      1.0  0.14270  0.32488  0.57790  1.0000
  C   C558      1.0  0.16257  0.33071  0.57755  1.0000
  C   C559      1.0  0.17407  0.34896  0.56882  1.0000
  C   C560      1.0  0.16569  0.36147  0.56018  1.0000
  C   C561      1.0  0.14567  0.35541  0.56034  1.0000
  P   P20       1.0  0.18021  0.38478  0.54764  1.0000
  C   C562      1.0  0.20472  0.39143  0.55908  1.0000
  C   C563      1.0  0.17907  0.38456  0.51139  1.0000
  H   H448      1.0  0.29377  0.47238  0.84633  1.0000
  C   C564      1.0  0.08805  0.49982  0.60730  1.0000
  C   C565      1.0  0.17340  0.36173  0.98789  1.0000
  H   H449      1.0  0.19883  0.47576  0.88128  1.0000
  C   C566      1.0  0.32011  0.48516  0.82501  1.0000
  C   C567      1.0  0.21115  0.40107  0.58369  1.0000
  C   C568      1.0  0.23012  0.40611  0.59250  1.0000
  C   C569      1.0  0.24285  0.40173  0.57678  1.0000
  C   C570      1.0  0.23651  0.39195  0.55240  1.0000
  C   C571      1.0  0.21747  0.38666  0.54366  1.0000
  C   C572      1.0  0.17202  0.40231  0.56094  1.0000
  C   C573      1.0  0.16330  0.39953  0.58595  1.0000
  C   C574      1.0  0.15768  0.41338  0.59686  1.0000
  C   C575      1.0  0.16095  0.43024  0.58315  1.0000
  C   C576      1.0  0.16976  0.43322  0.55838  1.0000
  C   C577      1.0  0.17526  0.41934  0.54730  1.0000
  H   H450      1.0  0.11882  0.33260  0.56963  1.0000
  H   H451      1.0  0.13382  0.31074  0.58471  1.0000
  H   H452      1.0  0.16907  0.32113  0.58446  1.0000
  H   H453      1.0  0.18945  0.35326  0.56920  1.0000
  H   H454      1.0  0.13891  0.36477  0.55351  1.0000
  C   C578      1.0  0.03716  0.45976  0.66230  1.0000
  H   H455      1.0  0.03226  0.47668  0.69366  1.0000
  C   C579      1.0  0.27478  0.50056  0.55739  1.0000
  C   C580      1.0  0.03865  0.45772  0.63474  1.0000
  H   H456      1.0  0.26142  0.49427  0.59578  1.0000
  H   H457      1.0  0.20163  0.40479  0.59616  1.0000
  H   H458      1.0  0.23505  0.41380  0.61133  1.0000
  H   H459      1.0  0.25765  0.40613  0.58343  1.0000
  H   H460      1.0  0.24639  0.38861  0.54017  1.0000
  H   H461      1.0  0.21272  0.37895  0.52487  1.0000
  H   H462      1.0  0.16127  0.38691  0.59747  1.0000
  H   H463      1.0  0.15128  0.41123  0.61639  1.0000
  C   C581      1.0  0.16889  0.31822  0.75359  1.0000
  H   H464      1.0  0.15447  0.35757  0.50704  1.0000
  H   H465      1.0  0.18232  0.42222  0.52835  1.0000
  H   H466      1.0  0.20455  0.28229  0.58186  1.0000
  C   C582      1.0  0.19615  0.41705  0.76213  1.0000
  C   C583      1.0  0.18094  0.41469  0.74439  1.0000
  C   C584      1.0  0.17509  0.39986  0.72546  1.0000
  C   C585      1.0  0.18402  0.38695  0.72486  1.0000
  C   C586      1.0  0.19886  0.38878  0.74337  1.0000
  C   C587      1.0  0.20545  0.40449  0.76116  1.0000
  P   P21       1.0  0.21020  0.37194  0.74277  1.0000
  C   C588      1.0  0.22280  0.37277  0.77433  1.0000
  C   C589      1.0  0.19164  0.34839  0.73702  1.0000
  C   C590      1.0  0.18298  0.33650  0.75849  1.0000
  C   C591      1.0  0.18538  0.34191  0.71076  1.0000
  C   C592      1.0  0.21444  0.37408  0.79865  1.0000
  C   C593      1.0  0.22478  0.37644  0.82290  1.0000
  C   C594      1.0  0.24324  0.37667  0.82318  1.0000
  C   C595      1.0  0.25147  0.37476  0.79917  1.0000
  C   C596      1.0  0.24137  0.37294  0.77481  1.0000
  C   C597      1.0  0.22718  0.37862  0.71607  1.0000
  C   C598      1.0  0.23084  0.36475  0.70130  1.0000
  C   C599      1.0  0.24383  0.37014  0.68047  1.0000
  C   C600      1.0  0.25359  0.38943  0.67465  1.0000
  C   C601      1.0  0.25049  0.40333  0.68982  1.0000
  C   C602      1.0  0.23730  0.39797  0.71038  1.0000
  H   H467      1.0  0.20100  0.42884  0.77635  1.0000
  H   H468      1.0  0.17417  0.42478  0.74462  1.0000
  H   H469      1.0  0.16368  0.39842  0.71109  1.0000
  H   H470      1.0  0.17940  0.37575  0.70971  1.0000
  H   H471      1.0  0.21791  0.40729  0.77409  1.0000
  C   C603      1.0  0.11902  0.26767  0.73394  1.0000
  H   H472      1.0  0.19128  0.35101  0.69390  1.0000
  H   H473      1.0  0.20005  0.37363  0.79878  1.0000
  H   H474      1.0  0.21853  0.37811  0.84161  1.0000
  H   H475      1.0  0.25118  0.37852  0.84204  1.0000
  H   H476      1.0  0.26589  0.37516  0.79942  1.0000
  H   H477      1.0  0.24823  0.37199  0.75642  1.0000
  H   H478      1.0  0.22349  0.34974  0.70545  1.0000
  H   H479      1.0  0.24606  0.35932  0.66854  1.0000
  H   H480      1.0  0.26348  0.39363  0.65832  1.0000
  H   H481      1.0  0.25808  0.41833  0.68548  1.0000
  H   H482      1.0  0.23499  0.40899  0.72169  1.0000
  H   H483      1.0  0.09448  0.27290  0.51901  1.0000
  H   H484      1.0  0.13939  0.25619  0.54696  1.0000
  H   H485      1.0  0.11296  0.49811  0.66395  1.0000
  H   H486      1.0  0.11393  0.45609  0.75032  1.0000
  C   C604      1.0  0.17120  0.26200  0.88222  1.0000
  S   S93       1.0  0.13388  0.25407  0.94708  1.0000
  C   C605      1.0  0.16339  0.31169  0.72733  1.0000
  H   H487      1.0  0.05343  0.27764  0.83581  1.0000
  H   H488      1.0  0.32293  0.48908  0.60973  1.0000
  C   C606      1.0  0.19256  0.48211  0.86645  1.0000
  C   C607      1.0  0.10986  0.26976  0.78009  1.0000
  C   C608      1.0  0.00556  0.48189  0.82412  1.0000
  C   C609      1.0  0.18670  0.28472  0.77997  1.0000
  C   C610      1.0  0.29825  0.48863  0.50996  1.0000
  C   C611      1.0  0.11197  0.32249  0.96493  1.0000
  C   C612      1.0  0.17960  0.31431  0.83069  1.0000
  C   C613      1.0  0.21887  0.32782  0.87064  1.0000
  H   H489      1.0  0.15934  0.30894  0.52820  1.0000
  S   S94       1.0  0.04760  0.25669  0.90367  1.0000
  H   H490      1.0  0.99637  0.48719  0.63724  1.0000
  C   C614      1.0  0.18158  0.39942  0.97215  1.0000
  C   C615      1.0  0.20219  0.30694  0.56398  1.0000
  C   C616      1.0  0.05547  0.27461  0.81512  1.0000
  H   H491      1.0  0.00691  0.49515  0.74526  1.0000
  H   H492      1.0  0.06193  0.49355  0.91835  1.0000
  H   H493      1.0  0.04147  0.44581  0.62699  1.0000
  H   H494      1.0  0.19833  0.32904  0.54131  1.0000
  C   C617      1.0  0.08234  0.37325  0.83890  1.0000
  C   C618      1.0  0.08291  0.36410  0.86292  1.0000
  C   C619      1.0  0.09901  0.36037  0.86983  1.0000
  C   C620      1.0  0.11455  0.36584  0.85282  1.0000
  C   C621      1.0  0.11414  0.37510  0.82875  1.0000
  C   C622      1.0  0.09787  0.37866  0.82175  1.0000
  P   P22       1.0  0.13389  0.38087  0.80639  1.0000
  C   C623      1.0  0.13215  0.35942  0.78862  1.0000
  C   C624      1.0  0.13331  0.39828  0.78219  1.0000
  C   C625      1.0  0.12339  0.39232  0.75752  1.0000
  C   C626      1.0  0.12379  0.40574  0.73827  1.0000
  C   C627      1.0  0.13384  0.42521  0.74362  1.0000
  C   C628      1.0  0.14337  0.43128  0.76832  1.0000
  C   C629      1.0  0.14311  0.41792  0.78755  1.0000
  C   C630      1.0  0.14302  0.36091  0.76578  1.0000
  C   C631      1.0  0.14099  0.34469  0.75075  1.0000
  C   C632      1.0  0.12819  0.32673  0.75856  1.0000
  C   C633      1.0  0.11730  0.32500  0.78131  1.0000
  C   C634      1.0  0.11909  0.34128  0.79615  1.0000
  C   C635      1.0  0.15615  0.39202  0.82553  1.0000
  C   C636      1.0  0.15680  0.40283  0.84874  1.0000
  C   C637      1.0  0.17434  0.41378  0.86145  1.0000
  C   C638      1.0  0.19136  0.41411  0.85109  1.0000
  C   C639      1.0  0.19086  0.40318  0.82843  1.0000
  C   C640      1.0  0.17334  0.39211  0.81568  1.0000
  H   H495      1.0  0.06979  0.37602  0.83348  1.0000
  H   H496      1.0  0.07084  0.35977  0.87610  1.0000
  H   H497      1.0  0.09947  0.35305  0.88825  1.0000
  H   H498      1.0  0.12681  0.36258  0.85825  1.0000
  H   H499      1.0  0.09707  0.38551  0.80310  1.0000
  H   H500      1.0  0.11552  0.37730  0.75295  1.0000
  H   H501      1.0  0.11645  0.40103  0.71906  1.0000
  H   H502      1.0  0.13435  0.43558  0.72854  1.0000
  H   H503      1.0  0.15128  0.44635  0.77245  1.0000
  H   H504      1.0  0.15081  0.42305  0.80636  1.0000
  H   H505      1.0  0.15273  0.37471  0.75928  1.0000
  H   H506      1.0  0.14926  0.34603  0.73289  1.0000
  H   H507      1.0  0.12667  0.31417  0.74687  1.0000
  H   H508      1.0  0.10747  0.31101  0.78742  1.0000
  H   H509      1.0  0.11032  0.33948  0.81349  1.0000
  H   H510      1.0  0.14387  0.40339  0.85660  1.0000
  H   H511      1.0  0.17486  0.42227  0.87914  1.0000
  H   H512      1.0  0.20502  0.42298  0.86045  1.0000
  H   H513      1.0  0.20425  0.40388  0.82051  1.0000
  H   H514      1.0  0.17336  0.38422  0.79771  1.0000
  H   H515      1.0  0.17471  0.35614  0.84316  1.0000
  C   C641      1.0  0.17580  0.50025  0.59994  1.0000
  H   H516      1.0  0.02779  0.47602  0.90511  1.0000
  C   C642      1.0  0.03123  0.48831  0.65475  1.0000
  H   H517      1.0  0.31099  0.49092  0.94548  1.0000
  H   H518      1.0  0.18706  0.34111  0.77896  1.0000
  H   H519      1.0  0.13130  0.30079  0.82404  1.0000
  H   H520      1.0  0.14057  0.33497  0.83621  1.0000
  H   H521      1.0  0.15699  0.44112  0.59198  1.0000
  H   H522      1.0  0.06678  0.30406  0.80354  1.0000
  C   C643      1.0  0.20088  0.29729  0.73759  1.0000
  P   P23       1.0  0.19746  0.30431  0.82889  1.0000
  H   H523      1.0  0.17408  0.29081  0.87609  1.0000
  H   H524      1.0  0.20049  0.29746  0.93067  1.0000
  C   C644      1.0  0.00813  0.48592  0.85165  1.0000
  H   H525      1.0  0.06145  0.26545  0.97501  1.0000
  C   C645      1.0  0.18897  0.28183  0.84600  1.0000
  H   H526      1.0  0.22081  0.32471  0.95989  1.0000
  H   H527      1.0  0.02255  0.49179  0.86003  1.0000
  H   H528      1.0  0.13863  0.47262  0.71378  1.0000
  H   H529      1.0  0.03779  0.46905  0.59598  1.0000
  H   H530      1.0  0.20406  0.48423  0.73990  1.0000
  C   C646      1.0  0.09148  0.49568  0.63363  1.0000
  H   H531      1.0  0.01788  0.48468  0.81172  1.0000
  H   H532      1.0  0.16525  0.28732  0.92963  1.0000
  C   C647      1.0  0.10870  0.27335  0.75266  1.0000
  C   C648      1.0  0.20542  0.32043  0.95904  1.0000
  H   H533      1.0  0.17376  0.48590  0.60567  1.0000
  H   H534      1.0  0.20610  0.31536  0.58239  1.0000
  C   C649      1.0  0.10330  0.46801  0.78215  1.0000
  H   H535      1.0  0.15280  0.29745  0.72346  1.0000
  C   C650      1.0  0.13172  0.25469  0.77024  1.0000
  C   C651      1.0  0.19401  0.30513  0.94257  1.0000
  H   H536      1.0  0.23495  0.34726  0.90223  1.0000
  C   C652      1.0  0.16028  0.30260  0.82568  1.0000
  H   H537      1.0  0.14928  0.47949  0.84296  1.0000
  H   H538      1.0  0.12689  0.30859  0.52619  1.0000
  C   C653      1.0  0.10534  0.26747  0.51494  1.0000
  H   H539      1.0  0.16709  0.31847  0.68559  1.0000
  H   H540      1.0  0.19400  0.26242  0.54049  1.0000
  C   C654      1.0  0.03655  0.47103  0.61715  1.0000
  Fe  Fe48      1.0  0.13480  0.26938  0.66568  1.0000
  H   H541      1.0  0.22173  0.32934  0.78802  1.0000
  C   C655      1.0  0.13693  0.47772  0.77264  1.0000
  C   C656      1.0  0.23744  0.32182  0.83571  1.0000
  H   H542      1.0  0.22829  0.33101  0.50461  1.0000
  C   C657      1.0  0.01987  0.49977  0.91354  1.0000
  H   H543      1.0  0.30972  0.48064  0.89109  1.0000
  C   C658      1.0  0.30947  0.48735  0.53195  1.0000
  H   H544      1.0  0.15603  0.28760  0.82102  1.0000
  C   C659      1.0  0.17700  0.32479  0.97348  1.0000
  H   H545      1.0  0.00450  0.47639  0.95676  1.0000
  H   H546      1.0  0.17577  0.27355  0.79080  1.0000
  H   H547      1.0  0.31305  0.48168  0.80544  1.0000
  H   H548      1.0  0.15016  0.30414  0.95669  1.0000
  C   C660      1.0  0.20132  0.28829  0.56369  1.0000
  C   C661      1.0  0.10045  0.31322  0.98615  1.0000
  C   C662      1.0  0.06049  0.26642  0.76189  1.0000
  C   C663      1.0  0.18747  0.28276  0.75221  1.0000
  C   C664      1.0  0.10811  0.48143  0.80309  1.0000
  C   C665      1.0  0.19095  0.28475  0.51703  1.0000
  H   H549      1.0  0.20474  0.25294  0.64216  1.0000
  C   C666      1.0  0.31820  0.48464  0.87325  1.0000
  C   C667      1.0  0.19693  0.33006  0.97469  1.0000
  C   C668      1.0  0.16562  0.30915  0.95728  1.0000
  C   C669      1.0  0.19763  0.31458  0.54074  1.0000
  H   H550      1.0  0.28115  0.49026  0.56001  1.0000
  C   C670      1.0  0.19374  0.39047  0.96528  1.0000
  H   H551      1.0  0.19877  0.36496  0.96575  1.0000
  C   C671      1.0  0.03494  0.48965  0.55460  1.0000
  C   C672      1.0  0.31539  0.47219  0.53380  1.0000
  C   C673      1.0  0.17270  0.47640  0.86419  1.0000
  H   H552      1.0  0.10554  0.32450  0.94620  1.0000
  C   C674      1.0  0.31080  0.45861  0.51310  1.0000
  C   C675      1.0  0.12121  0.26018  0.78891  1.0000
  C   C676      1.0  0.13187  0.32898  0.96757  1.0000
  H   H553      1.0  0.11935  0.27553  0.98248  1.0000
  C   C677      1.0  0.16473  0.36966  0.49695  1.0000
  H   H554      1.0  0.07961  0.48839  0.64657  1.0000
  H   H555      1.0  0.16205  0.25991  0.89932  1.0000
  H   H556      1.0  0.20391  0.41112  0.50783  1.0000
  C   C678      1.0  0.30921  0.47995  0.84801  1.0000
  H   H557      1.0  0.20121  0.29585  0.71600  1.0000
  H   H558      1.0  0.14576  0.49359  0.59473  1.0000
  C   C679      1.0  0.03339  0.47503  0.67226  1.0000
  C   C680      1.0  0.13529  0.31154  0.50827  1.0000
  C   C681      1.0  0.19446  0.26712  0.83784  1.0000
  C   C682      1.0  0.18956  0.37165  0.97271  1.0000
  C   C683      1.0  0.03303  0.48661  0.62699  1.0000
  C   C684      1.0  0.04431  0.48997  0.53071  1.0000
  H   H559      1.0  0.18485  0.41398  0.96607  1.0000
  S   S95       1.0  0.12218  0.25411  0.82281  1.0000
  C   C685      1.0  0.32473  0.47117  0.94231  1.0000
  C   C686      1.0  0.19919  0.49550  0.74412  1.0000
  C   C687      1.0  0.99888  0.50141  0.57235  1.0000
  C   C688      1.0  0.32445  0.48919  0.94669  1.0000
  C   C689      1.0  0.12732  0.49303  0.80876  1.0000
  H   H560      1.0  0.21853  0.25383  0.57872  1.0000
  P   P24       1.0  0.99500  0.48692  0.90363  1.0000
  H   H561      1.0  0.20590  0.34158  0.98785  1.0000
  C   C690      1.0  0.16469  0.48428  0.84453  1.0000
  H   H562      1.0  0.14781  0.47648  0.76016  1.0000
  C   C691      1.0  0.05067  0.25575  0.80674  1.0000
  C   C692      1.0  0.14188  0.49137  0.79340  1.0000
  C   C693      1.0  0.00532  0.49795  0.59758  1.0000
  H   H563      1.0  0.25372  0.36317  0.50087  1.0000
  C   C694      1.0  0.22494  0.34209  0.49514  1.0000
  C   C695      1.0  0.18728  0.49407  0.76564  1.0000
  H   H564      1.0  0.07353  0.49568  0.59967  1.0000
  H   H565      1.0  0.21987  0.50019  0.85113  1.0000
  C   C696      1.0  0.19243  0.39967  0.49729  1.0000
  H   H566      1.0  0.09694  0.48312  0.81456  1.0000
  C   C697      1.0  0.16563  0.38981  0.98761  1.0000
  C   C698      1.0  0.17663  0.49665  0.67498  1.0000
  H   H567      1.0  0.02832  0.49999  0.66305  1.0000
  H   H568      1.0  0.31372  0.49817  0.54753  1.0000
  H   H569      1.0  0.25186  0.25647  0.58594  1.0000
  C   C699      1.0  0.13068  0.25815  0.53075  1.0000
  H   H570      1.0  0.06267  0.26365  0.74124  1.0000
  H   H571      1.0  0.18642  0.27583  0.49927  1.0000
  C   C700      1.0  0.13077  0.25856  0.74285  1.0000
  C   C701      1.0  0.14621  0.50161  0.70127  1.0000
  C   C702      1.0  0.05202  0.50054  0.91953  1.0000
  C   C703      1.0  0.23944  0.36028  0.49296  1.0000
  C   C704      1.0  0.11027  0.50120  0.64345  1.0000
  C   C705      1.0  0.12470  0.68730  0.04217  1.0000
  S   S96       1.0  0.08130  0.56609  0.47433  1.0000
  H   H572      1.0  0.25344  0.73993  0.32987  1.0000
  Fe  Fe49      1.0  0.09856  0.62122  0.46931  1.0000
  S   S97       1.0  0.11900  0.60617  0.47021  1.0000
  C   C706      1.0  0.19201  0.73512  0.31057  1.0000
  Fe  Fe50      1.0  0.09766  0.58512  0.44157  1.0000
  S   S98       1.0  0.10611  0.57085  0.40693  1.0000
  Fe  Fe51      1.0  0.11006  0.58547  0.00044  1.0000
  S   S99       1.0  0.12696  0.58351  0.03744  1.0000
  S   S100      1.0  0.07799  0.60053  0.43926  1.0000
  H   H573      1.0  0.13941  0.51683  0.99359  1.0000
  Fe  Fe52      1.0  0.09754  0.56595  0.18957  1.0000
  S   S101      1.0  0.09104  0.53455  0.19225  1.0000
  S   S102      1.0  0.09207  0.58064  0.15259  1.0000
  Fe  Fe53      1.0  0.10323  0.57182  0.25129  1.0000
  S   S103      1.0  0.09758  0.54105  0.25791  1.0000
  S   S104      1.0  0.10520  0.59326  0.28427  1.0000
  Fe  Fe54      1.0  0.11592  0.54364  0.22200  1.0000
  C   C707      1.0  0.00580  0.50644  0.23412  1.0000
  Fe  Fe55      1.0  0.07342  0.53495  0.22781  1.0000
  H   H574      1.0  0.01570  0.53335  0.40803  1.0000
  S   S105      1.0  0.12340  0.57528  0.21739  1.0000
  S   S106      1.0  0.07819  0.56556  0.22298  1.0000
  S   S107      1.0  0.17953  0.73013  0.44727  1.0000
  C   C708      1.0  0.11567  0.69664  0.05756  1.0000
  C   C709      1.0  0.04331  0.55555  0.33439  1.0000
  C   C710      1.0  0.16731  0.73395  0.06450  1.0000
  C   C711      1.0  0.15098  0.52568  0.06015  1.0000
  H   H575      1.0  0.04662  0.60959  0.23260  1.0000
  C   C712      1.0  0.02478  0.51991  0.23609  1.0000
  C   C713      1.0  0.08947  0.53190  0.06220  1.0000
  C   C714      1.0  0.13224  0.67453  0.10387  1.0000
  C   C715      1.0  0.00870  0.53257  0.07421  1.0000
  C   C716      1.0  0.01299  0.54520  0.23722  1.0000
  C   C717      1.0  0.02822  0.53925  0.23828  1.0000
  C   C718      1.0  0.06640  0.51205  0.41374  1.0000
  H   H576      1.0  0.01590  0.56023  0.23835  1.0000
  H   H577      1.0  0.04257  0.54970  0.24096  1.0000
  C   C719      1.0  0.12561  0.67400  0.45642  1.0000
  C   C720      1.0  0.14411  0.67431  0.45925  1.0000
  C   C721      1.0  0.16031  0.69157  0.45637  1.0000
  C   C722      1.0  0.15836  0.70882  0.45070  1.0000
  C   C723      1.0  0.13987  0.70844  0.44731  1.0000
  C   C724      1.0  0.12366  0.69118  0.45019  1.0000
  H   H578      1.0  0.16318  0.68587  0.04319  1.0000
  H   H579      1.0  0.17450  0.69159  0.45888  1.0000
  H   H580      1.0  0.13806  0.72141  0.44241  1.0000
  C   C725      1.0  0.02430  0.53792  0.17195  1.0000
  C   C726      1.0  0.11724  0.58274  0.06941  1.0000
  C   C727      1.0  0.12622  0.57851  0.09191  1.0000
  C   C728      1.0  0.11844  0.57731  0.11752  1.0000
  C   C729      1.0  0.10195  0.58094  0.12083  1.0000
  C   C730      1.0  0.09340  0.58581  0.09843  1.0000
  C   C731      1.0  0.10076  0.58635  0.07276  1.0000
  H   H581      1.0  0.13909  0.57587  0.08949  1.0000
  H   H582      1.0  0.12537  0.57392  0.13472  1.0000
  H   H583      1.0  0.08105  0.58927  0.10090  1.0000
  H   H584      1.0  0.09385  0.58982  0.05565  1.0000
  C   C732      1.0  0.10567  0.57736  0.37298  1.0000
  C   C733      1.0  0.10015  0.59211  0.36530  1.0000
  C   C734      1.0  0.10007  0.59685  0.33807  1.0000
  C   C735      1.0  0.10502  0.58660  0.31824  1.0000
  C   C736      1.0  0.11029  0.57170  0.32591  1.0000
  C   C737      1.0  0.11079  0.56725  0.35317  1.0000
  H   H585      1.0  0.09622  0.60000  0.38040  1.0000
  H   H586      1.0  0.09607  0.60845  0.33240  1.0000
  H   H587      1.0  0.11431  0.56380  0.31089  1.0000
  H   H588      1.0  0.11507  0.55581  0.35890  1.0000
  H   H589      1.0  0.32082  0.53341  0.29407  1.0000
  H   H590      1.0  0.15566  0.56321  0.17821  1.0000
  H   H591      1.0  0.00063  0.55227  0.43105  1.0000
  H   H592      1.0  0.11757  0.62255  0.12839  1.0000
  H   H593      1.0  0.28408  0.52189  0.41099  1.0000
  C   C738      1.0  0.15479  0.55389  0.16131  1.0000
  Fe  Fe56      1.0  0.06319  0.58304  0.47451  1.0000
  C   C739      1.0  0.12147  0.63707  0.12160  1.0000
  C   C740      1.0  0.17148  0.55437  0.14960  1.0000
  H   H594      1.0  0.19499  0.65339  0.28453  1.0000
  H   H595      1.0  0.16202  0.73237  0.25733  1.0000
  H   H596      1.0  0.99695  0.51421  0.17221  1.0000
  H   H597      1.0  0.04830  0.56048  0.37726  1.0000
  C   C741      1.0  0.22094  0.70094  0.29486  1.0000
  H   H598      1.0  0.15981  0.55372  0.07888  1.0000
  C   C742      1.0  0.14095  0.65777  0.03577  1.0000
  H   H599      1.0  0.18340  0.54260  0.11934  1.0000
  C   C743      1.0  0.02491  0.59662  0.26176  1.0000
  C   C744      1.0  0.02045  0.58659  0.28574  1.0000
  C   C745      1.0  0.99407  0.53184  0.23502  1.0000
  H   H600      1.0  0.04058  0.54700  0.29256  1.0000
  C   C746      1.0  0.16779  0.74693  0.32256  1.0000
  H   H601      1.0  0.06088  0.52560  0.44862  1.0000
  C   C747      1.0  0.04671  0.54619  0.31204  1.0000
  C   C748      1.0  0.00095  0.52642  0.41390  1.0000
  H   H602      1.0  0.12298  0.62803  0.02809  1.0000
  H   H603      1.0  0.10991  0.72199  0.06245  1.0000
  C   C749      1.0  0.04326  0.60218  0.25145  1.0000
  H   H604      1.0  0.12412  0.54051  0.16123  1.0000
  H   H605      1.0  0.04909  0.61819  0.00332  1.0000
  C   C750      1.0  0.00449  0.55165  0.33085  1.0000
  C   C751      1.0  0.13443  0.67103  0.13098  1.0000
  H   H606      1.0  0.13723  0.68913  0.09730  1.0000
  S   S108      1.0  0.14111  0.53453  0.22449  1.0000
  H   H607      1.0  0.23499  0.71163  0.29087  1.0000
  C   C752      1.0  0.07042  0.52160  0.05412  1.0000
  C   C753      1.0  0.08165  0.52158  0.10780  1.0000
  H   H608      1.0  0.07154  0.60224  0.25752  1.0000
  H   H609      1.0  0.32310  0.50844  0.26432  1.0000
  C   C754      1.0  0.05290  0.58816  0.28947  1.0000
  C   C755      1.0  0.16051  0.51174  0.21300  1.0000
  H   H610      1.0  0.05748  0.55296  0.07640  1.0000
  C   C756      1.0  0.04331  0.54437  0.16419  1.0000
  H   H611      1.0  0.05103  0.56909  0.11592  1.0000
  C   C757      1.0  0.18370  0.74289  0.32962  1.0000
  C   C758      1.0  0.05833  0.53592  0.31457  1.0000
  H   H612      1.0  0.08164  0.51699  0.41819  1.0000
  H   H613      1.0  0.17147  0.52111  0.22666  1.0000
  H   H614      1.0  0.10757  0.68981  0.07486  1.0000
  H   H615      1.0  0.17003  0.50332  0.13637  1.0000
  C   C759      1.0  0.20733  0.70572  0.30822  1.0000
  C   C760      1.0  0.18918  0.69142  0.31277  1.0000
  C   C761      1.0  0.18480  0.67262  0.30431  1.0000
  H   H616      1.0  0.07284  0.61969  0.39062  1.0000
  C   C762      1.0  0.01152  0.51942  0.16524  1.0000
  C   C763      1.0  0.04949  0.53254  0.14902  1.0000
  C   C764      1.0  0.02037  0.55508  0.11129  1.0000
  C   C765      1.0  0.03424  0.58735  0.35651  1.0000
  C   C766      1.0  0.13388  0.69592  0.01873  1.0000
  H   H617      1.0  0.01962  0.54718  0.18363  1.0000
  H   H618      1.0  0.18952  0.74608  0.34989  1.0000
  C   C767      1.0  0.17032  0.54191  0.12838  1.0000
  H   H619      1.0  0.17847  0.69479  0.32304  1.0000
  H   H620      1.0  0.17084  0.66161  0.30797  1.0000
  C   C768      1.0  0.13492  0.71397  0.01155  1.0000
  H   H621      1.0  0.06406  0.58527  0.30005  1.0000
  H   H622      1.0  0.03036  0.52976  0.04960  1.0000
  C   C769      1.0  0.07789  0.63818  0.99650  1.0000
  C   C770      1.0  0.04284  0.54983  0.08196  1.0000
  H   H623      1.0  0.22703  0.67851  0.27605  1.0000
  H   H624      1.0  0.18998  0.72491  0.26965  1.0000
  H   H625      1.0  0.30286  0.52530  0.45295  1.0000
  H   H626      1.0  0.99711  0.52256  0.06194  1.0000
  C   C771      1.0  0.06643  0.53472  0.33951  1.0000
  C   C772      1.0  0.06243  0.51118  0.09992  1.0000
  C   C773      1.0  0.14373  0.51500  0.20813  1.0000
  C   C774      1.0  0.09509  0.53169  0.08896  1.0000
  H   H627      1.0  0.14000  0.68862  0.00564  1.0000
  S   S109      1.0  0.10448  0.65277  0.46046  1.0000
  C   C775      1.0  0.15552  0.54541  0.06049  1.0000
  C   C776      1.0  0.05798  0.61172  0.38461  1.0000
  H   H628      1.0  0.11679  0.50523  0.18636  1.0000
  C   C777      1.0  0.02886  0.53255  0.48858  1.0000
  H   H629      1.0  0.01399  0.59971  0.25088  1.0000
  C   C778      1.0  0.05727  0.59802  0.26540  1.0000
  C   C779      1.0  0.13721  0.63911  0.02705  1.0000
  C   C780      1.0  0.12407  0.65926  0.08556  1.0000
  P   P25       1.0  0.02877  0.56926  0.33061  1.0000
  C   C781      1.0  0.99559  0.54222  0.30703  1.0000
  H   H630      1.0  0.15689  0.74624  0.09599  1.0000
  H   H631      1.0  0.05332  0.55857  0.16999  1.0000
  C   C782      1.0  0.13694  0.54099  0.15178  1.0000
  H   H632      1.0  0.06127  0.52913  0.29705  1.0000
  H   H633      1.0  0.13067  0.64953  0.16081  1.0000
  C   C783      1.0  0.05339  0.59789  0.36428  1.0000
  C   C784      1.0  0.27703  0.51497  0.42895  1.0000
  C   C785      1.0  0.04346  0.61520  0.39731  1.0000
  H   H634      1.0  0.17967  0.72569  0.03063  1.0000
  H   H635      1.0  0.04707  0.62559  0.41359  1.0000
  C   C786      1.0  0.02757  0.53666  0.06700  1.0000
  H   H636      1.0  0.09988  0.54024  0.04781  1.0000
  C   C787      1.0  0.15425  0.55469  0.03691  1.0000
  H   H637      1.0  0.06924  0.54296  0.38123  1.0000
  P   P26       1.0  0.21269  0.72994  0.31915  1.0000
  H   H638      1.0  0.08628  0.52204  0.12858  1.0000
  C   C788      1.0  0.08371  0.63762  0.05192  1.0000
  C   C789      1.0  0.11931  0.64053  0.09452  1.0000
  C   C790      1.0  0.28764  0.51681  0.45285  1.0000
  C   C791      1.0  0.16531  0.74911  0.07810  1.0000
  C   C792      1.0  0.06878  0.65589  0.36185  1.0000
  C   C793      1.0  0.05724  0.64416  0.34132  1.0000
  C   C794      1.0  0.06554  0.63763  0.32098  1.0000
  C   C795      1.0  0.08540  0.64305  0.32087  1.0000
  C   C796      1.0  0.09720  0.65521  0.34110  1.0000
  C   C797      1.0  0.08862  0.66119  0.36195  1.0000
  P   P27       1.0  0.12298  0.66237  0.34132  1.0000
  C   C798      1.0  0.12880  0.64665  0.36354  1.0000
  C   C799      1.0  0.13109  0.66225  0.30750  1.0000
  C   C800      1.0  0.12756  0.64491  0.29414  1.0000
  C   C801      1.0  0.13392  0.64468  0.26817  1.0000
  C   C802      1.0  0.14380  0.66180  0.25515  1.0000
  C   C803      1.0  0.14720  0.67917  0.26809  1.0000
  C   C804      1.0  0.14082  0.67943  0.29412  1.0000
  C   C805      1.0  0.12276  0.64502  0.39011  1.0000
  C   C806      1.0  0.12757  0.63356  0.40804  1.0000
  C   C807      1.0  0.13833  0.62344  0.39970  1.0000
  C   C808      1.0  0.14473  0.62520  0.37347  1.0000
  C   C809      1.0  0.14025  0.63697  0.35554  1.0000
  C   C810      1.0  0.13444  0.68618  0.35541  1.0000
  C   C811      1.0  0.12635  0.69970  0.35147  1.0000
  C   C812      1.0  0.13457  0.71762  0.36411  1.0000
  C   C813      1.0  0.15119  0.72233  0.38006  1.0000
  C   C814      1.0  0.15978  0.70928  0.38294  1.0000
  C   C815      1.0  0.15144  0.69125  0.37084  1.0000
  H   H639      1.0  0.06232  0.66060  0.37800  1.0000
  H   H640      1.0  0.04184  0.63977  0.34153  1.0000
  H   H641      1.0  0.05655  0.62819  0.30539  1.0000
  H   H642      1.0  0.09132  0.63762  0.30495  1.0000
  H   H643      1.0  0.09720  0.67001  0.37836  1.0000
  H   H644      1.0  0.11994  0.63148  0.30384  1.0000
  H   H645      1.0  0.13112  0.63111  0.25822  1.0000
  H   H646      1.0  0.14877  0.66156  0.23504  1.0000
  H   H647      1.0  0.15483  0.69244  0.25795  1.0000
  H   H648      1.0  0.14366  0.69308  0.30367  1.0000
  H   H649      1.0  0.11457  0.65281  0.39736  1.0000
  H   H650      1.0  0.12286  0.63256  0.42843  1.0000
  H   H651      1.0  0.14148  0.61403  0.41346  1.0000
  H   H652      1.0  0.15289  0.61715  0.36696  1.0000
  H   H653      1.0  0.14574  0.63824  0.33563  1.0000
  H   H654      1.0  0.11347  0.69626  0.33918  1.0000
  H   H655      1.0  0.12794  0.72779  0.36187  1.0000
  H   H656      1.0  0.15739  0.73600  0.39045  1.0000
  H   H657      1.0  0.17259  0.71295  0.39544  1.0000
  H   H658      1.0  0.15807  0.68118  0.37415  1.0000
  H   H659      1.0  0.18532  0.56425  0.15723  1.0000
  C   C816      1.0  0.03429  0.58186  0.29940  1.0000
  H   H660      1.0  0.20568  0.70742  0.41297  1.0000
  C   C817      1.0  0.31077  0.50508  0.27676  1.0000
  H   H661      1.0  0.20087  0.70274  0.36409  1.0000
  C   C818      1.0  0.03359  0.52710  0.99378  1.0000
  H   H662      1.0  0.06434  0.53787  0.14342  1.0000
  H   H663      1.0  0.29205  0.52635  0.32161  1.0000
  H   H664      1.0  0.18907  0.67763  0.02568  1.0000
  C   C819      1.0  0.17069  0.64832  0.01695  1.0000
  C   C820      1.0  0.17814  0.73736  0.04144  1.0000
  H   H665      1.0  0.01809  0.56250  0.12846  1.0000
  C   C821      1.0  0.06263  0.54352  0.36199  1.0000
  C   C822      1.0  0.01977  0.59169  0.36822  1.0000
  H   H666      1.0  0.14908  0.61993  0.01122  1.0000
  C   C823      1.0  0.06578  0.62667  0.04018  1.0000
  C   C824      1.0  0.05097  0.55375  0.35955  1.0000
  C   C825      1.0  0.12891  0.65230  0.13986  1.0000
  C   C826      1.0  0.15242  0.52858  0.11912  1.0000
  C   C827      1.0  0.17459  0.66687  0.02604  1.0000
  H   H667      1.0  0.16046  0.71956  0.07176  1.0000
  C   C828      1.0  0.19842  0.66797  0.29108  1.0000
  C   C829      1.0  0.15996  0.74313  0.29656  1.0000
  C   C830      1.0  0.25736  0.50382  0.42796  1.0000
  C   C831      1.0  0.03921  0.55904  0.10406  1.0000
  C   C832      1.0  0.02437  0.60536  0.38888  1.0000
  C   C833      1.0  0.21647  0.68213  0.28634  1.0000
  H   H668      1.0  0.00196  0.55232  0.37381  1.0000
  C   C834      1.0  0.15982  0.67155  0.03570  1.0000
  H   H669      1.0  0.14595  0.66130  0.46397  1.0000
  C   C835      1.0  0.15204  0.63443  0.01763  1.0000
  H   H670      1.0  0.15755  0.56987  0.03737  1.0000
  C   C836      1.0  0.16796  0.73512  0.27759  1.0000
  H   H671      1.0  0.06475  0.59527  0.35473  1.0000
  C   C837      1.0  0.20928  0.71685  0.37197  1.0000
  C   C838      1.0  0.00552  0.53460  0.99471  1.0000
  C   C839      1.0  0.99923  0.53702  0.49112  1.0000
  H   H672      1.0  0.10987  0.53965  0.09518  1.0000
  C   C840      1.0  0.18383  0.73099  0.28460  1.0000
  C   C841      1.0  0.30945  0.51928  0.29343  1.0000
  C   C842      1.0  0.01904  0.54463  0.48689  1.0000
  C   C843      1.0  0.21208  0.71938  0.39975  1.0000
  C   C844      1.0  0.14526  0.51545  0.03582  1.0000
  C   C845      1.0  0.11676  0.71477  0.05038  1.0000
  H   H673      1.0  0.04237  0.50330  0.06589  1.0000
  H   H674      1.0  0.11402  0.62856  0.08053  1.0000
  H   H675      1.0  0.01315  0.60826  0.39853  1.0000
  H   H676      1.0  0.05413  0.61792  0.05253  1.0000
  H   H677      1.0  0.07595  0.52728  0.34134  1.0000
  H   H678      1.0  0.17600  0.50672  0.05049  1.0000
  C   C846      1.0  0.21700  0.73253  0.35496  1.0000
  H   H679      1.0  0.00290  0.54584  0.28833  1.0000
  C   C847      1.0  0.13571  0.52829  0.13086  1.0000
  C   C848      1.0  0.99502  0.54585  0.35506  1.0000
  H   H680      1.0  0.06604  0.52185  0.03336  1.0000
  H   H681      1.0  0.14066  0.68285  0.14506  1.0000
  C   C849      1.0  0.03516  0.51108  0.42476  1.0000
  P   P28       1.0  0.12221  0.66336  0.05022  1.0000
  C   C850      1.0  0.09593  0.64882  0.00810  1.0000
  H   H682      1.0  0.10947  0.69115  0.44774  1.0000
  H   H683      1.0  0.08539  0.63756  0.07345  1.0000
  S   S110      1.0  0.04392  0.51233  0.23557  1.0000
  C   C851      1.0  0.29325  0.51536  0.30887  1.0000
  H   H684      1.0  0.02393  0.51248  0.34729  1.0000
  H   H685      1.0  0.02629  0.51458  0.43865  1.0000
  C   C852      1.0  0.14397  0.52479  0.01227  1.0000
  H   H686      1.0  0.00497  0.58451  0.36159  1.0000
  H   H687      1.0  0.00612  0.58222  0.29332  1.0000
  H   H688      1.0  0.18213  0.64464  0.00967  1.0000
  H   H689      1.0  0.12744  0.73749  0.02180  1.0000
  C   C853      1.0  0.05696  0.51114  0.07281  1.0000
  C   C854      1.0  0.27855  0.50759  0.47605  1.0000
  C   C855      1.0  0.23394  0.74635  0.30322  1.0000
  H   H690      1.0  0.31955  0.50885  0.35330  1.0000
  C   C856      1.0  0.03666  0.51404  0.14166  1.0000
  C   C857      1.0  0.12648  0.72346  0.02745  1.0000
  C   C858      1.0  0.06288  0.62691  0.01247  1.0000
  C   C859      1.0  0.09904  0.64850  0.03585  1.0000
  C   C860      1.0  0.05474  0.51705  0.43076  1.0000
  C   C861      1.0  0.99429  0.51578  0.00198  1.0000
  C   C862      1.0  0.00491  0.54171  0.09654  1.0000
  C   C863      1.0  0.25210  0.74813  0.31286  1.0000
  H   H691      1.0  0.22451  0.73946  0.43225  1.0000
  C   C864      1.0  0.22272  0.73747  0.41068  1.0000
  H   H692      1.0  0.10747  0.65725  0.99534  1.0000
  H   H693      1.0  0.13258  0.74492  0.47124  1.0000
  C   C865      1.0  0.14836  0.54439  0.01285  1.0000
  P   P29       1.0  0.15101  0.51322  0.09084  1.0000
  H   H694      1.0  0.12141  0.51416  0.46930  1.0000
  S   S111      1.0  0.09044  0.60100  0.99769  1.0000
  S   S112      1.0  0.03073  0.56903  0.47847  1.0000
  C   C866      1.0  0.17100  0.50599  0.09315  1.0000
  H   H695      1.0  0.14234  0.72058  0.99359  1.0000
  C   C867      1.0  0.12521  0.51681  0.49043  1.0000
  H   H696      1.0  0.01628  0.50961  0.29866  1.0000
  C   C868      1.0  0.02230  0.50820  0.00085  1.0000
  H   H697      1.0  0.04408  0.53814  0.48551  1.0000
  H   H698      1.0  0.14779  0.74653  0.29107  1.0000
  C   C869      1.0  0.01771  0.50741  0.15047  1.0000
  H   H699      1.0  0.12175  0.51816  0.12426  1.0000
  C   C870      1.0  0.22768  0.75066  0.36617  1.0000
  C   C871      1.0  0.00988  0.50283  0.34024  1.0000
  H   H700      1.0  0.11218  0.50477  0.06939  1.0000
  C   C872      1.0  0.18034  0.50386  0.07015  1.0000
  C   C873      1.0  0.12969  0.50283  0.19038  1.0000
  H   H701      1.0  0.14709  0.55163  0.99473  1.0000
  C   C874      1.0  0.00258  0.50246  0.00488  1.0000
  Fe  Fe57      1.0  0.07057  0.57499  0.97499  1.0000
  H   H702      1.0  0.12701  0.71902  0.54843  1.0000
  C   C875      1.0  0.26767  0.52361  0.53097  1.0000
  Fe  Fe58      1.0  0.10405  0.61157  0.95810  1.0000
  S   S113      1.0  0.12529  0.59787  0.96243  1.0000
  C   C876      1.0  0.12911  0.72994  0.50847  1.0000
  Fe  Fe59      1.0  0.10271  0.57224  0.94217  1.0000
  S   S114      1.0  0.10823  0.55348  0.91100  1.0000
  Fe  Fe60      1.0  0.10069  0.58836  0.50313  1.0000
  S   S115      1.0  0.10969  0.57307  0.53636  1.0000
  S   S116      1.0  0.08247  0.58656  0.93508  1.0000
  C   C877      1.0  0.02519  0.54035  0.99059  1.0000
  Fe  Fe61      1.0  0.10833  0.56027  0.69332  1.0000
  S   S117      1.0  0.09410  0.52830  0.68860  1.0000
  S   S118      1.0  0.11333  0.58353  0.66263  1.0000
  Fe  Fe62      1.0  0.11142  0.55881  0.75439  1.0000
  S   S119      1.0  0.09779  0.52689  0.75455  1.0000
  S   S120      1.0  0.11884  0.57938  0.78988  1.0000
  Fe  Fe63      1.0  0.11619  0.52780  0.71924  1.0000
  S   S121      1.0  0.08180  0.60485  0.50469  1.0000
  Fe  Fe64      1.0  0.07695  0.52971  0.72406  1.0000
  P   P30       1.0  0.14224  0.52933  0.58013  1.0000
  S   S122      1.0  0.13176  0.55986  0.72165  1.0000
  S   S123      1.0  0.08927  0.56151  0.72632  1.0000
  S   S124      1.0  0.17747  0.72121  0.96245  1.0000
  C   C878      1.0  0.99742  0.51830  0.74687  1.0000
  C   C879      1.0  0.04057  0.52770  0.61950  1.0000
  H   H703      1.0  0.01727  0.52385  0.67704  1.0000
  H   H704      1.0  0.20604  0.51461  0.81674  1.0000
  C   C880      1.0  0.04652  0.54017  0.83178  1.0000
  H   H705      1.0  0.11391  0.67858  0.92542  1.0000
  H   H706      1.0  0.04839  0.55008  0.72381  1.0000
  C   C881      1.0  0.02082  0.54920  0.73500  1.0000
  P   P31       1.0  0.29188  0.50902  0.50701  1.0000
  C   C882      1.0  0.14885  0.56013  0.61504  1.0000
  H   H707      1.0  0.24866  0.53491  0.54875  1.0000
  C   C883      1.0  0.01089  0.51027  0.74246  1.0000
  H   H708      1.0  0.04302  0.53599  0.78872  1.0000
  H   H709      1.0  0.04126  0.59413  0.93367  1.0000
  C   C884      1.0  0.12812  0.66276  0.94582  1.0000
  C   C885      1.0  0.14492  0.66413  0.95940  1.0000
  C   C886      1.0  0.16006  0.68210  0.96356  1.0000
  C   C887      1.0  0.15858  0.69890  0.95438  1.0000
  C   C888      1.0  0.14191  0.69749  0.94038  1.0000
  C   C889      1.0  0.00926  0.56537  0.55836  1.0000
  C   C890      1.0  0.18612  0.52441  0.75396  1.0000
  H   H710      1.0  0.07088  0.52071  0.87163  1.0000
  C   C891      1.0  0.02936  0.52166  0.73419  1.0000
  C   C892      1.0  0.13570  0.52436  0.54495  1.0000
  C   C893      1.0  0.10753  0.57553  0.57127  1.0000
  C   C894      1.0  0.10516  0.55994  0.58783  1.0000
  C   C895      1.0  0.10587  0.56189  0.61588  1.0000
  C   C896      1.0  0.10949  0.57966  0.62766  1.0000
  C   C897      1.0  0.11121  0.59512  0.61119  1.0000
  C   C898      1.0  0.11006  0.59304  0.58308  1.0000
  H   H711      1.0  0.10323  0.54638  0.57902  1.0000
  H   H712      1.0  0.10455  0.54989  0.62833  1.0000
  H   H713      1.0  0.11400  0.60892  0.62019  1.0000
  H   H714      1.0  0.11209  0.60519  0.57059  1.0000
  C   C899      1.0  0.10999  0.56041  0.87718  1.0000
  C   C900      1.0  0.11043  0.57823  0.86981  1.0000
  C   C901      1.0  0.11278  0.58371  0.84285  1.0000
  C   C902      1.0  0.11422  0.57127  0.82303  1.0000
  C   C903      1.0  0.11310  0.55318  0.83027  1.0000
  C   C904      1.0  0.11132  0.54791  0.85734  1.0000
  H   H715      1.0  0.10939  0.58796  0.88493  1.0000
  H   H716      1.0  0.11347  0.59765  0.83733  1.0000
  H   H717      1.0  0.11413  0.54347  0.81515  1.0000
  H   H718      1.0  0.11099  0.53411  0.86293  1.0000
  C   C905      1.0  0.16000  0.50474  0.59410  1.0000
  C   C906      1.0  0.19816  0.52584  0.73258  1.0000
  C   C907      1.0  0.02653  0.51866  0.92316  1.0000
  H   H719      1.0  0.01678  0.56783  0.53958  1.0000
  P   P32       1.0  0.03058  0.50413  0.60438  1.0000
  H   H720      1.0  0.02044  0.55998  0.92762  1.0000
  C   C908      1.0  0.26338  0.50264  0.57777  1.0000
  H   H721      1.0  0.02012  0.57576  0.79163  1.0000
  C   C909      1.0  0.27724  0.51123  0.53391  1.0000
  H   H722      1.0  0.14487  0.54990  0.63101  1.0000
  H   H723      1.0  0.30523  0.54774  0.53173  1.0000
  C   C910      1.0  0.00988  0.54551  0.82672  1.0000
  H   H724      1.0  0.06545  0.57979  0.64696  1.0000
  C   C911      1.0  0.99787  0.55417  0.83611  1.0000
  H   H725      1.0  0.15245  0.58356  0.64194  1.0000
  H   H726      1.0  0.16070  0.60757  0.60611  1.0000
  H   H727      1.0  0.06567  0.53246  0.58099  1.0000
  C   C912      1.0  0.04038  0.58719  0.91438  1.0000
  C   C913      1.0  0.02786  0.55874  0.88640  1.0000
  H   H728      1.0  0.00691  0.58888  0.61510  1.0000
  C   C914      1.0  0.03521  0.54208  0.60940  1.0000
  C   C915      1.0  0.06410  0.52345  0.85374  1.0000
  C   C916      1.0  0.05535  0.53249  0.63908  1.0000
  C   C917      1.0  0.10339  0.50958  0.59082  1.0000
  C   C918      1.0  0.05453  0.53576  0.85511  1.0000
  C   C919      1.0  0.19708  0.53309  0.59289  1.0000
  H   H729      1.0  0.08123  0.53330  0.53821  1.0000
  H   H730      1.0  0.04029  0.57194  0.61099  1.0000
  C   C920      1.0  0.04435  0.59386  0.76967  1.0000
  C   C921      1.0  0.05827  0.56525  0.63950  1.0000
  P   P33       1.0  0.16655  0.50720  0.80002  1.0000
  C   C922      1.0  0.00338  0.57714  0.60101  1.0000
  H   H731      1.0  0.17242  0.61087  0.95579  1.0000
  C   C923      1.0  0.25402  0.51503  0.57472  1.0000
  H   H732      1.0  0.11972  0.54227  0.54299  1.0000
  C   C924      1.0  0.14135  0.51177  0.53030  1.0000
  C   C925      1.0  0.15802  0.59286  0.60124  1.0000
  C   C926      1.0  0.18131  0.53765  0.58700  1.0000
  H   H733      1.0  0.03577  0.59866  0.75636  1.0000
  H   H734      1.0  0.18449  0.53490  0.84429  1.0000
  C   C927      1.0  0.07507  0.59356  0.78296  1.0000
  C   C928      1.0  0.25613  0.52549  0.55128  1.0000
  H   H735      1.0  0.07499  0.55464  0.66478  1.0000
  C   C929      1.0  0.04849  0.53227  0.80712  1.0000
  H   H736      1.0  0.01858  0.54382  0.88392  1.0000
  H   H737      1.0  0.99893  0.61843  0.70896  1.0000
  C   C930      1.0  0.03551  0.58087  0.78980  1.0000
  H   H738      1.0  0.15710  0.52973  0.68461  1.0000
  H   H739      1.0  0.15512  0.56437  0.54758  1.0000
  C   C931      1.0  0.05793  0.51986  0.80586  1.0000
  H   H740      1.0  0.99290  0.53567  0.54972  1.0000
  H   H741      1.0  0.18364  0.52529  0.66107  1.0000
  C   C932      1.0  0.18075  0.50860  0.77088  1.0000
  H   H742      1.0  0.20210  0.53793  0.71937  1.0000
  H   H743      1.0  0.05951  0.51403  0.78663  1.0000
  H   H744      1.0  0.07084  0.60973  0.75007  1.0000
  C   C933      1.0  0.05859  0.51947  0.92852  1.0000
  C   C934      1.0  0.99513  0.60640  0.69520  1.0000
  H   H745      1.0  0.14777  0.52994  0.77479  1.0000
  H   H746      1.0  0.18374  0.55220  0.58199  1.0000
  H   H747      1.0  0.05092  0.54313  0.93763  1.0000
  H   H748      1.0  0.24494  0.51628  0.59042  1.0000
  C   C935      1.0  0.19432  0.51441  0.59940  1.0000
  C   C936      1.0  0.06579  0.51549  0.82915  1.0000
  C   C937      1.0  0.15869  0.58734  0.57471  1.0000
  C   C938      1.0  0.04587  0.52853  0.93027  1.0000
  C   C939      1.0  0.15451  0.55495  0.79953  1.0000
  C   C940      1.0  0.15444  0.56821  0.56828  1.0000
  H   H749      1.0  0.21143  0.54408  0.59277  1.0000
  C   C941      1.0  0.15557  0.53763  0.79255  1.0000
  C   C942      1.0  0.31428  0.52964  0.50673  1.0000
  C   C943      1.0  0.04411  0.56080  0.61929  1.0000
  C   C944      1.0  0.17615  0.54036  0.83154  1.0000
  C   C945      1.0  0.17488  0.55761  0.83860  1.0000
  C   C946      1.0  0.16400  0.56485  0.82267  1.0000
  C   C947      1.0  0.13432  0.74937  0.54873  1.0000
  H   H750      1.0  0.16198  0.59780  0.55899  1.0000
  S   S125      1.0  0.03864  0.56419  0.98154  1.0000
  H   H751      1.0  0.01132  0.54888  0.65228  1.0000
  C   C948      1.0  0.16643  0.53021  0.80850  1.0000
  H   H752      1.0  0.14988  0.50489  0.53963  1.0000
  H   H753      1.0  0.07577  0.63829  0.97497  1.0000
  H   H754      1.0  0.18216  0.56528  0.85660  1.0000
  H   H755      1.0  0.16270  0.57802  0.82836  1.0000
  C   C949      1.0  0.16950  0.61470  0.79900  1.0000
  C   C950      1.0  0.18942  0.62135  0.79791  1.0000
  C   C951      1.0  0.20095  0.63568  0.81571  1.0000
  C   C952      1.0  0.19255  0.64352  0.83440  1.0000
  C   C953      1.0  0.17254  0.63735  0.83506  1.0000
  C   C954      1.0  0.16107  0.62247  0.81770  1.0000
  P   P34       1.0  0.16197  0.64675  0.86053  1.0000
  C   C955      1.0  0.16530  0.63582  0.89113  1.0000
  C   C956      1.0  0.17219  0.67254  0.86219  1.0000
  C   C957      1.0  0.16739  0.68206  0.88316  1.0000
  C   C958      1.0  0.17524  0.70201  0.88468  1.0000
  C   C959      1.0  0.18751  0.71262  0.86495  1.0000
  C   C960      1.0  0.19179  0.70329  0.84348  1.0000
  C   C961      1.0  0.18406  0.68334  0.84196  1.0000
  C   C962      1.0  0.17634  0.64672  0.91287  1.0000
  C   C963      1.0  0.17882  0.63773  0.93615  1.0000
  C   C964      1.0  0.17062  0.61783  0.93769  1.0000
  C   C965      1.0  0.15986  0.60690  0.91597  1.0000
  C   C966      1.0  0.15722  0.61585  0.89279  1.0000
  C   C967      1.0  0.13677  0.64021  0.85362  1.0000
  C   C968      1.0  0.12343  0.63308  0.87393  1.0000
  C   C969      1.0  0.10396  0.62828  0.86845  1.0000
  C   C970      1.0  0.09766  0.63069  0.84275  1.0000
  C   C971      1.0  0.11090  0.63805  0.82253  1.0000
  C   C972      1.0  0.13042  0.64302  0.82800  1.0000
  H   H756      1.0  0.16049  0.60338  0.78547  1.0000
  H   H757      1.0  0.19590  0.61526  0.78341  1.0000
  H   H758      1.0  0.21641  0.64066  0.81512  1.0000
  H   H759      1.0  0.20165  0.65436  0.84843  1.0000
  H   H760      1.0  0.14561  0.61660  0.81859  1.0000
  H   H761      1.0  0.15765  0.67408  0.89846  1.0000
  H   H762      1.0  0.17184  0.70932  0.90117  1.0000
  H   H763      1.0  0.00229  0.58874  0.72347  1.0000
  H   H764      1.0  0.20105  0.71159  0.82797  1.0000
  H   H765      1.0  0.18725  0.67649  0.82483  1.0000
  H   H766      1.0  0.18314  0.66210  0.91203  1.0000
  H   H767      1.0  0.18709  0.64622  0.95300  1.0000
  C   C973      1.0  0.32216  0.51590  0.59804  1.0000
  H   H768      1.0  0.15325  0.59146  0.91721  1.0000
  H   H769      1.0  0.14881  0.60718  0.87615  1.0000
  H   H770      1.0  0.12796  0.63139  0.89413  1.0000
  H   H771      1.0  0.09388  0.62289  0.88440  1.0000
  H   H772      1.0  0.08259  0.62707  0.83853  1.0000
  H   H773      1.0  0.10605  0.64000  0.80263  1.0000
  H   H774      1.0  0.14055  0.64892  0.81223  1.0000
  H   H775      1.0  0.14621  0.65137  0.96673  1.0000
  C   C974      1.0  0.14892  0.55433  0.58831  1.0000
  C   C975      1.0  0.11928  0.52910  0.50496  1.0000
  C   C976      1.0  0.31667  0.54661  0.52036  1.0000
  H   H776      1.0  0.14009  0.51557  0.63531  1.0000
  C   C977      1.0  0.06634  0.58077  0.80327  1.0000
  H   H777      1.0  0.01030  0.52062  0.80602  1.0000
  C   C978      1.0  0.12437  0.53270  0.53209  1.0000
  C   C979      1.0  0.16264  0.52353  0.58781  1.0000
  C   C980      1.0  0.03864  0.56890  0.86490  1.0000
  C   C981      1.0  0.17385  0.51378  0.67269  1.0000
  C   C982      1.0  0.05043  0.58829  0.86846  1.0000
  H   H778      1.0  0.14601  0.56053  0.78723  1.0000
  H   H779      1.0  0.07366  0.50638  0.82802  1.0000
  C   C983      1.0  0.00231  0.53781  0.74320  1.0000
  H   H780      1.0  0.13505  0.75043  0.57040  1.0000
  H   H781      1.0  0.09033  0.59807  0.78000  1.0000
  C   C984      1.0  0.99719  0.58979  0.70331  1.0000
  H   H782      1.0  0.19359  0.72810  0.86623  1.0000
  C   C985      1.0  0.06409  0.60008  0.76611  1.0000
  H   H783      1.0  0.01687  0.52578  0.92568  1.0000
  C   C986      1.0  0.05123  0.59741  0.89313  1.0000
  C   C987      1.0  0.00160  0.52742  0.81443  1.0000
  H   H784      1.0  0.06035  0.61237  0.89597  1.0000
  H   H785      1.0  0.13077  0.50355  0.82483  1.0000
  S   S126      1.0  0.04554  0.51085  0.72776  1.0000
  C   C988      1.0  0.03432  0.54119  0.73055  1.0000
  H   H786      1.0  0.10031  0.51276  0.57064  1.0000
  H   H787      1.0  0.07508  0.57572  0.81596  1.0000
  C   C989      1.0  0.06373  0.55105  0.64952  1.0000
  C   C990      1.0  0.01311  0.58030  0.57685  1.0000
  C   C991      1.0  0.12234  0.51543  0.60063  1.0000
  H   H788      1.0  0.26902  0.53172  0.51282  1.0000
  S   S127      1.0  0.10833  0.64061  0.94076  1.0000
  C   C992      1.0  0.04647  0.57418  0.80666  1.0000
  C   C993      1.0  0.06856  0.52089  0.54307  1.0000
  C   C994      1.0  0.00269  0.52218  0.67247  1.0000
  H   H789      1.0  0.02465  0.56423  0.73168  1.0000
  C   C995      1.0  0.02873  0.56786  0.91102  1.0000
  C   C996      1.0  0.99927  0.53636  0.65843  1.0000
  H   H790      1.0  0.00387  0.56838  0.84488  1.0000
  C   C997      1.0  0.15880  0.51634  0.68597  1.0000
  C   C998      1.0  0.12681  0.67950  0.93608  1.0000
  H   H791      1.0  0.02455  0.53896  0.59339  1.0000
  C   C999      1.0  0.13615  0.50806  0.50313  1.0000
  C   C1000     1.0  0.99907  0.50532  0.49750  1.0000
  H   H792      1.0  0.18116  0.53571  0.75708  1.0000
  H   H793      1.0  0.14055  0.71026  0.93318  1.0000
  H   H794      1.0  0.05402  0.54224  0.87422  1.0000
  H   H795      1.0  0.06073  0.52209  0.64609  1.0000
  C   C1001     1.0  0.15337  0.57931  0.62143  1.0000
  P   P35       1.0  0.03548  0.55724  0.83254  1.0000
  S   S128      1.0  0.08923  0.55865  0.98055  1.0000
  C   C1002     1.0  0.12975  0.73156  0.53639  1.0000
  H   H796      1.0  0.07355  0.52711  0.93429  1.0000
  C   C1003     1.0  0.05952  0.52041  0.56730  1.0000
  H   H797      1.0  0.02373  0.59433  0.57243  1.0000
  H   H798      1.0  0.05884  0.59642  0.85222  1.0000
  H   H799      1.0  0.11096  0.53613  0.49521  1.0000
  H   H800      1.0  0.12592  0.71618  0.49894  1.0000
  H   H801      1.0  0.00882  0.50775  0.55651  1.0000
  S   S129      1.0  0.12750  0.50411  0.71947  1.0000
  C   C1004     1.0  0.19655  0.50400  0.82991  1.0000
  H   H802      1.0  0.17295  0.68304  0.97422  1.0000
  H   H803      1.0  0.21397  0.51253  0.71103  1.0000
  H   H804      1.0  0.99334  0.56131  0.69299  1.0000
  C   C1005     1.0  0.20482  0.51149  0.72781  1.0000
  H   H805      1.0  0.30825  0.51282  0.60654  1.0000
  C   C1006     1.0  0.12564  0.51108  0.62710  1.0000
  C   C1007     1.0  0.01890  0.51301  0.49367  1.0000
  C   C1008     1.0  0.06106  0.50563  0.52488  1.0000
  Fe  Fe65      1.0  0.18636  0.75170  0.94685  1.0000
  C   C1009     1.0  0.04264  0.50472  0.57333  1.0000
  H   H806      1.0  0.02654  0.50374  0.49404  1.0000
  H   H807      1.0  0.06799  0.50616  0.50600  1.0000
  C   C1010     1.0  0.99580  0.54720  0.56411  1.0000
  H   H808      1.0  0.04873  0.53138  0.99072  1.0000
  H   H809      1.0  0.20647  0.51092  0.60465  1.0000
  H   H810      1.0  0.10839  0.74816  0.98729  1.0000
  C   C1011     1.0  0.13285  0.74612  0.49287  1.0000
  H   H811      1.0  0.32511  0.54336  0.58329  1.0000
  H   H812      1.0  0.99894  0.54477  0.99232  1.0000
  Fe  Fe66      1.0  0.24906  0.81103  0.15843  1.0000
  S   S130      1.0  0.26611  0.84233  0.15412  1.0000
  S   S131      1.0  0.24282  0.78917  0.12460  1.0000
  Fe  Fe67      1.0  0.24121  0.81555  0.21837  1.0000
  S   S132      1.0  0.25766  0.84738  0.21787  1.0000
  S   S133      1.0  0.22222  0.79827  0.25174  1.0000
  Fe  Fe68      1.0  0.24262  0.84566  0.17766  1.0000
  S   S134      1.0  0.22743  0.86392  0.16158  1.0000
  Fe  Fe69      1.0  0.27964  0.84099  0.19435  1.0000
  S   S135      1.0  0.31211  0.85019  0.20001  1.0000
  S   S136      1.0  0.22504  0.81450  0.17971  1.0000
  S   S137      1.0  0.26378  0.80902  0.19723  1.0000
  Fe  Fe70      1.0  0.12230  0.84814  0.13483  1.0000
  S   S138      1.0  0.14119  0.87894  0.13127  1.0000
  S   S139      1.0  0.13636  0.82823  0.14840  1.0000
  Fe  Fe71      1.0  0.08622  0.85423  0.11702  1.0000
  S   S140      1.0  0.10353  0.88594  0.11254  1.0000
  S   S141      1.0  0.05442  0.84612  0.10513  1.0000
  Fe  Fe72      1.0  0.12514  0.87740  0.09241  1.0000
  S   S142      1.0  0.14476  0.89138  0.05810  1.0000
  Fe  Fe73      1.0  0.11806  0.88462  0.15191  1.0000
  S   S143      1.0  0.12794  0.90931  0.18255  1.0000
  S   S144      1.0  0.10744  0.84597  0.09463  1.0000
  S   S145      1.0  0.09959  0.85360  0.15792  1.0000
  Fe  Fe74      1.0  0.21874  0.79448  0.40951  1.0000
  S   S146      1.0  0.18725  0.77714  0.40276  1.0000
  S   S147      1.0  0.24147  0.80392  0.37738  1.0000
  Fe  Fe75      1.0  0.21416  0.80046  0.47038  1.0000
  S   S148      1.0  0.18227  0.78352  0.46739  1.0000
  C   C1012     1.0  0.17819  0.98233  0.28029  1.0000
  H   H813      1.0  0.20161  0.87308  0.12700  1.0000
  Fe  Fe76      1.0  0.18351  0.79960  0.42909  1.0000
  S   S149      1.0  0.16331  0.81442  0.41986  1.0000
  S   S150      1.0  0.22105  0.77890  0.44684  1.0000
  S   S151      1.0  0.21474  0.81748  0.43354  1.0000
  Fe  Fe77      1.0  0.14671  0.91811  0.34675  1.0000
  S   S152      1.0  0.17819  0.93594  0.35279  1.0000
  S   S153      1.0  0.13181  0.90040  0.30951  1.0000
  Fe  Fe78      1.0  0.13930  0.91999  0.40754  1.0000
  S   S154      1.0  0.17004  0.93822  0.41711  1.0000
  S   S155      1.0  0.11654  0.90766  0.43891  1.0000
  Fe  Fe79      1.0  0.16925  0.95461  0.37987  1.0000
  S   S156      1.0  0.17820  0.98721  0.37846  1.0000
  Fe  Fe80      1.0  0.17625  0.91808  0.38948  1.0000
  S   S157      1.0  0.19713  0.90433  0.40012  1.0000
  S   S158      1.0  0.13751  0.93741  0.37201  1.0000
  S   S159      1.0  0.14562  0.89927  0.38172  1.0000
  C   C1013     1.0  0.09371  0.90422  0.04406  1.0000
  C   C1014     1.0  0.18739  0.87923  0.40493  1.0000
  C   C1015     1.0  0.16823  0.86928  0.41165  1.0000
  C   C1016     1.0  0.16099  0.84945  0.41584  1.0000
  C   C1017     1.0  0.17286  0.83933  0.41372  1.0000
  C   C1018     1.0  0.19198  0.84925  0.40683  1.0000
  C   C1019     1.0  0.19919  0.86906  0.40253  1.0000
  H   H814      1.0  0.15904  0.87688  0.41423  1.0000
  H   H815      1.0  0.14618  0.84198  0.42113  1.0000
  H   H816      1.0  0.20121  0.84166  0.40449  1.0000
  H   H817      1.0  0.21400  0.87649  0.39727  1.0000
  C   C1020     1.0  0.03273  0.82515  0.10211  1.0000
  C   C1021     1.0  0.01547  0.82716  0.09556  1.0000
  H   H818      1.0  0.16128  0.83111  0.35687  1.0000
  C   C1022     1.0  0.24826  0.00016  0.32396  1.0000
  C   C1023     1.0  0.01466  0.79067  0.10244  1.0000
  C   C1024     1.0  0.03216  0.80675  0.10576  1.0000
  H   H819      1.0  0.01568  0.84127  0.09256  1.0000
  H   H820      1.0  0.06480  0.96472  0.04755  1.0000
  H   H821      1.0  0.01449  0.77652  0.10490  1.0000
  H   H822      1.0  0.04522  0.80488  0.11080  1.0000
  C   C1025     1.0  0.13819  0.89291  0.02421  1.0000
  C   C1026     1.0  0.11930  0.88411  0.01454  1.0000
  H   H823      1.0  0.17785  0.79556  0.28492  1.0000
  C   C1027     1.0  0.12290  0.90749  0.47328  1.0000
  H   H824      1.0  0.00964  0.80998  0.20279  1.0000
  C   C1028     1.0  0.15251  0.90346  0.00655  1.0000
  H   H825      1.0  0.10822  0.87588  0.02796  1.0000
  C   C1029     1.0  0.16395  0.97763  0.25992  1.0000
  C   C1030     1.0  0.26871  0.76069  0.30085  1.0000
  H   H826      1.0  0.16718  0.91035  0.01385  1.0000
  C   C1031     1.0  0.12961  0.90665  0.21776  1.0000
  C   C1032     1.0  0.13971  0.92278  0.23411  1.0000
  C   C1033     1.0  0.14101  0.92117  0.26221  1.0000
  C   C1034     1.0  0.13184  0.90345  0.27424  1.0000
  C   C1035     1.0  0.12196  0.88735  0.25784  1.0000
  C   C1036     1.0  0.12097  0.88888  0.22979  1.0000
  H   H827      1.0  0.14646  0.93659  0.22500  1.0000
  H   H828      1.0  0.14868  0.93363  0.27461  1.0000
  H   H829      1.0  0.11481  0.87360  0.26696  1.0000
  H   H830      1.0  0.11315  0.87639  0.21752  1.0000
  C   C1037     1.0  0.23492  0.80385  0.03696  1.0000
  C   C1038     1.0  0.23248  0.78531  0.04392  1.0000
  C   C1039     1.0  0.23487  0.78098  0.07083  1.0000
  C   C1040     1.0  0.23995  0.79518  0.09097  1.0000
  C   C1041     1.0  0.24282  0.81380  0.08390  1.0000
  C   C1042     1.0  0.24043  0.81811  0.05702  1.0000
  H   H831      1.0  0.22895  0.77435  0.02855  1.0000
  H   H832      1.0  0.23284  0.76657  0.07604  1.0000
  H   H833      1.0  0.24683  0.82489  0.09915  1.0000
  H   H834      1.0  0.24264  0.83255  0.05178  1.0000
  C   C1043     1.0  0.22811  0.80045  0.28654  1.0000
  C   C1044     1.0  0.24598  0.81293  0.29682  1.0000
  C   C1045     1.0  0.24994  0.81393  0.32469  1.0000
  C   C1046     1.0  0.23597  0.80276  0.34251  1.0000
  C   C1047     1.0  0.21819  0.79032  0.33216  1.0000
  C   C1048     1.0  0.21433  0.78908  0.30435  1.0000
  H   H835      1.0  0.25678  0.82167  0.28333  1.0000
  H   H836      1.0  0.26383  0.82347  0.33250  1.0000
  H   H837      1.0  0.20760  0.78143  0.34571  1.0000
  C   C1049     1.0  0.30994  0.83570  0.12871  1.0000
  C   C1050     1.0  0.20217  0.85311  0.15702  1.0000
  C   C1051     1.0  0.19092  0.83737  0.17200  1.0000
  C   C1052     1.0  0.17082  0.82980  0.16903  1.0000
  C   C1053     1.0  0.16172  0.83789  0.15118  1.0000
  C   C1054     1.0  0.17296  0.85338  0.13580  1.0000
  C   C1055     1.0  0.19307  0.86101  0.13883  1.0000
  H   H838      1.0  0.19762  0.83131  0.18643  1.0000
  H   H839      1.0  0.16225  0.81794  0.18114  1.0000
  H   H840      1.0  0.16622  0.85941  0.12136  1.0000
  C   C1056     1.0  0.17580  0.79907  0.32740  1.0000
  C   C1057     1.0  0.16488  0.82349  0.34092  1.0000
  H   H841      1.0  0.19269  0.78545  0.03836  1.0000
  H   H842      1.0  0.20445  0.76941  0.16251  1.0000
  H   H843      1.0  0.07850  0.84186  0.05221  1.0000
  C   C1058     1.0  0.10622  0.95987  0.03220  1.0000
  H   H844      1.0  0.22530  0.84958  0.10566  1.0000
  H   H845      1.0  0.21908  0.75650  0.27331  1.0000
  H   H846      1.0  0.24829  0.77814  0.25225  1.0000
  C   C1059     1.0  0.13387  0.96079  0.44360  1.0000
  Fe  Fe81      1.0  0.18891  0.76256  0.44161  1.0000
  C   C1060     1.0  0.21384  0.96198  0.19790  1.0000
  H   H847      1.0  0.05679  0.88302  0.19390  1.0000
  C   C1061     1.0  0.20862  0.97759  0.44050  1.0000
  C   C1062     1.0  0.13989  0.83529  0.02150  1.0000
  H   H848      1.0  0.12430  0.96134  0.29815  1.0000
  H   H849      1.0  0.23561  0.85685  0.48091  1.0000
  C   C1063     1.0  0.15433  0.82804  0.49004  1.0000
  H   H850      1.0  0.21619  0.95489  0.18029  1.0000
  H   H851      1.0  0.17277  0.80599  0.36837  1.0000
  H   H852      1.0  0.20952  0.98903  0.42715  1.0000
  C   C1064     1.0  0.24193  0.98313  0.33810  1.0000
  C   C1065     1.0  0.12351  0.95212  0.46604  1.0000
  H   H853      1.0  0.01367  0.77972  0.19639  1.0000
  C   C1066     1.0  0.18522  0.77118  0.04575  1.0000
  H   H854      1.0  0.22356  0.96638  0.41364  1.0000
  C   C1067     1.0  0.00182  0.78179  0.18648  1.0000
  H   H855      1.0  0.20062  0.77917  0.29652  1.0000
  C   C1068     1.0  0.23262  0.87900  0.45703  1.0000
  H   H856      1.0  0.30619  0.84070  0.06153  1.0000
  H   H857      1.0  0.16116  0.97905  0.42877  1.0000
  H   H858      1.0  0.21930  0.93820  0.44145  1.0000
  H   H859      1.0  0.24057  0.87681  0.44052  1.0000
  H   H860      1.0  0.04744  0.82983  0.02755  1.0000
  H   H861      1.0  0.20405  0.81705  0.11734  1.0000
  H   H862      1.0  0.00829  0.83181  0.45036  1.0000
  C   C1069     1.0  0.23068  0.75305  0.39386  1.0000
  C   C1070     1.0  0.00918  0.85791  0.20382  1.0000
  C   C1071     1.0  0.16947  0.86342  0.02161  1.0000
  H   H863      1.0  0.07943  0.75478  0.99537  1.0000
  H   H864      1.0  0.23360  0.76308  0.35362  1.0000
  C   C1072     1.0  0.14180  0.91694  0.48276  1.0000
  C   C1073     1.0  0.17366  0.83343  0.48460  1.0000
  C   C1074     1.0  0.16474  0.86786  0.99606  1.0000
  C   C1075     1.0  0.19638  0.95899  0.48018  1.0000
  C   C1076     1.0  0.11675  0.97853  0.02362  1.0000
  C   C1077     1.0  0.22976  0.86772  0.47974  1.0000
  C   C1078     1.0  0.19259  0.77326  0.15684  1.0000
  C   C1079     1.0  0.30172  0.83299  0.10293  1.0000
  C   C1080     1.0  0.15341  0.97296  0.31347  1.0000
  H   H865      1.0  0.28016  0.78133  0.26974  1.0000
  H   H866      1.0  0.18072  0.78805  0.33274  1.0000
  C   C1081     1.0  0.26375  0.91954  0.17232  1.0000
  C   C1082     1.0  0.27591  0.90984  0.17521  1.0000
  C   C1083     1.0  0.27384  0.89763  0.19674  1.0000
  C   C1084     1.0  0.25935  0.89478  0.21508  1.0000
  C   C1085     1.0  0.24654  0.90380  0.21163  1.0000
  C   C1086     1.0  0.24928  0.91674  0.19067  1.0000
  P   P36       1.0  0.22816  0.90052  0.23568  1.0000
  C   C1087     1.0  0.20587  0.89886  0.22018  1.0000
  C   C1088     1.0  0.22246  0.87814  0.25261  1.0000
  C   C1089     1.0  0.21812  0.86138  0.23739  1.0000
  C   C1090     1.0  0.21438  0.84399  0.24998  1.0000
  C   C1091     1.0  0.21485  0.84319  0.27789  1.0000
  C   C1092     1.0  0.21845  0.85966  0.29323  1.0000
  C   C1093     1.0  0.22203  0.87706  0.28067  1.0000
  C   C1094     1.0  0.19172  0.90060  0.23621  1.0000
  C   C1095     1.0  0.17421  0.89910  0.22488  1.0000
  C   C1096     1.0  0.17066  0.89576  0.19738  1.0000
  C   C1097     1.0  0.18453  0.89366  0.18131  1.0000
  C   C1098     1.0  0.20199  0.89491  0.19269  1.0000
  C   C1099     1.0  0.23802  0.92092  0.25806  1.0000
  C   C1100     1.0  0.23218  0.93621  0.25587  1.0000
  C   C1101     1.0  0.24062  0.95240  0.27233  1.0000
  C   C1102     1.0  0.25508  0.95354  0.29090  1.0000
  C   C1103     1.0  0.26123  0.93856  0.29285  1.0000
  C   C1104     1.0  0.25290  0.92240  0.27628  1.0000
  H   H867      1.0  0.26541  0.92905  0.15567  1.0000
  H   H868      1.0  0.28691  0.91173  0.16075  1.0000
  H   H869      1.0  0.28330  0.89014  0.19902  1.0000
  H   H870      1.0  0.25809  0.88540  0.23175  1.0000
  H   H871      1.0  0.24006  0.92444  0.18828  1.0000
  H   H872      1.0  0.21794  0.86182  0.21576  1.0000
  H   H873      1.0  0.21150  0.83118  0.23807  1.0000
  H   H874      1.0  0.21248  0.82980  0.28761  1.0000
  H   H875      1.0  0.21861  0.85890  0.31489  1.0000
  H   H876      1.0  0.22453  0.88957  0.29291  1.0000
  H   H877      1.0  0.19423  0.90295  0.25751  1.0000
  H   H878      1.0  0.16323  0.90015  0.23746  1.0000
  H   H879      1.0  0.15698  0.89433  0.18861  1.0000
  H   H880      1.0  0.18157  0.89065  0.16008  1.0000
  H   H881      1.0  0.21219  0.89246  0.18004  1.0000
  H   H882      1.0  0.22142  0.93588  0.24111  1.0000
  H   H883      1.0  0.23614  0.96418  0.27040  1.0000
  H   H884      1.0  0.26175  0.96617  0.30345  1.0000
  H   H885      1.0  0.27267  0.93957  0.30693  1.0000
  H   H886      1.0  0.25818  0.91112  0.27748  1.0000
  C   C1105     1.0  0.15377  0.96230  0.01487  1.0000
  S   S160      1.0  0.23183  0.81010  0.00353  1.0000
  H   H887      1.0  0.10284  0.90568  0.06155  1.0000
  C   C1106     1.0  0.09363  0.83472  0.02062  1.0000
  H   H888      1.0  0.15701  0.96859  0.03480  1.0000
  H   H889      1.0  0.18350  0.98500  0.32310  1.0000
  H   H890      1.0  0.21960  0.99601  0.37652  1.0000
  P   P37       1.0  0.20318  0.99245  0.27201  1.0000
  C   C1107     1.0  0.16321  0.82796  0.31398  1.0000
  C   C1108     1.0  0.16774  0.81763  0.29379  1.0000
  P   P38       1.0  0.15479  0.84646  0.30608  1.0000
  C   C1109     1.0  0.13350  0.84173  0.32506  1.0000
  C   C1110     1.0  0.17274  0.86984  0.31424  1.0000
  C   C1111     1.0  0.17116  0.88595  0.30282  1.0000
  C   C1112     1.0  0.18482  0.90420  0.30890  1.0000
  C   C1113     1.0  0.20034  0.90650  0.32610  1.0000
  C   C1114     1.0  0.20203  0.89054  0.33752  1.0000
  C   C1115     1.0  0.18821  0.87227  0.33186  1.0000
  C   C1116     1.0  0.13020  0.85661  0.33756  1.0000
  C   C1117     1.0  0.11353  0.85278  0.35192  1.0000
  C   C1118     1.0  0.10016  0.83405  0.35418  1.0000
  C   C1119     1.0  0.10338  0.81911  0.34190  1.0000
  C   C1120     1.0  0.11996  0.82293  0.32730  1.0000
  C   C1121     1.0  0.14940  0.84663  0.27072  1.0000
  C   C1122     1.0  0.13070  0.84291  0.26126  1.0000
  C   C1123     1.0  0.12703  0.84410  0.23390  1.0000
  C   C1124     1.0  0.14194  0.84896  0.21589  1.0000
  C   C1125     1.0  0.16054  0.85253  0.22512  1.0000
  C   C1126     1.0  0.16434  0.85172  0.25247  1.0000
  H   H891      1.0  0.16642  0.82047  0.27285  1.0000
  H   H892      1.0  0.15911  0.88443  0.28963  1.0000
  H   H893      1.0  0.18308  0.91653  0.30056  1.0000
  H   H894      1.0  0.21078  0.92063  0.33122  1.0000
  H   H895      1.0  0.21373  0.89238  0.35156  1.0000
  H   H896      1.0  0.18963  0.86025  0.34153  1.0000
  H   H897      1.0  0.14038  0.87121  0.33626  1.0000
  H   H898      1.0  0.11102  0.86444  0.36123  1.0000
  H   H899      1.0  0.08732  0.83116  0.36545  1.0000
  H   H900      1.0  0.09303  0.80458  0.34372  1.0000
  H   H901      1.0  0.11898  0.83952  0.27488  1.0000
  H   H902      1.0  0.11266  0.84151  0.22663  1.0000
  H   H903      1.0  0.13911  0.85018  0.19479  1.0000
  H   H904      1.0  0.17208  0.85635  0.21107  1.0000
  H   H905      1.0  0.17893  0.85509  0.25942  1.0000
  H   H906      1.0  0.12486  0.81680  0.09121  1.0000
  C   C1127     1.0  0.21645  0.96462  0.43260  1.0000
  C   C1128     1.0  0.17406  0.80327  0.30054  1.0000
  C   C1129     1.0  0.20720  0.98058  0.24284  1.0000
  C   C1130     1.0  0.10856  0.99207  0.02362  1.0000
  H   H907      1.0  0.16065  0.84376  0.05425  1.0000
  H   H908      1.0  0.15296  0.92425  0.46893  1.0000
  H   H909      1.0  0.22291  0.86219  0.06065  1.0000
  C   C1131     1.0  0.15322  0.97287  0.44644  1.0000
  C   C1132     1.0  0.00555  0.84324  0.18473  1.0000
  P   P39       1.0  0.17191  0.78719  0.08757  1.0000
  C   C1133     1.0  0.18919  0.81038  0.07853  1.0000
  C   C1134     1.0  0.17504  0.78269  0.12244  1.0000
  C   C1135     1.0  0.16300  0.78471  0.14209  1.0000
  C   C1136     1.0  0.16584  0.78107  0.16894  1.0000
  C   C1137     1.0  0.22494  0.89287  0.45545  1.0000
  C   C1138     1.0  0.18777  0.81770  0.05319  1.0000
  C   C1139     1.0  0.19994  0.83629  0.04673  1.0000
  C   C1140     1.0  0.21346  0.84779  0.06562  1.0000
  C   C1141     1.0  0.21485  0.84068  0.09094  1.0000
  C   C1142     1.0  0.20277  0.82206  0.09745  1.0000
  H   H910      1.0  0.19882  0.84177  0.02710  1.0000
  H   H911      1.0  0.17715  0.80910  0.03847  1.0000
  H   H912      1.0  0.15163  0.78937  0.13697  1.0000
  H   H913      1.0  0.15677  0.78303  0.18408  1.0000
  H   H914      1.0  0.12223  0.81123  0.31779  1.0000
  H   H915      1.0  0.14047  0.77626  0.49252  1.0000
  P   P40       1.0  0.18770  0.99088  0.47487  1.0000
  C   C1143     1.0  0.18990  0.77703  0.13006  1.0000
  C   C1144     1.0  0.13451  0.77339  0.06565  1.0000
  H   H916      1.0  0.14936  0.97151  0.33427  1.0000
  C   C1145     1.0  0.11688  0.77454  0.05989  1.0000
  H   H917      1.0  0.30263  0.84598  0.29918  1.0000
  H   H918      1.0  0.14184  0.87304  0.46118  1.0000
  H   H919      1.0  0.18260  0.95400  0.24841  1.0000
  C   C1146     1.0  0.17127  0.80919  0.34754  1.0000
  C   C1147     1.0  0.12754  0.80472  0.08384  1.0000
  H   H920      1.0  0.22696  0.90148  0.43769  1.0000
  C   C1148     1.0  0.09229  0.82692  0.99473  1.0000
  C   C1149     1.0  0.31807  0.85174  0.30214  1.0000
  H   H921      1.0  0.28266  0.76219  0.30862  1.0000
  C   C1150     1.0  0.03467  0.84898  0.47051  1.0000
  C   C1151     1.0  0.07749  0.83584  0.03224  1.0000
  H   H922      1.0  0.13129  0.98277  0.01704  1.0000
  C   C1152     1.0  0.01503  0.83751  0.46952  1.0000
  C   C1153     1.0  0.08520  0.91656  0.00343  1.0000
  H   H923      1.0  0.13045  0.82268  0.03156  1.0000
  H   H924      1.0  0.25084  0.98111  0.35402  1.0000
  C   C1154     1.0  0.05992  0.82913  0.01825  1.0000
  H   H925      1.0  0.15845  0.92624  0.09634  1.0000
  C   C1155     1.0  0.15706  0.84710  0.03432  1.0000
  H   H926      1.0  0.32356  0.86435  0.26316  1.0000
  H   H927      1.0  0.10708  0.84016  0.03186  1.0000
  C   C1156     1.0  0.21406  0.94873  0.44829  1.0000
  C   C1157     1.0  0.23271  0.75717  0.28110  1.0000
  H   H928      1.0  0.13361  0.96579  0.25055  1.0000
  H   H929      1.0  0.31506  0.88755  0.22011  1.0000
  H   H930      1.0  0.14481  0.93469  0.13671  1.0000
  C   C1158     1.0  0.21403  0.89517  0.47629  1.0000
  H   H931      1.0  0.05409  0.87078  0.01369  1.0000
  C   C1159     1.0  0.99959  0.79900  0.18984  1.0000
  C   C1160     1.0  0.04250  0.87197  0.19137  1.0000
  C   C1161     1.0  0.17428  0.76788  0.06886  1.0000
  H   H932      1.0  0.18015  0.84352  0.46892  1.0000
  C   C1162     1.0  0.31262  0.84287  0.08150  1.0000
  C   C1163     1.0  0.20392  0.94590  0.47200  1.0000
  H   H933      1.0  0.16778  0.97972  0.23908  1.0000
  C   C1164     1.0  0.16809  0.96815  0.99579  1.0000
  H   H934      1.0  0.03037  0.88348  0.22191  1.0000
  C   C1165     1.0  0.14457  0.96993  0.26633  1.0000
  C   C1166     1.0  0.07798  0.88693  0.03980  1.0000
  C   C1167     1.0  0.14005  0.93700  0.11691  1.0000
  C   C1168     1.0  0.14520  0.80368  0.08947  1.0000
  C   C1169     1.0  0.07929  0.96857  0.04078  1.0000
  H   H935      1.0  0.05050  0.85728  0.15998  1.0000
  C   C1170     1.0  0.13930  0.96744  0.29312  1.0000
  C   C1171     1.0  0.08743  0.95501  0.04084  1.0000
  C   C1172     1.0  0.14779  0.93233  0.09421  1.0000
  C   C1173     1.0  0.21229  0.97154  0.31170  1.0000
  H   H936      1.0  0.09387  0.89098  0.48454  1.0000
  H   H937      1.0  0.18792  0.93834  0.20806  1.0000
  H   H938      1.0  0.12703  0.95765  0.42387  1.0000
  H   H939      1.0  0.07510  0.87551  0.05409  1.0000
  C   C1174     1.0  0.22668  0.98043  0.20496  1.0000
  C   C1175     1.0  0.17278  0.98051  0.30710  1.0000
  C   C1176     1.0  0.12577  0.94413  0.11407  1.0000
  H   H940      1.0  0.09971  0.79108  0.06473  1.0000
  H   H941      1.0  0.10768  0.95151  0.08685  1.0000
  C   C1177     1.0  0.09753  0.91920  0.02586  1.0000
  H   H942      1.0  0.20784  0.90568  0.47432  1.0000
  H   H943      1.0  0.11955  0.94737  0.13177  1.0000
  H   H944      1.0  0.04282  0.85184  0.45234  1.0000
  P   P41       1.0  0.11667  0.94229  0.03264  1.0000
  C   C1178     1.0  0.11911  0.94647  0.08852  1.0000
  H   H945      1.0  0.08355  0.99761  0.03229  1.0000
  C   C1179     1.0  0.11338  0.79019  0.06903  1.0000
  H   H946      1.0  0.23909  0.98764  0.19290  1.0000
  H   H947      1.0  0.16163  0.75317  0.33730  1.0000
  C   C1180     1.0  0.12677  0.94170  0.06559  1.0000
  C   C1181     1.0  0.14118  0.93465  0.06866  1.0000
  C   C1182     1.0  0.14879  0.78795  0.08058  1.0000
  H   H948      1.0  0.14687  0.93027  0.05135  1.0000
  H   H949      1.0  0.17582  0.88288  0.47330  1.0000
  H   H950      1.0  0.18325  0.77318  0.19722  1.0000
  C   C1183     1.0  0.19792  0.95263  0.21356  1.0000
  H   H951      1.0  0.28689  0.82324  0.09964  1.0000
  C   C1184     1.0  0.13253  0.95539  0.49133  1.0000
  C   C1185     1.0  0.22405  0.96875  0.33179  1.0000
  C   C1186     1.0  0.08984  0.98709  0.03218  1.0000
  H   H952      1.0  0.23897  0.76713  0.40224  1.0000
  H   H953      1.0  0.19969  0.77586  0.11534  1.0000
  C   C1187     1.0  0.21829  0.98887  0.29804  1.0000
  C   C1188     1.0  0.19479  0.96173  0.23623  1.0000
  C   C1189     1.0  0.06973  0.89910  0.99889  1.0000
  H   H954      1.0  0.30148  0.82815  0.14541  1.0000
  H   H955      1.0  0.18224  0.97863  0.00111  1.0000
  H   H956      1.0  0.19846  0.96028  0.30698  1.0000
  C   C1190     1.0  0.06611  0.88429  0.01709  1.0000
  C   C1191     1.0  0.03898  0.85745  0.17230  1.0000
  H   H957      1.0  0.18258  0.87279  0.03177  1.0000
  H   H958      1.0  0.15602  0.81514  0.10096  1.0000
  H   H959      1.0  0.01819  0.83200  0.15406  1.0000
  H   H960      1.0  0.99583  0.84615  0.13113  1.0000
  H   H961      1.0  0.21922  0.95555  0.34274  1.0000
  C   C1192     1.0  0.19885  0.97505  0.46466  1.0000
  H   H962      1.0  0.07908  0.94077  0.04785  1.0000
  C   C1193     1.0  0.13479  0.83989  0.99607  1.0000
  C   C1194     1.0  0.99792  0.81108  0.09263  1.0000
  C   C1195     1.0  0.24935  0.76961  0.26905  1.0000
  H   H963      1.0  0.19576  0.75849  0.01455  1.0000
  C   C1196     1.0  0.02761  0.87221  0.20711  1.0000
  H   H964      1.0  0.10591  0.76331  0.04836  1.0000
  C   C1197     1.0  0.18708  0.75593  0.03216  1.0000
  C   C1198     1.0  0.18066  0.77541  0.17633  1.0000
  C   C1199     1.0  0.02062  0.84314  0.16898  1.0000
  C   C1200     1.0  0.99741  0.79266  0.09575  1.0000
  H   H965      1.0  0.13700  0.76127  0.05827  1.0000
  C   C1201     1.0  0.26732  0.77145  0.27896  1.0000
  H   H966      1.0  0.31696  0.84128  0.34227  1.0000
  C   C1202     1.0  0.13542  0.94851  0.00824  1.0000
  C   C1203     1.0  0.16233  0.97651  0.47181  1.0000
  C   C1204     1.0  0.22343  0.98969  0.22741  1.0000
  H   H967      1.0  0.14577  0.83379  0.47824  1.0000
  H   H968      1.0  0.10870  0.94217  0.46363  1.0000
  H   H969      1.0  0.99790  0.85836  0.21627  1.0000
  H   H970      1.0  0.27823  0.81951  0.99295  1.0000
  C   C1205     1.0  0.14609  0.87184  0.48175  1.0000
  H   H971      1.0  0.20127  0.93322  0.48360  1.0000
  C   C1206     1.0  0.16549  0.87756  0.48885  1.0000
  C   C1207     1.0  0.10853  0.89824  0.49168  1.0000
  H   H972      1.0  0.08102  0.78760  0.99291  1.0000
  Fe  Fe82      1.0  0.24221  0.81846  0.66249  1.0000
  S   S161      1.0  0.25740  0.85028  0.66171  1.0000
  S   S162      1.0  0.24059  0.79916  0.62687  1.0000
  Fe  Fe83      1.0  0.23002  0.81885  0.72107  1.0000
  S   S163      1.0  0.24408  0.85082  0.72372  1.0000
  S   S164      1.0  0.21090  0.80164  0.75424  1.0000
  Fe  Fe84      1.0  0.23130  0.85017  0.68239  1.0000
  S   S165      1.0  0.21706  0.86970  0.66796  1.0000
  Fe  Fe85      1.0  0.26881  0.84779  0.70289  1.0000
  S   S166      1.0  0.29917  0.86049  0.72125  1.0000
  S   S167      1.0  0.21563  0.81851  0.68092  1.0000
  S   S168      1.0  0.25520  0.81561  0.70250  1.0000
  Fe  Fe86      1.0  0.11412  0.85894  0.63149  1.0000
  S   S169      1.0  0.13195  0.89023  0.63504  1.0000
  S   S170      1.0  0.12702  0.83763  0.64290  1.0000
  Fe  Fe87      1.0  0.07794  0.86473  0.61256  1.0000
  S   S171      1.0  0.09396  0.89675  0.61492  1.0000
  S   S172      1.0  0.04687  0.85598  0.59690  1.0000
  Fe  Fe88      1.0  0.11806  0.89195  0.59528  1.0000
  S   S173      1.0  0.13807  0.90992  0.56342  1.0000
  Fe  Fe89      1.0  0.10633  0.89199  0.65436  1.0000
  S   S174      1.0  0.10794  0.91061  0.69104  1.0000
  S   S175      1.0  0.10158  0.86032  0.59054  1.0000
  S   S176      1.0  0.08897  0.86038  0.65332  1.0000
  Fe  Fe90      1.0  0.21371  0.78053  0.90861  1.0000
  C   C1208     1.0  0.31507  0.85065  0.63241  1.0000
  S   S177      1.0  0.23344  0.78615  0.87303  1.0000
  Fe  Fe91      1.0  0.21439  0.79045  0.96940  1.0000
  S   S178      1.0  0.18251  0.77488  0.97132  1.0000
  C   C1209     1.0  0.26932  0.86119  0.83820  1.0000
  H   H973      1.0  0.19362  0.88490  0.63794  1.0000
  Fe  Fe92      1.0  0.18131  0.78857  0.93194  1.0000
  S   S179      1.0  0.16205  0.80475  0.92663  1.0000
  S   S180      1.0  0.21862  0.76701  0.94661  1.0000
  S   S181      1.0  0.21282  0.80549  0.93143  1.0000
  Fe  Fe93      1.0  0.15368  0.91276  0.84398  1.0000
  S   S182      1.0  0.18554  0.92821  0.85132  1.0000
  S   S183      1.0  0.14334  0.89829  0.80306  1.0000
  Fe  Fe94      1.0  0.14601  0.91131  0.90498  1.0000
  S   S184      1.0  0.17721  0.92649  0.91567  1.0000
  S   S185      1.0  0.12287  0.89935  0.93605  1.0000
  Fe  Fe95      1.0  0.17797  0.94605  0.88145  1.0000
  S   S186      1.0  0.19182  0.97801  0.89199  1.0000
  Fe  Fe96      1.0  0.18158  0.90733  0.88464  1.0000
  S   S187      1.0  0.20061  0.89093  0.88895  1.0000
  S   S188      1.0  0.14607  0.93178  0.87234  1.0000
  S   S189      1.0  0.15045  0.89104  0.87593  1.0000
  H   H974      1.0  0.11792  0.84836  0.77598  1.0000
  C   C1210     1.0  0.19000  0.86721  0.90026  1.0000
  C   C1211     1.0  0.17291  0.86073  0.91422  1.0000
  C   C1212     1.0  0.16482  0.84173  0.92287  1.0000
  C   C1213     1.0  0.17338  0.82892  0.91710  1.0000
  C   C1214     1.0  0.19051  0.83547  0.90323  1.0000
  C   C1215     1.0  0.19896  0.85461  0.89533  1.0000
  H   H975      1.0  0.16604  0.87038  0.91867  1.0000
  H   H976      1.0  0.15202  0.83702  0.93435  1.0000
  H   H977      1.0  0.19708  0.82573  0.89811  1.0000
  H   H978      1.0  0.21239  0.85957  0.88507  1.0000
  C   C1216     1.0  0.02543  0.83506  0.59904  1.0000
  C   C1217     1.0  0.00780  0.83603  0.59177  1.0000
  H   H979      1.0  0.24714  0.84505  0.80930  1.0000
  H   H980      1.0  0.06875  0.81045  0.64088  1.0000
  C   C1218     1.0  0.00812  0.80137  0.60835  1.0000
  C   C1219     1.0  0.02546  0.81761  0.60736  1.0000
  H   H981      1.0  0.00761  0.84946  0.58526  1.0000
  H   H982      1.0  0.25248  0.92767  0.75645  1.0000
  H   H983      1.0  0.00838  0.78793  0.61469  1.0000
  H   H984      1.0  0.03889  0.81659  0.61255  1.0000
  C   C1220     1.0  0.13184  0.90829  0.52878  1.0000
  C   C1221     1.0  0.11298  0.89850  0.51929  1.0000
  H   H985      1.0  0.19855  0.88917  0.78355  1.0000
  C   C1222     1.0  0.12911  0.89654  0.96976  1.0000
  C   C1223     1.0  0.09624  0.82827  0.70577  1.0000
  H   H986      1.0  0.14111  0.80770  0.97513  1.0000
  H   H987      1.0  0.10179  0.89143  0.53327  1.0000
  H   H988      1.0  0.17554  0.90763  0.55011  1.0000
  H   H989      1.0  0.27524  0.93072  0.72069  1.0000
  H   H990      1.0  0.16074  0.92526  0.51743  1.0000
  C   C1224     1.0  0.11835  0.90765  0.72199  1.0000
  C   C1225     1.0  0.11979  0.91995  0.74383  1.0000
  C   C1226     1.0  0.12773  0.91765  0.76879  1.0000
  C   C1227     1.0  0.13422  0.90297  0.77206  1.0000
  C   C1228     1.0  0.13297  0.89091  0.75011  1.0000
  C   C1229     1.0  0.12503  0.89315  0.72527  1.0000
  H   H991      1.0  0.11462  0.93120  0.74148  1.0000
  H   H992      1.0  0.12855  0.92702  0.78552  1.0000
  H   H993      1.0  0.13818  0.87973  0.75235  1.0000
  H   H994      1.0  0.12397  0.88361  0.70867  1.0000
  C   C1230     1.0  0.23148  0.81334  0.53948  1.0000
  C   C1231     1.0  0.23431  0.82697  0.55999  1.0000
  C   C1232     1.0  0.23695  0.82280  0.58687  1.0000
  C   C1233     1.0  0.23724  0.80510  0.59339  1.0000
  C   C1234     1.0  0.23463  0.79158  0.57282  1.0000
  C   C1235     1.0  0.23146  0.79555  0.54604  1.0000
  H   H995      1.0  0.23449  0.84083  0.55507  1.0000
  H   H996      1.0  0.23897  0.83334  0.60248  1.0000
  H   H997      1.0  0.23488  0.77787  0.57767  1.0000
  H   H998      1.0  0.22956  0.78504  0.53040  1.0000
  C   C1236     1.0  0.21777  0.79838  0.78745  1.0000
  C   C1237     1.0  0.20347  0.79097  0.80656  1.0000
  C   C1238     1.0  0.20810  0.78756  0.83298  1.0000
  C   C1239     1.0  0.22707  0.79109  0.84039  1.0000
  C   C1240     1.0  0.24138  0.79847  0.82127  1.0000
  C   C1241     1.0  0.23681  0.80235  0.79501  1.0000
  H   H999      1.0  0.18868  0.78767  0.80084  1.0000
  H   H1000     1.0  0.19694  0.78182  0.84743  1.0000
  H   H1001     1.0  0.25603  0.80104  0.82675  1.0000
  H   H1002     1.0  0.24792  0.80785  0.78043  1.0000
  C   C1242     1.0  0.19219  0.85996  0.65942  1.0000
  C   C1243     1.0  0.18002  0.84180  0.66766  1.0000
  C   C1244     1.0  0.16015  0.83494  0.66207  1.0000
  C   C1245     1.0  0.15224  0.84617  0.64811  1.0000
  C   C1246     1.0  0.16451  0.86401  0.63890  1.0000
  C   C1247     1.0  0.18435  0.87091  0.64467  1.0000
  H   H1003     1.0  0.18585  0.83321  0.67889  1.0000
  H   H1004     1.0  0.15085  0.82105  0.66912  1.0000
  H   H1005     1.0  0.15876  0.87262  0.62751  1.0000
  P   P42       1.0  0.26745  0.85810  0.92033  1.0000
  C   C1248     1.0  0.32046  0.87770  0.70808  1.0000
  C   C1249     1.0  0.08614  0.83494  0.72330  1.0000
  H   H1006     1.0  0.09062  0.82342  0.68575  1.0000
  H   H1007     1.0  0.18739  0.85949  0.75233  1.0000
  C   C1250     1.0  0.15706  0.87001  0.53512  1.0000
  C   C1251     1.0  0.17626  0.81214  0.51891  1.0000
  H   H1008     1.0  0.10788  0.85543  0.95124  1.0000
  P   P43       1.0  0.14624  0.83824  0.74707  1.0000
  C   C1252     1.0  0.20867  0.85487  0.59745  1.0000
  C   C1253     1.0  0.16267  0.85892  0.72996  1.0000
  C   C1254     1.0  0.15616  0.86826  0.71033  1.0000
  C   C1255     1.0  0.16891  0.88488  0.69861  1.0000
  C   C1256     1.0  0.18839  0.89194  0.70560  1.0000
  C   C1257     1.0  0.19507  0.88257  0.72470  1.0000
  C   C1258     1.0  0.18220  0.86634  0.73711  1.0000
  H   H1009     1.0  0.29216  0.90872  0.71854  1.0000
  H   H1010     1.0  0.14130  0.86294  0.70386  1.0000
  H   H1011     1.0  0.16372  0.89192  0.68347  1.0000
  H   H1012     1.0  0.19836  0.90435  0.69568  1.0000
  H   H1013     1.0  0.21024  0.88780  0.72962  1.0000
  C   C1259     1.0  0.27467  0.83662  0.96073  1.0000
  H   H1014     1.0  0.16099  0.86996  0.55610  1.0000
  C   C1260     1.0  0.03727  0.83704  0.78226  1.0000
  C   C1261     1.0  0.04622  0.82547  0.79228  1.0000
  P   P44       1.0  0.14559  0.78886  0.54940  1.0000
  C   C1262     1.0  0.04076  0.80879  0.74950  1.0000
  C   C1263     1.0  0.03197  0.82052  0.73915  1.0000
  C   C1264     1.0  0.03004  0.83450  0.75588  1.0000
  P   P45       1.0  0.02315  0.81788  0.70478  1.0000
  C   C1265     1.0  0.03024  0.84126  0.69015  1.0000
  C   C1266     1.0  0.03353  0.80440  0.68550  1.0000
  C   C1267     1.0  0.04888  0.81365  0.66862  1.0000
  C   C1268     1.0  0.05691  0.80314  0.65391  1.0000
  C   C1269     1.0  0.04960  0.78329  0.65578  1.0000
  C   C1270     1.0  0.03422  0.77393  0.67237  1.0000
  C   C1271     1.0  0.02621  0.78442  0.68720  1.0000
  C   C1272     1.0  0.02039  0.84392  0.66747  1.0000
  C   C1273     1.0  0.02668  0.86167  0.65507  1.0000
  C   C1274     1.0  0.04310  0.87675  0.66474  1.0000
  C   C1275     1.0  0.05309  0.87422  0.68716  1.0000
  C   C1276     1.0  0.04673  0.85658  0.69982  1.0000
  H   H1015     1.0  0.15422  0.76963  0.71685  1.0000
  C   C1277     1.0  0.09144  0.78054  0.57279  1.0000
  H   H1016     1.0  0.02844  0.75852  0.67364  1.0000
  C   C1278     1.0  0.21384  0.99709  0.84888  1.0000
  H   H1017     1.0  0.04243  0.79786  0.73722  1.0000
  C   C1279     1.0  0.19437  0.99907  0.50896  1.0000
  H   H1018     1.0  0.03608  0.84808  0.79493  1.0000
  H   H1019     1.0  0.05190  0.82751  0.81270  1.0000
  C   C1280     1.0  0.14618  0.91750  0.51036  1.0000
  H   H1020     1.0  0.20928  0.98333  0.83893  1.0000
  H   H1021     1.0  0.02317  0.84360  0.74837  1.0000
  H   H1022     1.0  0.05454  0.82895  0.66647  1.0000
  H   H1023     1.0  0.15190  0.97147  0.91171  1.0000
  H   H1024     1.0  0.29364  0.81010  0.54539  1.0000
  H   H1025     1.0  0.01427  0.77695  0.69994  1.0000
  H   H1026     1.0  0.99859  0.80687  0.53629  1.0000
  H   H1027     1.0  0.06613  0.88582  0.69425  1.0000
  H   H1028     1.0  0.05511  0.85494  0.71666  1.0000
  C   C1281     1.0  0.14754  0.98337  0.91338  1.0000
  H   H1029     1.0  0.05906  0.86570  0.49566  1.0000
  H   H1030     1.0  0.16051  0.87218  0.78207  1.0000
  H   H1031     1.0  0.16662  0.87665  0.83066  1.0000
  C   C1282     1.0  0.31556  0.84696  0.84732  1.0000
  H   H1032     1.0  0.25150  0.88676  0.91146  1.0000
  C   C1283     1.0  0.99738  0.80500  0.70320  1.0000
  H   H1033     1.0  0.99583  0.83075  0.79521  1.0000
  H   H1034     1.0  0.14767  0.81609  0.84007  1.0000
  C   C1284     1.0  0.15786  0.85979  0.79434  1.0000
  H   H1035     1.0  0.15879  0.96896  0.51381  1.0000
  H   H1036     1.0  0.21951  0.99228  0.51088  1.0000
  C   C1285     1.0  0.10711  0.77735  0.56319  1.0000
  H   H1037     1.0  0.21190  0.84730  0.61392  1.0000
  H   H1038     1.0  0.19926  0.82901  0.49369  1.0000
  H   H1039     1.0  0.22198  0.89970  0.57345  1.0000
  H   H1040     1.0  0.27298  0.82261  0.51943  1.0000
  H   H1041     1.0  0.07315  0.81417  0.96079  1.0000
  C   C1286     1.0  0.22312  0.85454  0.96855  1.0000
  C   C1287     1.0  0.30773  0.85394  0.57559  1.0000
  H   H1042     1.0  0.26312  0.79158  0.91593  1.0000
  H   H1043     1.0  0.12695  0.85963  0.54312  1.0000
  C   C1288     1.0  0.07457  0.82033  0.98072  1.0000
  H   H1044     1.0  0.28915  0.83844  0.78912  1.0000
  H   H1045     1.0  0.18763  0.82958  0.57911  1.0000
  C   C1289     1.0  0.11240  0.82948  0.94458  1.0000
  C   C1290     1.0  0.11001  0.84603  0.93654  1.0000
  C   C1291     1.0  0.11108  0.85097  0.90953  1.0000
  C   C1292     1.0  0.11442  0.83939  0.89027  1.0000
  C   C1293     1.0  0.11628  0.82260  0.89796  1.0000
  C   C1294     1.0  0.11509  0.81753  0.92496  1.0000
  C   C1295     1.0  0.17407  0.79825  0.62251  1.0000
  H   H1046     1.0  0.26318  0.88013  0.78814  1.0000
  H   H1047     1.0  0.11795  0.92997  0.97628  1.0000
  C   C1296     1.0  0.15257  0.78269  0.72214  1.0000
  C   C1297     1.0  0.30700  0.83564  0.56964  1.0000
  C   C1298     1.0  0.01372  0.84214  0.51732  1.0000
  C   C1299     1.0  0.29070  0.87719  0.92588  1.0000
  C   C1300     1.0  0.11121  0.80015  0.98392  1.0000
  C   C1301     1.0  0.29635  0.86110  0.56025  1.0000
  C   C1302     1.0  0.23807  0.85114  0.95697  1.0000
  H   H1048     1.0  0.18197  0.80047  0.71493  1.0000
  H   H1049     1.0  0.27555  0.92539  0.90352  1.0000
  H   H1050     1.0  0.28618  0.88371  0.75253  1.0000
  H   H1051     1.0  0.24123  0.95428  0.53227  1.0000
  H   H1052     1.0  0.26197  0.82056  0.89641  1.0000
  H   H1053     1.0  0.17362  0.80477  0.64166  1.0000
  H   H1054     1.0  0.10977  0.86408  0.90366  1.0000
  H   H1055     1.0  0.11581  0.84357  0.86946  1.0000
  H   H1056     1.0  0.11918  0.81373  0.88315  1.0000
  H   H1057     1.0  0.11717  0.80475  0.93036  1.0000
  C   C1303     1.0  0.22961  0.88189  0.94026  1.0000
  C   C1304     1.0  0.28302  0.83148  0.53465  1.0000
  H   H1058     1.0  0.22603  0.89357  0.93342  1.0000
  S   S190      1.0  0.18179  0.76381  0.90721  1.0000
  C   C1305     1.0  0.21892  0.86996  0.96030  1.0000
  C   C1306     1.0  0.24412  0.87809  0.92797  1.0000
  C   C1307     1.0  0.32025  0.89110  0.68922  1.0000
  C   C1308     1.0  0.29977  0.83912  0.82970  1.0000
  C   C1309     1.0  0.09388  0.78508  0.98982  1.0000
  C   C1310     1.0  0.18451  0.82531  0.49877  1.0000
  C   C1311     1.0  0.31405  0.88617  0.61244  1.0000
  C   C1312     1.0  0.16208  0.78978  0.57662  1.0000
  C   C1313     1.0  0.30155  0.91536  0.62436  1.0000
  C   C1314     1.0  0.28966  0.89635  0.62892  1.0000
  C   C1315     1.0  0.29587  0.88184  0.62286  1.0000
  H   H1059     1.0  0.15973  0.84868  0.85995  1.0000
  H   H1060     1.0  0.22879  0.88233  0.61122  1.0000
  H   H1061     1.0  0.15928  0.91316  0.96615  1.0000
  C   C1316     1.0  0.19037  0.85466  0.55707  1.0000
  H   H1062     1.0  0.29650  0.87509  0.56433  1.0000
  C   C1317     1.0  0.12662  0.77766  0.98146  1.0000
  C   C1318     1.0  0.12514  0.79250  0.56189  1.0000
  C   C1319     1.0  0.21906  0.87015  0.50079  1.0000
  C   C1320     1.0  0.29174  0.82297  0.65407  1.0000
  C   C1321     1.0  0.29672  0.83581  0.63295  1.0000
  H   H1063     1.0  0.11931  0.79827  0.74444  1.0000
  H   H1064     1.0  0.12281  0.76857  0.73154  1.0000
  C   C1322     1.0  0.26582  0.82075  0.91740  1.0000
  H   H1065     1.0  0.27562  0.89279  0.63724  1.0000
  H   H1066     1.0  0.28646  0.86719  0.62602  1.0000
  S   S191      1.0  0.22997  0.81989  0.50579  1.0000
  C   C1323     1.0  0.26660  0.80424  0.92840  1.0000
  C   C1324     1.0  0.30134  0.84461  0.80292  1.0000
  C   C1325     1.0  0.29276  0.89452  0.93817  1.0000
  C   C1326     1.0  0.20021  0.87446  0.55493  1.0000
  H   H1067     1.0  0.27762  0.81154  0.65420  1.0000
  H   H1068     1.0  0.08748  0.92804  0.98951  1.0000
  C   C1327     1.0  0.20309  0.91143  0.53397  1.0000
  C   C1328     1.0  0.20881  0.84466  0.77954  1.0000
  C   C1329     1.0  0.19887  0.83679  0.80257  1.0000
  C   C1330     1.0  0.20112  0.84825  0.82531  1.0000
  C   C1331     1.0  0.21350  0.86754  0.82518  1.0000
  C   C1332     1.0  0.22381  0.87544  0.80223  1.0000
  C   C1333     1.0  0.22096  0.86395  0.77918  1.0000
  P   P46       1.0  0.23895  0.90055  0.80120  1.0000
  C   C1334     1.0  0.22430  0.91387  0.79414  1.0000
  C   C1335     1.0  0.25078  0.90827  0.83357  1.0000
  C   C1336     1.0  0.24157  0.91421  0.85358  1.0000
  C   C1337     1.0  0.25048  0.92033  0.87866  1.0000
  C   C1338     1.0  0.26872  0.92066  0.88402  1.0000
  C   C1339     1.0  0.27797  0.91462  0.86436  1.0000
  C   C1340     1.0  0.26908  0.90846  0.83922  1.0000
  C   C1341     1.0  0.23196  0.93377  0.79792  1.0000
  C   C1342     1.0  0.22057  0.94411  0.79310  1.0000
  C   C1343     1.0  0.20151  0.93467  0.78433  1.0000
  C   C1344     1.0  0.19379  0.91490  0.78059  1.0000
  C   C1345     1.0  0.20505  0.90450  0.78577  1.0000
  C   C1346     1.0  0.25650  0.90400  0.77562  1.0000
  C   C1347     1.0  0.25996  0.91819  0.75626  1.0000
  C   C1348     1.0  0.27287  0.91997  0.73584  1.0000
  C   C1349     1.0  0.28239  0.90761  0.73458  1.0000
  C   C1350     1.0  0.27906  0.89350  0.75378  1.0000
  C   C1351     1.0  0.26610  0.89161  0.77407  1.0000
  H   H1069     1.0  0.20677  0.83589  0.76170  1.0000
  H   H1070     1.0  0.18934  0.82184  0.80269  1.0000
  H   H1071     1.0  0.19322  0.84212  0.84304  1.0000
  H   H1072     1.0  0.21480  0.87625  0.84287  1.0000
  H   H1073     1.0  0.22779  0.86988  0.76068  1.0000
  H   H1074     1.0  0.22734  0.91393  0.84998  1.0000
  H   H1075     1.0  0.24299  0.92459  0.89399  1.0000
  C   C1352     1.0  0.16117  0.86237  0.82200  1.0000
  H   H1076     1.0  0.29205  0.91470  0.86862  1.0000
  H   H1077     1.0  0.27657  0.90394  0.82440  1.0000
  H   H1078     1.0  0.24666  0.94124  0.80496  1.0000
  H   H1079     1.0  0.22640  0.95941  0.79656  1.0000
  H   H1080     1.0  0.19253  0.94257  0.78097  1.0000
  H   H1081     1.0  0.17892  0.90759  0.77415  1.0000
  H   H1082     1.0  0.14104  0.82272  0.56980  1.0000
  H   H1083     1.0  0.04843  0.89023  0.65437  1.0000
  H   H1084     1.0  0.23230  0.92027  0.52096  1.0000
  H   H1085     1.0  0.14397  0.86037  0.96393  1.0000
  C   C1353     1.0  0.24878  0.86294  0.93665  1.0000
  H   H1086     1.0  0.17886  0.83026  0.72736  1.0000
  H   H1087     1.0  0.28864  0.87467  0.87096  1.0000
  C   C1354     1.0  0.21825  0.87465  0.59582  1.0000
  C   C1355     1.0  0.09389  0.84188  0.74874  1.0000
  H   H1088     1.0  0.19826  0.77525  0.59131  1.0000
  H   H1089     1.0  0.14193  0.81131  0.79122  1.0000
  H   H1090     1.0  0.19742  0.79041  0.63470  1.0000
  C   C1356     1.0  0.29464  0.82445  0.54931  1.0000
  H   H1091     1.0  0.11724  0.86125  0.49579  1.0000
  H   H1092     1.0  0.27969  0.86830  0.82318  1.0000
  H   H1093     1.0  0.21749  0.96498  0.55253  1.0000
  C   C1357     1.0  0.18990  0.91760  0.54582  1.0000
  C   C1358     1.0  0.19508  0.93685  0.55236  1.0000
  H   H1094     1.0  0.18464  0.94135  0.56136  1.0000
  H   H1095     1.0  0.12210  0.82409  0.69927  1.0000
  C   C1359     1.0  0.23779  0.83874  0.84972  1.0000
  C   C1360     1.0  0.27438  0.86466  0.86543  1.0000
  C   C1361     1.0  0.21354  0.95009  0.54737  1.0000
  H   H1096     1.0  0.00829  0.83218  0.65868  1.0000
  C   C1362     1.0  0.26113  0.85504  0.88501  1.0000
  H   H1097     1.0  0.29680  0.92661  0.62928  1.0000
  C   C1363     1.0  0.26947  0.83695  0.93363  1.0000
  H   H1098     1.0  0.04044  0.85959  0.53724  1.0000
  C   C1364     1.0  0.24275  0.84222  0.87688  1.0000
  H   H1099     1.0  0.27741  0.84890  0.97368  1.0000
  H   H1100     1.0  0.01941  0.86352  0.63707  1.0000
  C   C1365     1.0  0.27113  0.80381  0.95558  1.0000
  H   H1101     1.0  0.27465  0.85503  0.52879  1.0000
  C   C1366     1.0  0.14724  0.82564  0.79949  1.0000
  C   C1367     1.0  0.30715  0.87443  0.91840  1.0000
  C   C1368     1.0  0.14592  0.81480  0.51000  1.0000
  C   C1369     1.0  0.11158  0.81391  0.58004  1.0000
  C   C1370     1.0  0.13301  0.79902  0.73762  1.0000
  C   C1371     1.0  0.13768  0.86417  0.52788  1.0000
  C   C1372     1.0  0.16826  0.80012  0.72102  1.0000
  C   C1373     1.0  0.14601  0.94684  0.96304  1.0000
  C   C1374     1.0  0.16641  0.81704  0.72822  1.0000
  C   C1375     1.0  0.11472  0.88617  0.98754  1.0000
  C   C1376     1.0  0.04384  0.85686  0.49489  1.0000
  C   C1377     1.0  0.19478  0.84490  0.57804  1.0000
  C   C1378     1.0  0.16127  0.79789  0.60171  1.0000
  C   C1379     1.0  0.11184  0.84229  0.75658  1.0000
  H   H1102     1.0  0.30672  0.89073  0.68144  1.0000
  C   C1380     1.0  0.15727  0.84662  0.83849  1.0000
  H   H1103     1.0  0.08630  0.84754  0.76209  1.0000
  C   C1381     1.0  0.14870  0.81667  0.73628  1.0000
  C   C1382     1.0  0.15091  0.84142  0.78282  1.0000
  C   C1383     1.0  0.17118  0.87665  0.51564  1.0000
  H   H1104     1.0  0.28633  0.82872  0.83676  1.0000
  H   H1105     1.0  0.31435  0.84249  0.86800  1.0000
  C   C1384     1.0  0.22688  0.94405  0.53597  1.0000
  C   C1385     1.0  0.12216  0.83583  0.73885  1.0000
  H   H1106     1.0  0.17959  0.84676  0.54218  1.0000
  H   H1107     1.0  0.21711  0.86112  0.51804  1.0000
  C   C1386     1.0  0.25105  0.84815  0.83034  1.0000
  C   C1387     1.0  0.21416  0.88443  0.57455  1.0000
  C   C1388     1.0  0.30479  0.82497  0.67513  1.0000
  C   C1389     1.0  0.11413  0.82864  0.71352  1.0000
  C   C1390     1.0  0.20744  0.99835  0.87458  1.0000
  H   H1108     1.0  0.07252  0.83507  0.71693  1.0000
  H   H1109     1.0  0.18503  0.80594  0.52931  1.0000
  C   C1391     1.0  0.31869  0.85794  0.79376  1.0000
  C   C1392     1.0  0.22173  0.92476  0.52943  1.0000
  C   C1393     1.0  0.21081  0.88371  0.49907  1.0000
  H   H1110     1.0  0.24068  0.83890  0.96351  1.0000
  P   P47       1.0  0.19629  0.88650  0.52575  1.0000
  H   H1111     1.0  0.11345  0.82802  0.58696  1.0000
  H   H1112     1.0  0.11308  0.99540  0.94040  1.0000
  H   H1113     1.0  0.05580  0.77518  0.64425  1.0000
  C   C1394     1.0  0.15040  0.82826  0.82724  1.0000
  H   H1114     1.0  0.31912  0.91946  0.76749  1.0000
  C   C1395     1.0  0.31951  0.91980  0.61326  1.0000
  P   P48       1.0  0.32151  0.86700  0.60460  1.0000
  H   H1115     1.0  0.23237  0.83451  0.89158  1.0000
  H   H1116     1.0  0.06049  0.89705  0.98131  1.0000
  H   H1117     1.0  0.09998  0.87964  0.98041  1.0000
  H   H1118     1.0  0.27105  0.79078  0.96426  1.0000
  C   C1396     1.0  0.03335  0.85346  0.51828  1.0000
  C   C1397     1.0  0.04789  0.81132  0.77594  1.0000
  H   H1119     1.0  0.22375  0.82836  0.84372  1.0000
  H   H1120     1.0  0.00581  0.83990  0.53561  1.0000
  C   C1398     1.0  0.00441  0.83379  0.49303  1.0000
  C   C1399     1.0  0.13493  0.78213  0.73044  1.0000
  C   C1400     1.0  0.27529  0.82003  0.97170  1.0000
  H   H1121     1.0  0.10505  0.76310  0.55671  1.0000
  C   C1401     1.0  0.28397  0.84983  0.53998  1.0000
  C   C1402     1.0  0.12724  0.81082  0.57040  1.0000
  H   H1122     1.0  0.13078  0.81047  0.51331  1.0000
  H   H1123     1.0  0.28609  0.83405  0.61718  1.0000
  H   H1124     1.0  0.28047  0.89689  0.94498  1.0000
  C   C1403     1.0  0.32534  0.88892  0.92258  1.0000
  C   C1404     1.0  0.16421  0.96043  0.96985  1.0000
  C   C1405     1.0  0.13168  0.94087  0.98209  1.0000
  C   C1406     1.0  0.18745  0.79018  0.61866  1.0000
  H   H1125     1.0  0.05487  0.80237  0.78373  1.0000
  C   C1407     1.0  0.14739  0.85630  0.98343  1.0000
  C   C1408     1.0  0.32299  0.83967  0.67490  1.0000
  C   C1409     1.0  0.15689  0.80689  0.52486  1.0000
  C   C1410     1.0  0.16895  0.00146  0.70041  1.0000
  H   H1126     1.0  0.08161  0.80134  0.58880  1.0000
  C   C1411     1.0  0.17563  0.78172  0.57301  1.0000
  C   C1412     1.0  0.18805  0.78173  0.59405  1.0000
  H   H1127     1.0  0.17425  0.88061  0.98627  1.0000
  C   C1413     1.0  0.13119  0.98145  0.92739  1.0000
  C   C1414     1.0  0.15193  0.96738  0.49422  1.0000
  H   H1128     1.0  0.15101  0.80413  0.60544  1.0000
  C   C1415     1.0  0.13832  0.76574  0.53319  1.0000
  H   H1129     1.0  0.17532  0.96482  0.95504  1.0000
  H   H1130     1.0  0.17657  0.77530  0.55397  1.0000
  H   H1131     1.0  0.30587  0.86101  0.90939  1.0000
  H   H1132     1.0  0.18967  0.99400  0.72233  1.0000
  C   C1416     1.0  0.09368  0.79882  0.58124  1.0000
  H   H1133     1.0  0.14311  0.94056  0.94307  1.0000
  H   H1134     1.0  0.16001  0.98681  0.69481  1.0000
  H   H1135     1.0  0.21458  0.84489  0.98353  1.0000
  H   H1136     1.0  0.12280  0.96799  0.93663  1.0000
  H   H1137     1.0  0.30067  0.81529  0.69183  1.0000
  C   C1417     1.0  0.13737  0.76395  0.50512  1.0000
  C   C1418     1.0  0.14806  0.90501  0.97941  1.0000
  H   H1138     1.0  0.12468  0.94792  0.50850  1.0000
  H   H1139     1.0  0.13927  0.77486  0.97755  1.0000
  C   C1419     1.0  0.12762  0.79632  0.98008  1.0000
  H   H1140     1.0  0.31251  0.92227  0.95204  1.0000
  H   H1141     1.0  0.18808  0.95627  0.49819  1.0000
  C   C1420     1.0  0.12574  0.99690  0.92948  1.0000
  C   C1421     1.0  0.13220  0.86514  0.50123  1.0000
  C   C1422     1.0  0.32567  0.90526  0.60703  1.0000
  H   H1142     1.0  0.31543  0.82972  0.58144  1.0000
  C   C1423     1.0  0.10925  0.76267  0.98690  1.0000
  C   C1424     1.0  0.31099  0.90898  0.94236  1.0000
  H   H1143     1.0  0.20705  0.87236  0.96883  1.0000
  H   H1144     1.0  0.32413  0.89462  0.79371  1.0000
  H   H1145     1.0  0.99637  0.79713  0.66126  1.0000
  P   P49       1.0  0.11258  0.82417  0.97985  1.0000
  H   H1146     1.0  0.04482  0.81624  0.98162  1.0000
  H   H1147     1.0  0.07755  0.76883  0.57368  1.0000
  C   C1425     1.0  0.21071  0.99810  0.52145  1.0000
  H   H1148     1.0  0.31962  0.86196  0.77290  1.0000
  C   C1426     1.0  0.09292  0.76640  0.99128  1.0000
  C   C1427     1.0  0.05848  0.82145  0.99245  1.0000
  C   C1428     1.0  0.15844  0.00070  0.90152  1.0000
  H   H1149     1.0  0.17120  0.00200  0.89103  1.0000
  H   H1150     1.0  0.99290  0.80945  0.74499  1.0000
  H   H1151     1.0  0.16428  0.00208  0.80491  1.0000
  Fe  Fe97      1.0  0.56310  0.11438  0.47635  1.0000
  S   S192      1.0  0.53124  0.10487  0.47114  1.0000
  S   S193      1.0  0.58394  0.11519  0.44414  1.0000
  Fe  Fe98      1.0  0.56129  0.11364  0.03757  1.0000
  S   S194      1.0  0.53030  0.10909  0.03862  1.0000
  S   S195      1.0  0.58110  0.11348  0.07201  1.0000
  H   H1152     1.0  0.35494  0.15796  0.27096  1.0000
  H   H1153     1.0  0.46255  0.17672  0.13328  1.0000
  C   C1429     1.0  0.50777  0.17622  0.01893  1.0000
  C   C1430     1.0  0.34758  0.20845  0.00100  1.0000
  H   H1154     1.0  0.48091  0.01822  0.01039  1.0000
  H   H1155     1.0  0.38632  0.19957  0.02205  1.0000
  Fe  Fe99      1.0  0.57374  0.10580  0.28894  1.0000
  S   S196      1.0  0.58763  0.08476  0.29152  1.0000
  S   S197      1.0  0.56028  0.11633  0.32187  1.0000
  Fe  Fe100     1.0  0.57611  0.10808  0.22812  1.0000
  S   S198      1.0  0.59044  0.08745  0.22584  1.0000
  S   S199      1.0  0.56393  0.12001  0.19440  1.0000
  Fe  Fe101     1.0  0.56887  0.07039  0.25572  1.0000
  S   S200      1.0  0.55384  0.03809  0.25309  1.0000
  Fe  Fe102     1.0  0.60831  0.10368  0.26177  1.0000
  S   S201      1.0  0.64012  0.10893  0.26619  1.0000
  S   S202      1.0  0.55340  0.08991  0.25560  1.0000
  S   S203      1.0  0.59551  0.12572  0.26149  1.0000
  Fe  Fe103     1.0  0.41291  0.18893  0.06687  1.0000
  S   S204      1.0  0.42087  0.22015  0.06329  1.0000
  S   S205      1.0  0.38259  0.16679  0.06666  1.0000
  Fe  Fe104     1.0  0.45448  0.19312  0.06812  1.0000
  S   S206      1.0  0.46587  0.22530  0.06449  1.0000
  S   S207      1.0  0.46864  0.17206  0.07571  1.0000
  Fe  Fe105     1.0  0.44358  0.22367  0.09455  1.0000
  H   H1156     1.0  0.63046  0.17287  0.44835  1.0000
  Fe  Fe106     1.0  0.44210  0.21960  0.03332  1.0000
  P   P50       1.0  0.62543  0.17081  0.35104  1.0000
  S   S208      1.0  0.43394  0.19221  0.10058  1.0000
  S   S209      1.0  0.43256  0.18778  0.03473  1.0000
  S   S210      1.0  0.44487  0.23446  0.25070  1.0000
  S   S211      1.0  0.37418  0.23786  0.32381  1.0000
  S   S212      1.0  0.42494  0.23499  0.31882  1.0000
  C   C1431     1.0  0.33760  0.17347  0.33150  1.0000
  C   C1432     1.0  0.39364  0.23965  0.39524  1.0000
  C   C1433     1.0  0.34047  0.20625  0.32697  1.0000
  C   C1434     1.0  0.36051  0.21292  0.32597  1.0000
  C   C1435     1.0  0.36901  0.19967  0.32698  1.0000
  C   C1436     1.0  0.35755  0.18007  0.32943  1.0000
  C   C1437     1.0  0.53229  0.03097  0.45966  1.0000
  H   H1157     1.0  0.38440  0.20451  0.32598  1.0000
  H   H1158     1.0  0.36412  0.16987  0.33006  1.0000
  H   H1159     1.0  0.63864  0.21100  0.36972  1.0000
  C   C1438     1.0  0.44512  0.22578  0.17060  1.0000
  C   C1439     1.0  0.44510  0.22351  0.19854  1.0000
  C   C1440     1.0  0.37929  0.21810  0.18238  1.0000
  H   H1160     1.0  0.44698  0.21543  0.15739  1.0000
  H   H1161     1.0  0.44710  0.21136  0.20690  1.0000
  H   H1162     1.0  0.51669  0.00312  0.04757  1.0000
  C   C1441     1.0  0.50114  0.17493  0.16773  1.0000
  H   H1163     1.0  0.65059  0.20139  0.42308  1.0000
  H   H1164     1.0  0.47934  0.13580  0.16820  1.0000
  C   C1442     1.0  0.62227  0.06676  0.11196  1.0000
  C   C1443     1.0  0.36449  0.17444  0.07609  1.0000
  C   C1444     1.0  0.34573  0.16091  0.07829  1.0000
  C   C1445     1.0  0.39344  0.16248  0.99641  1.0000
  C   C1446     1.0  0.48092  0.03086  0.11444  1.0000
  C   C1447     1.0  0.35364  0.19929  0.08880  1.0000
  C   C1448     1.0  0.36842  0.19365  0.08149  1.0000
  C   C1449     1.0  0.45969  0.09156  0.00845  1.0000
  H   H1165     1.0  0.35681  0.21419  0.09285  1.0000
  H   H1166     1.0  0.38279  0.20422  0.07998  1.0000
  C   C1450     1.0  0.52136  0.01775  0.05468  1.0000
  C   C1451     1.0  0.52970  0.02735  0.24139  1.0000
  H   H1167     1.0  0.35262  0.21523  0.44467  1.0000
  C   C1452     1.0  0.39837  0.15286  0.12860  1.0000
  C   C1453     1.0  0.35848  0.19813  0.00921  1.0000
  C   C1454     1.0  0.50139  0.02904  0.21973  1.0000
  C   C1455     1.0  0.52004  0.03817  0.23088  1.0000
  C   C1456     1.0  0.48287  0.04069  0.43578  1.0000
  H   H1168     1.0  0.49422  0.03750  0.21107  1.0000
  H   H1169     1.0  0.52712  0.05353  0.23049  1.0000
  C   C1457     1.0  0.51067  0.15925  0.02202  1.0000
  C   C1458     1.0  0.50045  0.14625  0.04138  1.0000
  C   C1459     1.0  0.48761  0.15037  0.05765  1.0000
  C   C1460     1.0  0.48476  0.16740  0.05458  1.0000
  C   C1461     1.0  0.49501  0.18036  0.03528  1.0000
  H   H1170     1.0  0.50013  0.00961  0.40973  1.0000
  H   H1171     1.0  0.50261  0.13317  0.04400  1.0000
  H   H1172     1.0  0.47986  0.14034  0.07272  1.0000
  H   H1173     1.0  0.49335  0.19373  0.03329  1.0000
  H   H1174     1.0  0.39302  0.12772  0.06992  1.0000
  C   C1462     1.0  0.57574  0.11492  0.10588  1.0000
  C   C1463     1.0  0.58964  0.11613  0.12558  1.0000
  C   C1464     1.0  0.58600  0.11707  0.15290  1.0000
  C   C1465     1.0  0.56854  0.11725  0.16060  1.0000
  C   C1466     1.0  0.55459  0.11597  0.14093  1.0000
  C   C1467     1.0  0.55805  0.11457  0.11361  1.0000
  H   H1175     1.0  0.60330  0.11642  0.11954  1.0000
  H   H1176     1.0  0.59687  0.11816  0.16794  1.0000
  H   H1177     1.0  0.54092  0.11561  0.14699  1.0000
  H   H1178     1.0  0.54705  0.11312  0.09863  1.0000
  C   C1468     1.0  0.57617  0.11393  0.41038  1.0000
  C   C1469     1.0  0.56093  0.11892  0.40295  1.0000
  C   C1470     1.0  0.55621  0.11962  0.37571  1.0000
  C   C1471     1.0  0.56637  0.11487  0.35581  1.0000
  C   C1472     1.0  0.58114  0.10918  0.36326  1.0000
  C   C1473     1.0  0.58623  0.10900  0.39047  1.0000
  H   H1179     1.0  0.55318  0.12288  0.41813  1.0000
  H   H1180     1.0  0.54469  0.12393  0.37006  1.0000
  H   H1181     1.0  0.58871  0.10508  0.34806  1.0000
  H   H1182     1.0  0.59799  0.10506  0.39610  1.0000
  C   C1474     1.0  0.44181  0.00840  0.12033  1.0000
  H   H1183     1.0  0.55660  0.19523  0.15457  1.0000
  H   H1184     1.0  0.54221  0.07681  0.34349  1.0000
  C   C1475     1.0  0.44289  0.23709  0.21576  1.0000
  S   S213      1.0  0.56875  0.13685  0.00699  1.0000
  H   H1185     1.0  0.51189  0.18943  0.20586  1.0000
  H   H1186     1.0  0.37428  0.16082  0.12818  1.0000
  C   C1476     1.0  0.48141  0.09638  0.48249  1.0000
  H   H1187     1.0  0.63580  0.06517  0.11286  1.0000
  H   H1188     1.0  0.34191  0.13260  0.45091  1.0000
  C   C1477     1.0  0.39180  0.20953  0.14247  1.0000
  C   C1478     1.0  0.58876  0.18897  0.39045  1.0000
  C   C1479     1.0  0.58402  0.17745  0.41302  1.0000
  C   C1480     1.0  0.60133  0.18689  0.37185  1.0000
  C   C1481     1.0  0.61532  0.17159  0.31822  1.0000
  C   C1482     1.0  0.62714  0.18005  0.29669  1.0000
  Fe  Fe107     1.0  0.52622  0.08768  0.00535  1.0000
  H   H1189     1.0  0.40442  0.23214  0.11443  1.0000
  C   C1483     1.0  0.38313  0.18048  0.27113  1.0000
  H   H1190     1.0  0.43029  0.01023  0.42748  1.0000
  H   H1191     1.0  0.58246  0.19931  0.38720  1.0000
  H   H1192     1.0  0.57402  0.17878  0.42725  1.0000
  H   H1193     1.0  0.60461  0.19576  0.35427  1.0000
  H   H1194     1.0  0.61746  0.13759  0.31459  1.0000
  C   C1484     1.0  0.37585  0.23791  0.00718  1.0000
  H   H1195     1.0  0.39582  0.21687  0.37245  1.0000
  C   C1485     1.0  0.33483  0.18575  0.09080  1.0000
  C   C1486     1.0  0.40163  0.12766  0.05297  1.0000
  C   C1487     1.0  0.36610  0.16788  0.25887  1.0000
  H   H1196     1.0  0.48647  0.16253  0.13013  1.0000
  H   H1197     1.0  0.62454  0.10894  0.31856  1.0000
  C   C1488     1.0  0.46043  0.23919  0.45653  1.0000
  C   C1489     1.0  0.42141  0.13315  0.05628  1.0000
  C   C1490     1.0  0.57150  0.02030  0.12870  1.0000
  H   H1198     1.0  0.43214  0.16297  0.17862  1.0000
  C   C1491     1.0  0.39452  0.19423  0.22816  1.0000
  C   C1492     1.0  0.60425  0.16161  0.39827  1.0000
  H   H1199     1.0  0.35899  0.18517  0.38563  1.0000
  C   C1493     1.0  0.62407  0.13541  0.33296  1.0000
  S   S214      1.0  0.44637  0.24668  0.12521  1.0000
  C   C1494     1.0  0.48741  0.19419  0.19164  1.0000
  H   H1200     1.0  0.37550  0.15512  0.44786  1.0000
  H   H1201     1.0  0.53380  0.02661  0.38892  1.0000
  C   C1495     1.0  0.50239  0.09936  0.12252  1.0000
  C   C1496     1.0  0.49657  0.10321  0.09731  1.0000
  C   C1497     1.0  0.49364  0.09022  0.07621  1.0000
  C   C1498     1.0  0.49732  0.07381  0.08000  1.0000
  C   C1499     1.0  0.50349  0.07001  0.10520  1.0000
  C   C1500     1.0  0.50543  0.08263  0.12668  1.0000
  P   P51       1.0  0.50534  0.04743  0.11053  1.0000
  C   C1501     1.0  0.52885  0.04508  0.47433  1.0000
  C   C1502     1.0  0.51662  0.04162  0.08256  1.0000
  C   C1503     1.0  0.51074  0.02265  0.07364  1.0000
  H   H1202     1.0  0.50672  0.01732  0.14585  1.0000
  C   C1504     1.0  0.53791  0.03175  0.04461  1.0000
  C   C1505     1.0  0.54368  0.05072  0.05312  1.0000
  C   C1506     1.0  0.53312  0.05567  0.07208  1.0000
  C   C1507     1.0  0.37200  0.23749  0.24681  1.0000
  C   C1508     1.0  0.65393  0.08142  0.15989  1.0000
  C   C1509     1.0  0.59540  0.16306  0.31384  1.0000
  C   C1510     1.0  0.53181  0.03032  0.17109  1.0000
  H   H1203     1.0  0.42328  0.17731  0.31074  1.0000
  C   C1511     1.0  0.52111  0.04756  0.13813  1.0000
  C   C1512     1.0  0.51869  0.03050  0.15112  1.0000
  H   H1204     1.0  0.49827  0.01155  0.08179  1.0000
  C   C1513     1.0  0.54736  0.04714  0.17830  1.0000
  C   C1514     1.0  0.55011  0.06405  0.16503  1.0000
  C   C1515     1.0  0.53727  0.06416  0.14462  1.0000
  H   H1205     1.0  0.50445  0.10933  0.13886  1.0000
  H   H1206     1.0  0.49427  0.11622  0.09413  1.0000
  H   H1207     1.0  0.48892  0.09305  0.05669  1.0000
  H   H1208     1.0  0.49519  0.06401  0.06328  1.0000
  H   H1209     1.0  0.50924  0.07959  0.14664  1.0000
  C   C1516     1.0  0.46512  0.24119  0.42925  1.0000
  C   C1517     1.0  0.33101  0.16654  0.08577  1.0000
  H   H1210     1.0  0.54599  0.02795  0.02970  1.0000
  H   H1211     1.0  0.55629  0.06164  0.04492  1.0000
  H   H1212     1.0  0.53802  0.07041  0.07880  1.0000
  C   C1518     1.0  0.50788  0.00627  0.48409  1.0000
  C   C1519     1.0  0.35128  0.16619  0.16849  1.0000
  C   C1520     1.0  0.55460  0.01976  0.11637  1.0000
  H   H1213     1.0  0.53212  0.02418  0.30243  1.0000
  C   C1521     1.0  0.47997  0.07877  0.49225  1.0000
  H   H1214     1.0  0.63659  0.13920  0.21841  1.0000
  C   C1522     1.0  0.65613  0.19074  0.42842  1.0000
  H   H1215     1.0  0.55702  0.04718  0.19460  1.0000
  H   H1216     1.0  0.56207  0.07713  0.17079  1.0000
  H   H1217     1.0  0.54000  0.07718  0.13388  1.0000
  C   C1523     1.0  0.42791  0.19511  0.34594  1.0000
  C   C1524     1.0  0.41762  0.17920  0.32977  1.0000
  H   H1218     1.0  0.42826  0.13755  0.07586  1.0000
  C   C1525     1.0  0.39277  0.16828  0.36273  1.0000
  C   C1526     1.0  0.40279  0.18453  0.37866  1.0000
  C   C1527     1.0  0.42058  0.19775  0.37035  1.0000
  P   P52       1.0  0.39458  0.18737  0.41131  1.0000
  C   C1528     1.0  0.36994  0.17134  0.41553  1.0000
  C   C1529     1.0  0.41051  0.18171  0.43370  1.0000
  C   C1530     1.0  0.41165  0.16380  0.43143  1.0000
  C   C1531     1.0  0.42472  0.15948  0.44742  1.0000
  C   C1532     1.0  0.43700  0.17312  0.46543  1.0000
  C   C1533     1.0  0.43622  0.19107  0.46731  1.0000
  C   C1534     1.0  0.42304  0.19536  0.45156  1.0000
  H   H1219     1.0  0.54305  0.03513  0.44448  1.0000
  P   P53       1.0  0.37568  0.18035  0.17925  1.0000
  C   C1535     1.0  0.35549  0.17371  0.39987  1.0000
  C   C1536     1.0  0.39472  0.21100  0.41504  1.0000
  C   C1537     1.0  0.39493  0.22196  0.39240  1.0000
  H   H1220     1.0  0.52958  0.01726  0.18162  1.0000
  C   C1538     1.0  0.39213  0.24657  0.42062  1.0000
  C   C1539     1.0  0.39157  0.23562  0.44318  1.0000
  C   C1540     1.0  0.39257  0.21779  0.44038  1.0000
  H   H1221     1.0  0.48759  0.20315  0.20866  1.0000
  H   H1222     1.0  0.47405  0.02858  0.07187  1.0000
  S   S215      1.0  0.55668  0.09079  0.00676  1.0000
  H   H1223     1.0  0.48601  0.05582  0.43642  1.0000
  H   H1224     1.0  0.42886  0.21012  0.38276  1.0000
  H   H1225     1.0  0.40254  0.15326  0.41707  1.0000
  H   H1226     1.0  0.48752  0.09095  0.00276  1.0000
  H   H1227     1.0  0.44595  0.20177  0.48091  1.0000
  H   H1228     1.0  0.42304  0.20946  0.45297  1.0000
  C   C1541     1.0  0.33883  0.17484  0.16037  1.0000
  C   C1542     1.0  0.50121  0.18638  0.18991  1.0000
  C   C1543     1.0  0.44355  0.24195  0.15977  1.0000
  C   C1544     1.0  0.63949  0.14564  0.17630  1.0000
  H   H1229     1.0  0.36485  0.15726  0.00837  1.0000
  C   C1545     1.0  0.33919  0.21302  0.40594  1.0000
  H   H1230     1.0  0.39066  0.24110  0.46289  1.0000
  H   H1231     1.0  0.39180  0.20933  0.45797  1.0000
  C   C1546     1.0  0.63671  0.13374  0.19835  1.0000
  H   H1232     1.0  0.62827  0.18638  0.25459  1.0000
  C   C1547     1.0  0.55935  0.00686  0.38413  1.0000
  H   H1233     1.0  0.38665  0.24772  0.24871  1.0000
  C   C1548     1.0  0.63711  0.11941  0.14686  1.0000
  C   C1549     1.0  0.48691  0.17130  0.14750  1.0000
  C   C1550     1.0  0.60927  0.17323  0.37561  1.0000
  H   H1234     1.0  0.60932  0.15039  0.40147  1.0000
  C   C1551     1.0  0.45393  0.01471  0.14293  1.0000
  C   C1552     1.0  0.37789  0.18100  0.21541  1.0000
  C   C1553     1.0  0.63754  0.14530  0.37754  1.0000
  C   C1554     1.0  0.61907  0.18014  0.27124  1.0000
  C   C1555     1.0  0.61113  0.06161  0.08826  1.0000
  C   C1556     1.0  0.51356  0.11319  0.19592  1.0000
  C   C1557     1.0  0.49377  0.10280  0.19544  1.0000
  C   C1558     1.0  0.48155  0.11104  0.18530  1.0000
  C   C1559     1.0  0.48911  0.12975  0.17586  1.0000
  C   C1560     1.0  0.50900  0.14041  0.17665  1.0000
  C   C1561     1.0  0.52118  0.13186  0.18641  1.0000
  P   P54       1.0  0.51896  0.16479  0.16516  1.0000
  C   C1562     1.0  0.52657  0.16564  0.13094  1.0000
  C   C1563     1.0  0.53459  0.15300  0.12201  1.0000
  C   C1564     1.0  0.54124  0.15411  0.09592  1.0000
  C   C1565     1.0  0.54003  0.16791  0.07859  1.0000
  C   C1566     1.0  0.53222  0.18067  0.08733  1.0000
  C   C1567     1.0  0.52568  0.17968  0.11345  1.0000
  C   C1568     1.0  0.53954  0.17811  0.18648  1.0000
  C   C1569     1.0  0.53931  0.17441  0.21405  1.0000
  C   C1570     1.0  0.55540  0.18427  0.23046  1.0000
  C   C1571     1.0  0.44781  0.10134  0.00328  1.0000
  C   C1572     1.0  0.57207  0.20190  0.19220  1.0000
  C   C1573     1.0  0.55602  0.19203  0.17570  1.0000
  H   H1235     1.0  0.52308  0.10681  0.20372  1.0000
  H   H1236     1.0  0.48793  0.08836  0.20291  1.0000
  H   H1237     1.0  0.46620  0.10293  0.18486  1.0000
  H   H1238     1.0  0.53661  0.13958  0.18687  1.0000
  H   H1239     1.0  0.53604  0.14252  0.13528  1.0000
  H   H1240     1.0  0.54750  0.14440  0.08912  1.0000
  H   H1241     1.0  0.54505  0.16867  0.05829  1.0000
  H   H1242     1.0  0.53111  0.19124  0.07373  1.0000
  H   H1243     1.0  0.52004  0.18998  0.11986  1.0000
  H   H1244     1.0  0.52674  0.16379  0.22286  1.0000
  H   H1245     1.0  0.55517  0.18119  0.25165  1.0000
  H   H1246     1.0  0.35372  0.13923  0.17555  1.0000
  C   C1574     1.0  0.38504  0.23682  0.17335  1.0000
  C   C1575     1.0  0.58764  0.07156  0.10782  1.0000
  C   C1576     1.0  0.59391  0.06415  0.08613  1.0000
  C   C1577     1.0  0.61613  0.07439  0.13376  1.0000
  C   C1578     1.0  0.59867  0.07660  0.13158  1.0000
  P   P55       1.0  0.63087  0.08269  0.16381  1.0000
  C   C1579     1.0  0.62001  0.06797  0.19211  1.0000
  H   H1247     1.0  0.63897  0.10266  0.36035  1.0000
  C   C1580     1.0  0.37799  0.20762  0.01567  1.0000
  C   C1581     1.0  0.60339  0.04599  0.23686  1.0000
  C   C1582     1.0  0.59322  0.04263  0.21242  1.0000
  C   C1583     1.0  0.60141  0.05364  0.19015  1.0000
  C   C1584     1.0  0.63417  0.10731  0.16893  1.0000
  C   C1585     1.0  0.52175  0.01153  0.46446  1.0000
  H   H1248     1.0  0.35209  0.22272  0.39666  1.0000
  C   C1586     1.0  0.62201  0.05994  0.23885  1.0000
  H   H1249     1.0  0.64291  0.05083  0.16496  1.0000
  H   H1250     1.0  0.35198  0.18281  0.01111  1.0000
  H   H1251     1.0  0.57451  0.07396  0.10595  1.0000
  C   C1587     1.0  0.46863  0.02458  0.09181  1.0000
  H   H1252     1.0  0.59383  0.08269  0.14808  1.0000
  C   C1588     1.0  0.63970  0.13848  0.15056  1.0000
  C   C1589     1.0  0.33946  0.20863  0.43308  1.0000
  H   H1253     1.0  0.56133  0.01385  0.31135  1.0000
  H   H1254     1.0  0.59665  0.03807  0.25439  1.0000
  H   H1255     1.0  0.57871  0.03192  0.21113  1.0000
  H   H1256     1.0  0.59299  0.05110  0.17179  1.0000
  H   H1257     1.0  0.43977  0.00853  0.07722  1.0000
  H   H1258     1.0  0.40188  0.23480  0.01934  1.0000
  C   C1590     1.0  0.45627  0.24959  0.41136  1.0000
  H   H1259     1.0  0.58478  0.21253  0.18372  1.0000
  H   H1260     1.0  0.58422  0.03340  0.12902  1.0000
  C   C1591     1.0  0.59183  0.16386  0.41695  1.0000
  C   C1592     1.0  0.39727  0.22818  0.13334  1.0000
  H   H1261     1.0  0.58426  0.20559  0.23227  1.0000
  C   C1593     1.0  0.64477  0.17470  0.44266  1.0000
  H   H1262     1.0  0.46732  0.23266  0.47002  1.0000
  H   H1263     1.0  0.64257  0.18632  0.29934  1.0000
  C   C1594     1.0  0.38284  0.20438  0.16716  1.0000
  H   H1264     1.0  0.64166  0.14765  0.13341  1.0000
  C   C1595     1.0  0.46789  0.02795  0.45057  1.0000
  C   C1596     1.0  0.62874  0.14867  0.35426  1.0000
  C   C1597     1.0  0.62801  0.11902  0.33513  1.0000
  H   H1265     1.0  0.58779  0.15460  0.43415  1.0000
  C   C1598     1.0  0.33927  0.22930  0.23162  1.0000
  H   H1266     1.0  0.37212  0.21432  0.20124  1.0000
  C   C1599     1.0  0.44915  0.01339  0.09477  1.0000
  H   H1267     1.0  0.54024  0.06104  0.38726  1.0000
  H   H1268     1.0  0.48399  0.06933  0.47988  1.0000
  H   H1269     1.0  0.58603  0.15590  0.32995  1.0000
  C   C1600     1.0  0.63625  0.11553  0.35868  1.0000
  H   H1270     1.0  0.48235  0.03117  0.15794  1.0000
  C   C1601     1.0  0.46401  0.00834  0.45000  1.0000
  H   H1271     1.0  0.44158  0.20555  0.33960  1.0000
  H   H1272     1.0  0.58559  0.06070  0.06751  1.0000
  C   C1602     1.0  0.52028  0.00740  0.24152  1.0000
  C   C1603     1.0  0.49439  0.02062  0.00114  1.0000
  C   C1604     1.0  0.47321  0.17922  0.14926  1.0000
  H   H1273     1.0  0.48643  0.10063  0.46245  1.0000
  H   H1274     1.0  0.40561  0.20468  0.21662  1.0000
  H   H1275     1.0  0.59296  0.17131  0.24724  1.0000
  H   H1276     1.0  0.50614  0.04394  0.40976  1.0000
  H   H1277     1.0  0.42553  0.14566  0.44560  1.0000
  S   S216      1.0  0.50161  0.05878  0.00567  1.0000
  H   H1278     1.0  0.61607  0.05608  0.07127  1.0000
  H   H1279     1.0  0.64362  0.14791  0.27866  1.0000
  C   C1605     1.0  0.47347  0.19065  0.17130  1.0000
  C   C1606     1.0  0.57178  0.19800  0.21955  1.0000
  H   H1280     1.0  0.35022  0.15808  0.22204  1.0000
  C   C1607     1.0  0.38671  0.22748  0.01443  1.0000
  C   C1608     1.0  0.39724  0.19375  0.25585  1.0000
  C   C1609     1.0  0.58737  0.16321  0.28842  1.0000
  H   H1281     1.0  0.55412  0.03248  0.10738  1.0000
  H   H1282     1.0  0.37732  0.21606  0.26920  1.0000
  C   C1610     1.0  0.42399  0.12874  0.00851  1.0000
  H   H1283     1.0  0.41177  0.17749  0.19839  1.0000
  C   C1611     1.0  0.49074  0.01463  0.42044  1.0000
  C   C1612     1.0  0.39408  0.24186  0.14884  1.0000
  H   H1284     1.0  0.53820  0.05829  0.30125  1.0000
  C   C1613     1.0  0.33398  0.21082  0.24190  1.0000
  H   H1285     1.0  0.64141  0.16038  0.17918  1.0000
  C   C1614     1.0  0.40405  0.12295  0.00542  1.0000
  C   C1615     1.0  0.49424  0.03401  0.42065  1.0000
  H   H1286     1.0  0.64734  0.12597  0.39826  1.0000
  H   H1287     1.0  0.39376  0.24795  0.37765  1.0000
  H   H1288     1.0  0.33378  0.21638  0.32572  1.0000
  H   H1289     1.0  0.64274  0.14819  0.45984  1.0000
  C   C1616     1.0  0.40768  0.17057  0.17902  1.0000
  C   C1617     1.0  0.53349  0.02305  0.34578  1.0000
  C   C1618     1.0  0.34785  0.20611  0.25550  1.0000
  H   H1290     1.0  0.38263  0.24745  0.18540  1.0000
  H   H1291     1.0  0.34253  0.14600  0.07433  1.0000
  C   C1619     1.0  0.32906  0.18669  0.33013  1.0000
  C   C1620     1.0  0.59919  0.17176  0.26711  1.0000
  C   C1621     1.0  0.40386  0.01031  0.44162  1.0000
  H   H1292     1.0  0.44779  0.13758  0.03722  1.0000
  C   C1622     1.0  0.53848  0.05287  0.36883  1.0000
  C   C1623     1.0  0.36678  0.21944  0.25791  1.0000
  H   H1293     1.0  0.42396  0.14739  0.13369  1.0000
  H   H1294     1.0  0.34164  0.16654  0.49130  1.0000
  C   C1624     1.0  0.41472  0.15346  0.14261  1.0000
  H   H1295     1.0  0.37926  0.15764  0.36904  1.0000
  H   H1296     1.0  0.46295  0.19687  0.17255  1.0000
  C   C1625     1.0  0.40012  0.16572  0.33825  1.0000
  H   H1297     1.0  0.34374  0.19019  0.15932  1.0000
  C   C1626     1.0  0.41938  0.16233  0.16781  1.0000
  C   C1627     1.0  0.47338  0.02604  0.14006  1.0000
  C   C1628     1.0  0.39110  0.16989  0.16512  1.0000
  H   H1298     1.0  0.34412  0.19242  0.26488  1.0000
  H   H1299     1.0  0.64479  0.08161  0.21857  1.0000
  Fe  Fe108     1.0  0.53709  0.13050  0.00564  1.0000
  H   H1300     1.0  0.53696  0.06002  0.47045  1.0000
  C   C1629     1.0  0.64882  0.19009  0.35454  1.0000
  C   C1630     1.0  0.65091  0.20824  0.36384  1.0000
  C   C1631     1.0  0.53969  0.06182  0.34418  1.0000
  H   H1301     1.0  0.39220  0.15329  0.32582  1.0000
  C   C1632     1.0  0.43249  0.13338  0.03423  1.0000
  C   C1633     1.0  0.53506  0.03346  0.36966  1.0000
  C   C1634     1.0  0.49212  0.00906  0.21944  1.0000
  H   H1302     1.0  0.38537  0.18019  0.29252  1.0000
  H   H1303     1.0  0.45951  0.03344  0.46265  1.0000
  C   C1635     1.0  0.34440  0.14619  0.16912  1.0000
  H   H1304     1.0  0.44727  0.16991  0.47773  1.0000
  C   C1636     1.0  0.36347  0.16807  0.23107  1.0000
  H   H1305     1.0  0.57201  0.15601  0.28515  1.0000
  H   H1306     1.0  0.47554  0.23605  0.42191  1.0000
  C   C1637     1.0  0.36486  0.15678  0.43457  1.0000
  C   C1638     1.0  0.63403  0.11467  0.19464  1.0000
  H   H1307     1.0  0.39466  0.19930  0.13016  1.0000
  H   H1308     1.0  0.37760  0.11819  0.02517  1.0000
  H   H1309     1.0  0.43336  0.09565  0.01063  1.0000
  H   H1310     1.0  0.39496  0.14649  0.10878  1.0000
  C   C1639     1.0  0.65771  0.14758  0.28001  1.0000
  C   C1640     1.0  0.39293  0.12230  0.02764  1.0000
  C   C1641     1.0  0.53744  0.05139  0.32037  1.0000
  C   C1642     1.0  0.38665  0.16108  0.13971  1.0000
  C   C1643     1.0  0.63041  0.07068  0.21649  1.0000
  C   C1644     1.0  0.53421  0.03205  0.32113  1.0000
  H   H1311     1.0  0.41026  0.20379  0.26551  1.0000
  H   H1312     1.0  0.49909  0.17298  0.48315  1.0000
  H   H1313     1.0  0.64179  0.15561  0.39378  1.0000
  C   C1645     1.0  0.65174  0.16081  0.44920  1.0000
  H   H1314     1.0  0.45440  0.16607  0.01189  1.0000
  C   C1646     1.0  0.64096  0.12865  0.37996  1.0000
  H   H1315     1.0  0.56358  0.02162  0.37867  1.0000
  H   H1316     1.0  0.32869  0.23369  0.22230  1.0000
  C   C1647     1.0  0.34575  0.14406  0.43662  1.0000
  H   H1317     1.0  0.62980  0.06288  0.25792  1.0000
  H   H1318     1.0  0.63727  0.11411  0.12674  1.0000
  C   C1648     1.0  0.35634  0.22846  0.00063  1.0000
  H   H1319     1.0  0.39757  0.15896  0.01586  1.0000
  H   H1320     1.0  0.34804  0.23673  0.99525  1.0000
  C   C1649     1.0  0.50744  0.03932  0.99661  1.0000
  H   H1321     1.0  0.63178  0.10580  0.21195  1.0000
  H   H1322     1.0  0.45450  0.07851  0.01982  1.0000
  C   C1650     1.0  0.44680  0.24556  0.46612  1.0000
  H   H1323     1.0  0.58265  0.01347  0.41299  1.0000
  S   S217      1.0  0.52753  0.15521  0.00164  1.0000
  H   H1324     1.0  0.47815  0.12253  0.49129  1.0000
  C   C1651     1.0  0.35824  0.24247  0.23380  1.0000
  S   S218      1.0  0.44096  0.23831  0.99861  1.0000
  C   C1652     1.0  0.33639  0.16115  0.40227  1.0000
  C   C1653     1.0  0.65546  0.06369  0.16149  1.0000
  H   H1325     1.0  0.40117  0.01701  0.42379  1.0000
  H   H1326     1.0  0.44829  0.01084  0.16280  1.0000
  C   C1654     1.0  0.33159  0.14603  0.42007  1.0000
  S   S219      1.0  0.51999  0.14900  0.49015  1.0000
  C   C1655     1.0  0.47830  0.09855  0.99885  1.0000
  C   C1656     1.0  0.53821  0.00280  0.11575  1.0000
  H   H1327     1.0  0.51570  0.18641  0.00411  1.0000
  H   H1328     1.0  0.47290  0.19922  0.99941  1.0000
  S   S220      1.0  0.46238  0.25151  0.37718  1.0000
  Fe  Fe109     1.0  0.40654  0.25167  0.31857  1.0000
  C   C1657     1.0  0.57200  0.00392  0.14052  1.0000
  H   H1329     1.0  0.58510  0.00438  0.15016  1.0000
  H   H1330     1.0  0.37764  0.00776  0.46014  1.0000
  C   C1658     1.0  0.42045  0.00659  0.44389  1.0000
  C   C1659     1.0  0.39059  0.00507  0.46209  1.0000
  C   C1660     1.0  0.49887  0.00495  0.99427  1.0000
  C   C1661     1.0  0.57051  0.00226  0.40327  1.0000
  H   H1331     1.0  0.32998  0.21500  0.04511  1.0000
  H   H1332     1.0  0.52526  0.00265  0.10627  1.0000
  Fe  Fe110     1.0  0.56150  0.11341  0.97606  1.0000
  S   S221      1.0  0.53048  0.10865  0.97218  1.0000
  S   S222      1.0  0.58109  0.11328  0.94268  1.0000
  Fe  Fe111     1.0  0.56205  0.11926  0.53726  1.0000
  S   S223      1.0  0.53010  0.11029  0.53691  1.0000
  S   S224      1.0  0.58248  0.12582  0.57325  1.0000
  C   C1662     1.0  0.41798  0.01734  0.56755  1.0000
  H   H1333     1.0  0.41794  0.16206  0.83293  1.0000
  H   H1334     1.0  0.55700  0.01137  0.79940  1.0000
  C   C1663     1.0  0.51881  0.13992  0.83919  1.0000
  C   C1664     1.0  0.51480  0.03974  0.49379  1.0000
  H   H1335     1.0  0.58999  0.17312  0.89359  1.0000
  Fe  Fe112     1.0  0.57133  0.11159  0.78795  1.0000
  S   S225      1.0  0.58361  0.08920  0.79002  1.0000
  S   S226      1.0  0.56265  0.12620  0.82172  1.0000
  Fe  Fe113     1.0  0.56962  0.11095  0.72695  1.0000
  S   S227      1.0  0.58186  0.08865  0.72402  1.0000
  S   S228      1.0  0.55723  0.12284  0.69346  1.0000
  Fe  Fe114     1.0  0.56196  0.07408  0.75714  1.0000
  S   S229      1.0  0.54582  0.04178  0.75717  1.0000
  Fe  Fe115     1.0  0.60259  0.10564  0.75689  1.0000
  S   S230      1.0  0.63382  0.10928  0.75509  1.0000
  S   S231      1.0  0.54827  0.09521  0.75773  1.0000
  S   S232      1.0  0.59174  0.12909  0.75724  1.0000
  Fe  Fe116     1.0  0.41441  0.19353  0.56949  1.0000
  S   S233      1.0  0.42441  0.22514  0.56668  1.0000
  S   S234      1.0  0.38350  0.17279  0.57324  1.0000
  Fe  Fe117     1.0  0.45505  0.19510  0.56384  1.0000
  S   S235      1.0  0.46800  0.22726  0.56021  1.0000
  S   S236      1.0  0.47103  0.17555  0.57075  1.0000
  Fe  Fe118     1.0  0.44882  0.22697  0.59403  1.0000
  H   H1336     1.0  0.33180  0.20682  0.71473  1.0000
  Fe  Fe119     1.0  0.44250  0.22302  0.53280  1.0000
  H   H1337     1.0  0.39451  0.19137  0.62496  1.0000
  S   S237      1.0  0.43746  0.19533  0.59961  1.0000
  S   S238      1.0  0.43085  0.19082  0.53410  1.0000
  S   S239      1.0  0.45128  0.22718  0.74853  1.0000
  S   S240      1.0  0.37436  0.22432  0.81664  1.0000
  S   S241      1.0  0.42595  0.22206  0.81340  1.0000
  C   C1665     1.0  0.64614  0.19190  0.83305  1.0000
  C   C1666     1.0  0.34496  0.13104  0.71970  1.0000
  C   C1667     1.0  0.34193  0.19256  0.82632  1.0000
  C   C1668     1.0  0.36153  0.19947  0.82083  1.0000
  C   C1669     1.0  0.37031  0.18651  0.81853  1.0000
  C   C1670     1.0  0.35945  0.16682  0.82109  1.0000
  C   C1671     1.0  0.63015  0.13657  0.93479  1.0000
  H   H1338     1.0  0.38540  0.19158  0.81450  1.0000
  H   H1339     1.0  0.36623  0.15689  0.81849  1.0000
  C   C1672     1.0  0.45690  0.24420  0.66034  1.0000
  C   C1673     1.0  0.45708  0.22671  0.66820  1.0000
  C   C1674     1.0  0.45649  0.22222  0.69552  1.0000
  C   C1675     1.0  0.45477  0.23476  0.71503  1.0000
  H   H1340     1.0  0.45757  0.21663  0.65325  1.0000
  H   H1341     1.0  0.45644  0.20858  0.70146  1.0000
  C   C1676     1.0  0.34598  0.19637  0.49333  1.0000
  P   P56       1.0  0.52102  0.16138  0.88571  1.0000
  H   H1342     1.0  0.41338  0.20062  0.89238  1.0000
  H   H1343     1.0  0.43343  0.05712  0.52951  1.0000
  C   C1677     1.0  0.54321  0.16320  0.93177  1.0000
  C   C1678     1.0  0.36561  0.18201  0.57587  1.0000
  C   C1679     1.0  0.34628  0.16948  0.57704  1.0000
  H   H1344     1.0  0.46273  0.02651  0.55605  1.0000
  H   H1345     1.0  0.61243  0.15439  0.86444  1.0000
  C   C1680     1.0  0.35614  0.20871  0.58140  1.0000
  C   C1681     1.0  0.37039  0.20165  0.57752  1.0000
  H   H1346     1.0  0.34242  0.15425  0.57550  1.0000
  H   H1347     1.0  0.36010  0.22393  0.58329  1.0000
  H   H1348     1.0  0.38513  0.21144  0.57636  1.0000
  H   H1349     1.0  0.63902  0.14819  0.77064  1.0000
  C   C1682     1.0  0.52166  0.03005  0.74582  1.0000
  C   C1683     1.0  0.47687  0.10879  0.49886  1.0000
  C   C1684     1.0  0.50229  0.18505  0.87100  1.0000
  H   H1350     1.0  0.35543  0.22704  0.49740  1.0000
  C   C1685     1.0  0.49086  0.03010  0.73138  1.0000
  C   C1686     1.0  0.50998  0.04001  0.74043  1.0000
  C   C1687     1.0  0.43273  0.09074  0.57962  1.0000
  H   H1351     1.0  0.48189  0.03789  0.72746  1.0000
  H   H1352     1.0  0.51564  0.05531  0.74336  1.0000
  C   C1688     1.0  0.61373  0.17767  0.74188  1.0000
  C   C1689     1.0  0.50466  0.15073  0.53948  1.0000
  C   C1690     1.0  0.49397  0.15699  0.55690  1.0000
  C   C1691     1.0  0.48480  0.16875  0.54786  1.0000
  C   C1692     1.0  0.48671  0.17451  0.52117  1.0000
  H   H1353     1.0  0.39187  0.15191  0.61704  1.0000
  H   H1354     1.0  0.51152  0.14157  0.54671  1.0000
  H   H1355     1.0  0.49287  0.15275  0.57751  1.0000
  C   C1693     1.0  0.34748  0.17616  0.66793  1.0000
  H   H1356     1.0  0.32828  0.11721  0.78224  1.0000
  C   C1694     1.0  0.57398  0.12224  0.60613  1.0000
  C   C1695     1.0  0.58564  0.11989  0.62681  1.0000
  C   C1696     1.0  0.58042  0.11948  0.65369  1.0000
  C   C1697     1.0  0.56351  0.12157  0.65999  1.0000
  C   C1698     1.0  0.55156  0.12332  0.63925  1.0000
  C   C1699     1.0  0.55658  0.12327  0.61235  1.0000
  H   H1357     1.0  0.59893  0.11868  0.62202  1.0000
  H   H1358     1.0  0.58965  0.11796  0.66952  1.0000
  H   H1359     1.0  0.53839  0.12474  0.64397  1.0000
  H   H1360     1.0  0.54731  0.12465  0.59649  1.0000
  C   C1700     1.0  0.57514  0.11593  0.90905  1.0000
  C   C1701     1.0  0.58568  0.11239  0.88849  1.0000
  C   C1702     1.0  0.58155  0.11485  0.86151  1.0000
  C   C1703     1.0  0.56717  0.12134  0.85505  1.0000
  C   C1704     1.0  0.55662  0.12481  0.87559  1.0000
  C   C1705     1.0  0.56047  0.12195  0.90251  1.0000
  H   H1361     1.0  0.59705  0.10770  0.89346  1.0000
  H   H1362     1.0  0.58973  0.11211  0.84581  1.0000
  H   H1363     1.0  0.54551  0.12982  0.87068  1.0000
  H   H1364     1.0  0.55246  0.12485  0.91829  1.0000
  H   H1365     1.0  0.60740  0.16849  0.59305  1.0000
  C   C1706     1.0  0.63437  0.17073  0.70015  1.0000
  C   C1707     1.0  0.40718  0.18686  0.88221  1.0000
  C   C1708     1.0  0.48314  0.13766  0.89689  1.0000
  S   S242      1.0  0.45706  0.25013  0.62622  1.0000
  H   H1366     1.0  0.38574  0.13823  0.84425  1.0000
  C   C1709     1.0  0.37765  0.21782  0.50955  1.0000
  H   H1367     1.0  0.41846  0.20651  0.70450  1.0000
  H   H1368     1.0  0.56014  0.07000  0.62041  1.0000
  Fe  Fe120     1.0  0.40689  0.23803  0.81372  1.0000
  H   H1369     1.0  0.64850  0.22287  0.62145  1.0000
  C   C1710     1.0  0.47414  0.07361  0.51843  1.0000
  C   C1711     1.0  0.38754  0.21507  0.93925  1.0000
  S   S243      1.0  0.50958  0.05670  0.51250  1.0000
  C   C1712     1.0  0.62543  0.14959  0.94965  1.0000
  H   H1370     1.0  0.46629  0.14097  0.60632  1.0000
  P   P57       1.0  0.50462  0.02029  0.84629  1.0000
  C   C1713     1.0  0.52684  0.01688  0.84516  1.0000
  C   C1714     1.0  0.50979  0.04515  0.84034  1.0000
  C   C1715     1.0  0.52650  0.05668  0.82733  1.0000
  C   C1716     1.0  0.53129  0.07625  0.82524  1.0000
  C   C1717     1.0  0.51935  0.08446  0.83562  1.0000
  C   C1718     1.0  0.50239  0.07303  0.84786  1.0000
  C   C1719     1.0  0.49758  0.05342  0.85016  1.0000
  C   C1720     1.0  0.53775  0.01771  0.86854  1.0000
  C   C1721     1.0  0.55529  0.01583  0.86705  1.0000
  C   C1722     1.0  0.56216  0.01331  0.84221  1.0000
  C   C1723     1.0  0.55148  0.01266  0.81882  1.0000
  C   C1724     1.0  0.53387  0.01434  0.82028  1.0000
  C   C1725     1.0  0.49335  0.01453  0.87838  1.0000
  H   H1371     1.0  0.34209  0.11146  0.68674  1.0000
  H   H1372     1.0  0.40877  0.23363  0.70541  1.0000
  C   C1726     1.0  0.33132  0.11604  0.76138  1.0000
  C   C1727     1.0  0.49259  0.02251  0.92536  1.0000
  C   C1728     1.0  0.50138  0.02664  0.90059  1.0000
  C   C1729     1.0  0.46904  0.18796  0.98432  1.0000
  H   H1373     1.0  0.41238  0.18589  0.66410  1.0000
  C   C1730     1.0  0.60641  0.17293  0.83705  1.0000
  H   H1374     1.0  0.47718  0.02598  0.80822  1.0000
  C   C1731     1.0  0.32988  0.22647  0.65439  1.0000
  H   H1375     1.0  0.53610  0.05082  0.81909  1.0000
  H   H1376     1.0  0.54449  0.08512  0.81593  1.0000
  H   H1377     1.0  0.52342  0.09970  0.83431  1.0000
  H   H1378     1.0  0.49315  0.07940  0.85591  1.0000
  H   H1379     1.0  0.48450  0.04477  0.86002  1.0000
  H   H1380     1.0  0.53290  0.01993  0.88794  1.0000
  H   H1381     1.0  0.56368  0.01660  0.88519  1.0000
  H   H1382     1.0  0.57592  0.01223  0.84104  1.0000
  C   C1732     1.0  0.40537  0.22448  0.68776  1.0000
  H   H1383     1.0  0.52604  0.01431  0.80185  1.0000
  C   C1733     1.0  0.65292  0.14740  0.77043  1.0000
  C   C1734     1.0  0.33192  0.17655  0.58048  1.0000
  C   C1735     1.0  0.35926  0.21489  0.49983  1.0000
  H   H1384     1.0  0.49878  0.03197  0.94231  1.0000
  H   H1385     1.0  0.51441  0.03934  0.89878  1.0000
  C   C1736     1.0  0.36799  0.19814  0.75007  1.0000
  C   C1737     1.0  0.38704  0.20322  0.75833  1.0000
  C   C1738     1.0  0.39715  0.19251  0.74977  1.0000
  C   C1739     1.0  0.38839  0.17702  0.73218  1.0000
  C   C1740     1.0  0.36943  0.17222  0.72294  1.0000
  C   C1741     1.0  0.35916  0.18267  0.73251  1.0000
  H   H1386     1.0  0.47997  0.11774  0.59297  1.0000
  C   C1742     1.0  0.37493  0.14734  0.68049  1.0000
  C   C1743     1.0  0.45251  0.09536  0.58227  1.0000
  C   C1744     1.0  0.53108  0.15371  0.79644  1.0000
  C   C1745     1.0  0.54321  0.16532  0.90385  1.0000
  H   H1387     1.0  0.52275  0.23236  0.68052  1.0000
  H   H1388     1.0  0.51248  0.12733  0.85121  1.0000
  C   C1746     1.0  0.51591  0.20952  0.91542  1.0000
  H   H1389     1.0  0.62506  0.10678  0.81581  1.0000
  C   C1747     1.0  0.33691  0.19620  0.58332  1.0000
  C   C1748     1.0  0.40223  0.14031  0.65017  1.0000
  C   C1749     1.0  0.40023  0.13550  0.67721  1.0000
  C   C1750     1.0  0.38653  0.13885  0.69227  1.0000
  C   C1751     1.0  0.34161  0.15773  0.67839  1.0000
  H   H1390     1.0  0.62409  0.08711  0.65330  1.0000
  H   H1391     1.0  0.63972  0.21071  0.80616  1.0000
  C   C1752     1.0  0.40996  0.16510  0.84871  1.0000
  H   H1392     1.0  0.36007  0.20607  0.75770  1.0000
  H   H1393     1.0  0.39386  0.21522  0.77189  1.0000
  H   H1394     1.0  0.41190  0.19642  0.75656  1.0000
  H   H1395     1.0  0.39666  0.16917  0.72562  1.0000
  H   H1396     1.0  0.34432  0.17883  0.72652  1.0000
  H   H1397     1.0  0.53737  0.18855  0.84282  1.0000
  H   H1398     1.0  0.49683  0.17572  0.85367  1.0000
  C   C1753     1.0  0.38118  0.21374  0.89138  1.0000
  H   H1399     1.0  0.38347  0.21775  0.62618  1.0000
  H   H1400     1.0  0.37713  0.20583  0.87263  1.0000
  C   C1754     1.0  0.33915  0.11289  0.70759  1.0000
  C   C1755     1.0  0.49764  0.16844  0.50377  1.0000
  H   H1401     1.0  0.41295  0.13791  0.63854  1.0000
  H   H1402     1.0  0.40936  0.12925  0.68653  1.0000
  H   H1403     1.0  0.38513  0.13500  0.71321  1.0000
  H   H1404     1.0  0.62257  0.20375  0.58918  1.0000
  H   H1405     1.0  0.62602  0.17800  0.95163  1.0000
  H   H1406     1.0  0.53467  0.05645  0.97999  1.0000
  H   H1407     1.0  0.61796  0.15254  0.62855  1.0000
  C   C1756     1.0  0.63934  0.14153  0.66611  1.0000
  H   H1408     1.0  0.54608  0.01037  0.67651  1.0000
  H   H1409     1.0  0.60247  0.24295  0.65203  1.0000
  C   C1757     1.0  0.43005  0.02438  0.59006  1.0000
  H   H1410     1.0  0.39723  0.20466  0.51998  1.0000
  C   C1758     1.0  0.38896  0.17351  0.88873  1.0000
  C   C1759     1.0  0.48082  0.01112  0.65086  1.0000
  C   C1760     1.0  0.38137  0.15587  0.87500  1.0000
  H   H1411     1.0  0.39821  0.24309  0.95745  1.0000
  H   H1412     1.0  0.62106  0.09908  0.69845  1.0000
  C   C1761     1.0  0.45414  0.01091  0.51868  1.0000
  C   C1762     1.0  0.64355  0.16028  0.90052  1.0000
  C   C1763     1.0  0.52003  0.22282  0.66335  1.0000
  H   H1413     1.0  0.62078  0.22367  0.66607  1.0000
  C   C1764     1.0  0.51431  0.18152  0.89018  1.0000
  H   H1414     1.0  0.64250  0.13144  0.89903  1.0000
  H   H1415     1.0  0.53019  0.15996  0.94279  1.0000
  C   C1765     1.0  0.43270  0.04810  0.54650  1.0000
  C   C1766     1.0  0.46458  0.11353  0.59209  1.0000
  H   H1416     1.0  0.58847  0.16082  0.71831  1.0000
  H   H1417     1.0  0.60647  0.15452  0.68182  1.0000
  C   C1767     1.0  0.38631  0.23346  0.89137  1.0000
  C   C1768     1.0  0.52928  0.02657  0.97766  1.0000
  C   C1769     1.0  0.49270  0.10826  0.91690  1.0000
  C   C1770     1.0  0.47358  0.10614  0.91585  1.0000
  H   H1418     1.0  0.49647  0.09692  0.92476  1.0000
  H   H1419     1.0  0.46252  0.09315  0.92298  1.0000
  C   C1771     1.0  0.38299  0.20237  0.51245  1.0000
  C   C1772     1.0  0.39038  0.14825  0.63808  1.0000
  C   C1773     1.0  0.51404  0.01016  0.74204  1.0000
  H   H1420     1.0  0.45556  0.01571  0.66084  1.0000
  H   H1421     1.0  0.34591  0.22138  0.94931  1.0000
  C   C1774     1.0  0.34794  0.24157  0.76805  1.0000
  H   H1422     1.0  0.45448  0.00449  0.77475  1.0000
  C   C1775     1.0  0.62742  0.19674  0.60478  1.0000
  C   C1776     1.0  0.45278  0.15449  0.97169  1.0000
  C   C1777     1.0  0.53920  0.05493  0.68012  1.0000
  H   H1423     1.0  0.55976  0.08174  0.66671  1.0000
  C   C1778     1.0  0.47468  0.19243  0.95798  1.0000
  C   C1779     1.0  0.46940  0.17802  0.93842  1.0000
  C   C1780     1.0  0.45859  0.15914  0.94523  1.0000
  C   C1781     1.0  0.36288  0.23628  0.67032  1.0000
  C   C1782     1.0  0.55083  0.06714  0.66113  1.0000
  H   H1424     1.0  0.41204  0.17871  0.93588  1.0000
  H   H1425     1.0  0.54317  0.18439  0.79522  1.0000
  C   C1783     1.0  0.50664  0.15651  0.51283  1.0000
  C   C1784     1.0  0.42368  0.11841  0.95113  1.0000
  C   C1785     1.0  0.42128  0.09994  0.94299  1.0000
  C   C1786     1.0  0.40960  0.09124  0.92063  1.0000
  C   C1787     1.0  0.40023  0.10090  0.90630  1.0000
  C   C1788     1.0  0.40254  0.11927  0.91430  1.0000
  C   C1789     1.0  0.41418  0.12798  0.93663  1.0000
  P   P58       1.0  0.35768  0.15207  0.70052  1.0000
  H   H1426     1.0  0.58951  0.16893  0.94280  1.0000
  H   H1427     1.0  0.39695  0.11910  0.98599  1.0000
  H   H1428     1.0  0.36643  0.22454  0.70846  1.0000
  H   H1429     1.0  0.41570  0.24881  0.62310  1.0000
  C   C1790     1.0  0.52778  0.02909  0.64703  1.0000
  C   C1791     1.0  0.44318  0.23469  0.96412  1.0000
  C   C1792     1.0  0.51642  0.00790  0.98273  1.0000
  H   H1430     1.0  0.47351  0.18151  0.91792  1.0000
  H   H1431     1.0  0.45477  0.14822  0.92980  1.0000
  C   C1793     1.0  0.55995  0.16481  0.94573  1.0000
  C   C1794     1.0  0.65457  0.14649  0.85066  1.0000
  H   H1432     1.0  0.42831  0.09216  0.95382  1.0000
  C   C1795     1.0  0.61427  0.16322  0.69883  1.0000
  C   C1796     1.0  0.33992  0.15991  0.82692  1.0000
  H   H1433     1.0  0.52115  0.21899  0.93269  1.0000
  H   H1434     1.0  0.64170  0.18747  0.90811  1.0000
  H   H1435     1.0  0.39107  0.09408  0.88910  1.0000
  H   H1436     1.0  0.39521  0.12674  0.90331  1.0000
  C   C1797     1.0  0.44206  0.24823  0.94595  1.0000
  C   C1798     1.0  0.54682  0.19022  0.55024  1.0000
  C   C1799     1.0  0.55211  0.17512  0.54396  1.0000
  C   C1800     1.0  0.55405  0.16340  0.56422  1.0000
  C   C1801     1.0  0.55045  0.16663  0.59071  1.0000
  C   C1802     1.0  0.54486  0.18157  0.59717  1.0000
  C   C1803     1.0  0.54355  0.19368  0.57682  1.0000
  P   P59       1.0  0.54262  0.18668  0.63191  1.0000
  C   C1804     1.0  0.53020  0.16475  0.64929  1.0000
  C   C1805     1.0  0.56707  0.19850  0.64411  1.0000
  C   C1806     1.0  0.57623  0.21848  0.64393  1.0000
  P   P60       1.0  0.64710  0.16682  0.67221  1.0000
  C   C1807     1.0  0.59549  0.22752  0.65210  1.0000
  C   C1808     1.0  0.59697  0.19678  0.65932  1.0000
  C   C1809     1.0  0.57772  0.18769  0.65127  1.0000
  C   C1810     1.0  0.51471  0.14998  0.63665  1.0000
  C   C1811     1.0  0.50464  0.13314  0.65030  1.0000
  C   C1812     1.0  0.51010  0.13089  0.67655  1.0000
  C   C1813     1.0  0.52537  0.14563  0.68935  1.0000
  C   C1814     1.0  0.53524  0.16261  0.67594  1.0000
  C   C1815     1.0  0.52820  0.20041  0.63674  1.0000
  C   C1816     1.0  0.51240  0.19770  0.61956  1.0000
  C   C1817     1.0  0.50092  0.20793  0.62382  1.0000
  C   C1818     1.0  0.53161  0.21268  0.65909  1.0000
  H   H1437     1.0  0.54512  0.19913  0.53440  1.0000
  C   C1819     1.0  0.44504  0.24665  0.91852  1.0000
  H   H1438     1.0  0.55837  0.15182  0.55942  1.0000
  H   H1439     1.0  0.55234  0.15766  0.60624  1.0000
  H   H1440     1.0  0.54006  0.20581  0.58131  1.0000
  H   H1441     1.0  0.56862  0.22707  0.63707  1.0000
  H   H1442     1.0  0.33237  0.21161  0.77334  1.0000
  C   C1820     1.0  0.47009  0.08623  0.53531  1.0000
  H   H1443     1.0  0.60511  0.18837  0.66468  1.0000
  H   H1444     1.0  0.57126  0.17223  0.65032  1.0000
  H   H1445     1.0  0.51045  0.15149  0.61627  1.0000
  H   H1446     1.0  0.49277  0.12178  0.64044  1.0000
  H   H1447     1.0  0.50268  0.11767  0.68692  1.0000
  H   H1448     1.0  0.52983  0.14370  0.70950  1.0000
  H   H1449     1.0  0.54687  0.17393  0.68635  1.0000
  H   H1450     1.0  0.50881  0.18764  0.60290  1.0000
  H   H1451     1.0  0.48891  0.20597  0.61026  1.0000
  H   H1452     1.0  0.54308  0.21428  0.67340  1.0000
  C   C1821     1.0  0.40730  0.19731  0.66466  1.0000
  C   C1822     1.0  0.64193  0.13473  0.64095  1.0000
  C   C1823     1.0  0.63382  0.19833  0.81875  1.0000
  H   H1453     1.0  0.37406  0.17199  0.50867  1.0000
  C   C1824     1.0  0.38266  0.17230  0.94656  1.0000
  P   P61       1.0  0.37565  0.17896  0.91472  1.0000
  C   C1825     1.0  0.40140  0.17353  0.95116  1.0000
  C   C1826     1.0  0.45453  0.11825  0.98850  1.0000
  H   H1454     1.0  0.34442  0.18826  0.89060  1.0000
  H   H1455     1.0  0.38789  0.23206  0.51479  1.0000
  C   C1827     1.0  0.64202  0.20748  0.62295  1.0000
  C   C1828     1.0  0.62512  0.16781  0.62696  1.0000
  H   H1456     1.0  0.43164  0.13281  0.60087  1.0000
  Fe  Fe121     1.0  0.52974  0.08744  0.50776  1.0000
  C   C1829     1.0  0.50478  0.22056  0.64560  1.0000
  C   C1830     1.0  0.52408  0.15824  0.85048  1.0000
  H   H1457     1.0  0.35536  0.16654  0.96488  1.0000
  C   C1831     1.0  0.39190  0.15167  0.85517  1.0000
  C   C1832     1.0  0.46123  0.00718  0.64924  1.0000
  H   H1458     1.0  0.55450  0.17239  0.52331  1.0000
  C   C1833     1.0  0.35153  0.18094  0.49623  1.0000
  C   C1834     1.0  0.61398  0.18878  0.82062  1.0000
  C   C1835     1.0  0.48869  0.00533  0.82061  1.0000
  C   C1836     1.0  0.57677  0.16837  0.93198  1.0000
  C   C1837     1.0  0.45829  0.16906  0.99125  1.0000
  P   P62       1.0  0.46279  0.07946  0.56926  1.0000
  C   C1838     1.0  0.52231  0.13771  0.81226  1.0000
  H   H1459     1.0  0.64819  0.14455  0.62488  1.0000
  C   C1839     1.0  0.64010  0.17840  0.64490  1.0000
  H   H1460     1.0  0.44696  0.20843  0.96835  1.0000
  H   H1461     1.0  0.34019  0.19477  0.64170  1.0000
  C   C1840     1.0  0.51603  0.00500  0.58360  1.0000
  H   H1462     1.0  0.35080  0.13924  0.92526  1.0000
  H   H1463     1.0  0.60445  0.19363  0.80935  1.0000
  H   H1464     1.0  0.52173  0.12625  0.90866  1.0000
  H   H1465     1.0  0.45392  0.11900  0.90459  1.0000
  C   C1841     1.0  0.52773  0.03603  0.67312  1.0000
  H   H1466     1.0  0.63073  0.13343  0.70693  1.0000
  C   C1842     1.0  0.37673  0.15171  0.65309  1.0000
  H   H1467     1.0  0.55978  0.16298  0.96723  1.0000
  H   H1468     1.0  0.46840  0.11404  0.53746  1.0000
  C   C1843     1.0  0.63205  0.12855  0.68694  1.0000
  Fe  Fe122     1.0  0.44227  0.24221  0.78154  1.0000
  C   C1844     1.0  0.48283  0.08051  0.59051  1.0000
  H   H1469     1.0  0.54055  0.03661  0.60800  1.0000
  C   C1845     1.0  0.44354  0.04324  0.59079  1.0000
  H   H1470     1.0  0.36168  0.24102  0.77302  1.0000
  H   H1471     1.0  0.40769  0.07694  0.91451  1.0000
  C   C1846     1.0  0.60583  0.21668  0.65992  1.0000
  C   C1847     1.0  0.48320  0.01018  0.72765  1.0000
  C   C1848     1.0  0.49854  0.07789  0.57973  1.0000
  C   C1849     1.0  0.51389  0.07858  0.59631  1.0000
  C   C1850     1.0  0.51355  0.08160  0.62385  1.0000
  C   C1851     1.0  0.49784  0.08385  0.63488  1.0000
  C   C1852     1.0  0.48251  0.08331  0.61831  1.0000
  P   P63       1.0  0.38836  0.24767  0.66520  1.0000
  C   C1853     1.0  0.65433  0.13023  0.76340  1.0000
  H   H1472     1.0  0.44924  0.02119  0.50994  1.0000
  C   C1854     1.0  0.38166  0.20436  0.91530  1.0000
  C   C1855     1.0  0.39298  0.23485  0.93910  1.0000
  C   C1856     1.0  0.47139  0.10387  0.52521  1.0000
  H   H1473     1.0  0.53926  0.06005  0.70044  1.0000
  C   C1857     1.0  0.60401  0.16690  0.71943  1.0000
  C   C1858     1.0  0.43730  0.12214  0.59641  1.0000
  H   H1474     1.0  0.61794  0.14521  0.96828  1.0000
  S   S244      1.0  0.56665  0.13947  0.50290  1.0000
  H   H1475     1.0  0.45280  0.04829  0.60837  1.0000
  H   H1476     1.0  0.51711  0.00522  0.54055  1.0000
  C   C1859     1.0  0.57701  0.17075  0.90427  1.0000
  C   C1860     1.0  0.63375  0.18515  0.74340  1.0000
  H   H1477     1.0  0.64133  0.19334  0.76086  1.0000
  H   H1478     1.0  0.49918  0.07539  0.55853  1.0000
  H   H1479     1.0  0.52614  0.07691  0.58768  1.0000
  H   H1480     1.0  0.52554  0.08231  0.63663  1.0000
  H   H1481     1.0  0.49764  0.08607  0.65630  1.0000
  H   H1482     1.0  0.47038  0.08493  0.62724  1.0000
  S   S245      1.0  0.32700  0.13500  0.83060  1.0000
  C   C1861     1.0  0.33125  0.22488  0.76807  1.0000
  C   C1862     1.0  0.48505  0.11538  0.98426  1.0000
  H   H1483     1.0  0.51902  0.02668  0.68823  1.0000
  S   S246      1.0  0.43844  0.24148  0.49933  1.0000
  C   C1863     1.0  0.63793  0.11681  0.82577  1.0000
  H   H1484     1.0  0.63783  0.10995  0.61661  1.0000
  C   C1864     1.0  0.41760  0.18264  0.86228  1.0000
  C   C1865     1.0  0.40673  0.16858  0.97603  1.0000
  H   H1485     1.0  0.43153  0.19316  0.85712  1.0000
  C   C1866     1.0  0.53284  0.17427  0.83440  1.0000
  C   C1867     1.0  0.61890  0.17691  0.60689  1.0000
  H   H1486     1.0  0.33501  0.20246  0.82829  1.0000
  H   H1487     1.0  0.38849  0.20841  0.95800  1.0000
  C   C1868     1.0  0.62657  0.10901  0.68224  1.0000
  C   C1869     1.0  0.44958  0.23169  0.90917  1.0000
  C   C1870     1.0  0.46879  0.12077  0.90569  1.0000
  C   C1871     1.0  0.50705  0.12504  0.90796  1.0000
  C   C1872     1.0  0.36958  0.16669  0.96746  1.0000
  C   C1873     1.0  0.61866  0.16667  0.85171  1.0000
  C   C1874     1.0  0.50445  0.02038  0.49857  1.0000
  H   H1488     1.0  0.36786  0.15795  0.64307  1.0000
  C   C1875     1.0  0.49724  0.20073  0.87399  1.0000
  C   C1876     1.0  0.45001  0.21774  0.92715  1.0000
  C   C1877     1.0  0.44660  0.21911  0.95453  1.0000
  H   H1489     1.0  0.45316  0.20597  0.91985  1.0000
  H   H1490     1.0  0.33870  0.22540  0.90221  1.0000
  C   C1878     1.0  0.50244  0.14003  0.89827  1.0000
  C   C1879     1.0  0.65489  0.11384  0.82477  1.0000
  C   C1880     1.0  0.62978  0.16797  0.94010  1.0000
  H   H1491     1.0  0.48798  0.20345  0.85916  1.0000
  C   C1881     1.0  0.50409  0.21298  0.89615  1.0000
  H   H1492     1.0  0.47912  0.14876  0.88899  1.0000
  H   H1493     1.0  0.53013  0.19153  0.92779  1.0000
  H   H1494     1.0  0.59101  0.16531  0.83829  1.0000
  C   C1882     1.0  0.63621  0.11515  0.63624  1.0000
  H   H1495     1.0  0.38599  0.24055  0.87272  1.0000
  C   C1883     1.0  0.33852  0.17375  0.89753  1.0000
  H   H1496     1.0  0.40997  0.10065  0.58407  1.0000
  C   C1884     1.0  0.39133  0.21553  0.64321  1.0000
  H   H1497     1.0  0.56082  0.17061  0.86868  1.0000
  S   S247      1.0  0.56124  0.09510  0.51089  1.0000
  H   H1498     1.0  0.50005  0.22507  0.89844  1.0000
  C   C1885     1.0  0.39738  0.20047  0.64261  1.0000
  C   C1886     1.0  0.56034  0.16930  0.89022  1.0000
  C   C1887     1.0  0.52098  0.19384  0.91254  1.0000
  P   P64       1.0  0.51348  0.00418  0.63917  1.0000
  H   H1499     1.0  0.36717  0.14548  0.87900  1.0000
  H   H1500     1.0  0.51881  0.12359  0.80379  1.0000
  H   H1501     1.0  0.48284  0.20715  0.95269  1.0000
  C   C1888     1.0  0.39584  0.22801  0.66538  1.0000
  C   C1889     1.0  0.41088  0.20905  0.68737  1.0000
  C   C1890     1.0  0.53966  0.04148  0.62806  1.0000
  C   C1891     1.0  0.35026  0.16540  0.90919  1.0000
  C   C1892     1.0  0.33671  0.21537  0.69707  1.0000
  C   C1893     1.0  0.42517  0.10409  0.58674  1.0000
  H   H1502     1.0  0.51108  0.01651  0.58435  1.0000
  H   H1503     1.0  0.42903  0.01519  0.60694  1.0000
  C   C1894     1.0  0.62845  0.10228  0.65686  1.0000
  H   H1504     1.0  0.42316  0.07707  0.57140  1.0000
  P   P65       1.0  0.43865  0.12994  0.97999  1.0000
  C   C1895     1.0  0.32784  0.21504  0.91418  1.0000
  C   C1896     1.0  0.33548  0.18067  0.65020  1.0000
  C   C1897     1.0  0.34200  0.14619  0.91688  1.0000
  H   H1505     1.0  0.48992  0.02295  0.66334  1.0000
  P   P66       1.0  0.65414  0.16712  0.86823  1.0000
  H   H1506     1.0  0.54280  0.02899  0.96855  1.0000
  C   C1898     1.0  0.53624  0.17199  0.80746  1.0000
  C   C1899     1.0  0.55102  0.06046  0.63508  1.0000
  C   C1900     1.0  0.63865  0.17594  0.84960  1.0000
  C   C1901     1.0  0.33121  0.17290  0.82955  1.0000
  H   H1507     1.0  0.49579  0.22843  0.64883  1.0000
  H   H1508     1.0  0.53415  0.15189  0.77577  1.0000
  H   H1509     1.0  0.47981  0.18363  0.51395  1.0000
  C   C1902     1.0  0.32949  0.09647  0.72232  1.0000
  C   C1903     1.0  0.63868  0.17327  0.91552  1.0000
  C   C1904     1.0  0.45694  0.12677  0.59940  1.0000
  C   C1905     1.0  0.35632  0.22547  0.69346  1.0000
  H   H1510     1.0  0.47333  0.05995  0.52566  1.0000
  H   H1511     1.0  0.47903  0.13829  0.96789  1.0000
  H   H1512     1.0  0.60572  0.17993  0.75825  1.0000
  H   H1513     1.0  0.36144  0.18699  0.67319  1.0000
  C   C1906     1.0  0.44510  0.05521  0.56888  1.0000
  C   C1907     1.0  0.63773  0.13305  0.83859  1.0000
  H   H1514     1.0  0.40985  0.02385  0.52844  1.0000
  C   C1908     1.0  0.47659  0.01167  0.80560  1.0000
  C   C1909     1.0  0.33188  0.21270  0.94109  1.0000
  C   C1910     1.0  0.34102  0.13250  0.74678  1.0000
  C   C1911     1.0  0.64408  0.18194  0.72245  1.0000
  C   C1912     1.0  0.47591  0.00616  0.92834  1.0000
  Fe  Fe123     1.0  0.53440  0.12864  0.50049  1.0000
  H   H1515     1.0  0.41573  0.14218  0.94266  1.0000
  H   H1516     1.0  0.34536  0.14622  0.75685  1.0000
  C   C1913     1.0  0.41925  0.02923  0.54584  1.0000
  C   C1914     1.0  0.47328  0.12522  0.97909  1.0000
  H   H1517     1.0  0.62443  0.13501  0.83878  1.0000
  C   C1915     1.0  0.36995  0.18396  0.50582  1.0000
  C   C1916     1.0  0.64817  0.19837  0.64316  1.0000
  C   C1917     1.0  0.46166  0.01393  0.54490  1.0000
  H   H1518     1.0  0.65916  0.20691  0.65751  1.0000
  H   H1519     1.0  0.47459  0.00370  0.57651  1.0000
  H   H1520     1.0  0.65511  0.10161  0.81386  1.0000
  C   C1918     1.0  0.39235  0.24404  0.91519  1.0000
  H   H1521     1.0  0.49951  0.12099  0.97708  1.0000
  H   H1522     1.0  0.42129  0.16990  0.97971  1.0000
  Fe  Fe124     1.0  0.44481  0.24422  0.84264  1.0000
  C   C1919     1.0  0.63925  0.14187  0.91034  1.0000
  C   C1920     1.0  0.34949  0.23636  0.65051  1.0000
  S   S248      1.0  0.45605  0.23066  0.87565  1.0000
  H   H1523     1.0  0.35396  0.24334  0.63160  1.0000
  H   H1524     1.0  0.49396  0.01638  0.51388  1.0000
  H   H1525     1.0  0.32910  0.21174  0.53349  1.0000
  H   H1526     1.0  0.62617  0.12215  0.94193  1.0000
  C   C1921     1.0  0.52479  0.04221  0.98449  1.0000
  H   H1527     1.0  0.52299  0.00237  0.74593  1.0000
  H   H1528     1.0  0.40765  0.00268  0.56698  1.0000
  H   H1529     1.0  0.46947  0.00271  0.94781  1.0000
  C   C1922     1.0  0.37490  0.16153  0.99216  1.0000
  Fe  Fe125     1.0  0.51598  0.46413  0.25284  1.0000
  S   S249      1.0  0.54656  0.48381  0.25903  1.0000
  S   S250      1.0  0.49425  0.47724  0.24419  1.0000
  Fe  Fe126     1.0  0.52476  0.42860  0.26272  1.0000
  S   S251      1.0  0.55649  0.44668  0.26872  1.0000
  S   S252      1.0  0.51749  0.39636  0.26579  1.0000
  Fe  Fe127     1.0  0.54714  0.46571  0.29399  1.0000
  S   S253      1.0  0.56321  0.48376  0.33010  1.0000
  Fe  Fe128     1.0  0.55318  0.46328  0.23316  1.0000
  S   S254      1.0  0.57614  0.47824  0.20293  1.0000
  S   S255      1.0  0.51568  0.44711  0.28993  1.0000
  S   S256      1.0  0.52230  0.44407  0.22499  1.0000
  C   C1923     1.0  0.44317  0.25656  0.42115  1.0000
  S   S257      1.0  0.56439  0.45721  0.45024  1.0000
  Fe  Fe129     1.0  0.57177  0.48400  0.04389  1.0000
  S   S258      1.0  0.56013  0.46308  0.07767  1.0000
  C   C1924     1.0  0.50091  0.48004  0.05037  1.0000
  S   S259      1.0  0.58960  0.47963  0.01128  1.0000
  H   H1530     1.0  0.47514  0.41640  0.33251  1.0000
  S   S260      1.0  0.41921  0.26762  0.28117  1.0000
  C   C1925     1.0  0.49825  0.49052  0.35845  1.0000
  S   S261      1.0  0.42654  0.27496  0.34603  1.0000
  C   C1926     1.0  0.54503  0.36377  0.36186  1.0000
  H   H1531     1.0  0.54804  0.44608  0.35412  1.0000
  Fe  Fe130     1.0  0.44095  0.28977  0.30846  1.0000
  S   S262      1.0  0.44698  0.32168  0.30388  1.0000
  S   S263      1.0  0.46168  0.27526  0.30813  1.0000
  H   H1532     1.0  0.48825  0.34302  0.34066  1.0000
  C   C1927     1.0  0.35302  0.47746  0.27337  1.0000
  H   H1533     1.0  0.62136  0.49184  0.21704  1.0000
  H   H1534     1.0  0.34635  0.48439  0.48793  1.0000
  H   H1535     1.0  0.52859  0.46502  0.45916  1.0000
  H   H1536     1.0  0.52572  0.49823  0.48743  1.0000
  C   C1928     1.0  0.50137  0.38602  0.36264  1.0000
  H   H1537     1.0  0.50901  0.34670  0.42245  1.0000
  H   H1538     1.0  0.54922  0.38611  0.29140  1.0000
  C   C1929     1.0  0.36851  0.49068  0.43511  1.0000
  C   C1930     1.0  0.35250  0.47355  0.42955  1.0000
  H   H1539     1.0  0.36897  0.46834  0.48605  1.0000
  H   H1540     1.0  0.53527  0.48417  0.17795  1.0000
  H   H1541     1.0  0.57652  0.49476  0.42640  1.0000
  H   H1542     1.0  0.35456  0.46040  0.42696  1.0000
  C   C1931     1.0  0.49756  0.37582  0.27630  1.0000
  C   C1932     1.0  0.49938  0.35815  0.27736  1.0000
  C   C1933     1.0  0.48409  0.34142  0.28538  1.0000
  C   C1934     1.0  0.46669  0.34213  0.29262  1.0000
  C   C1935     1.0  0.46483  0.35978  0.29140  1.0000
  C   C1936     1.0  0.48014  0.37651  0.28336  1.0000
  H   H1543     1.0  0.51281  0.35747  0.27211  1.0000
  H   H1544     1.0  0.48583  0.32802  0.28626  1.0000
  H   H1545     1.0  0.45145  0.36053  0.29684  1.0000
  H   H1546     1.0  0.47845  0.38993  0.28261  1.0000
  C   C1937     1.0  0.57059  0.47469  0.16818  1.0000
  C   C1938     1.0  0.58156  0.48849  0.14999  1.0000
  C   C1939     1.0  0.57796  0.48558  0.12217  1.0000
  C   C1940     1.0  0.56375  0.46857  0.11234  1.0000
  C   C1941     1.0  0.55264  0.45493  0.13055  1.0000
  C   C1942     1.0  0.55588  0.45806  0.15834  1.0000
  C   C1943     1.0  0.32860  0.46555  0.22819  1.0000
  C   C1944     1.0  0.50951  0.30135  0.26537  1.0000
  H   H1547     1.0  0.54159  0.44176  0.12309  1.0000
  H   H1548     1.0  0.54736  0.44734  0.17211  1.0000
  C   C1945     1.0  0.56200  0.47599  0.36350  1.0000
  H   H1549     1.0  0.54570  0.41512  0.47217  1.0000
  C   C1946     1.0  0.57020  0.48410  0.41081  1.0000
  C   C1947     1.0  0.56285  0.46475  0.41714  1.0000
  C   C1948     1.0  0.55457  0.45107  0.39662  1.0000
  C   C1949     1.0  0.55404  0.45667  0.36989  1.0000
  H   H1550     1.0  0.56866  0.35660  0.35073  1.0000
  C   C1950     1.0  0.49932  0.34769  0.38148  1.0000
  H   H1551     1.0  0.54868  0.43611  0.40137  1.0000
  C   C1951     1.0  0.51278  0.48571  0.34805  1.0000
  H   H1552     1.0  0.64688  0.48817  0.03151  1.0000
  C   C1952     1.0  0.52024  0.39501  0.45205  1.0000
  C   C1953     1.0  0.47793  0.30839  0.38727  1.0000
  C   C1954     1.0  0.34261  0.47877  0.35792  1.0000
  C   C1955     1.0  0.55183  0.40697  0.43331  1.0000
  C   C1956     1.0  0.33142  0.49038  0.43065  1.0000
  H   H1553     1.0  0.47313  0.36296  0.36187  1.0000
  H   H1554     1.0  0.37436  0.47407  0.24856  1.0000
  C   C1957     1.0  0.53856  0.49850  0.17085  1.0000
  C   C1958     1.0  0.51893  0.46115  0.44186  1.0000
  C   C1959     1.0  0.62628  0.49902  0.42898  1.0000
  C   C1960     1.0  0.45843  0.47748  0.42083  1.0000
  H   H1555     1.0  0.48792  0.27287  0.13872  1.0000
  H   H1556     1.0  0.51093  0.39479  0.46827  1.0000
  C   C1961     1.0  0.50207  0.41638  0.34685  1.0000
  H   H1557     1.0  0.57154  0.37111  0.30575  1.0000
  C   C1962     1.0  0.42715  0.30394  0.23554  1.0000
  C   C1963     1.0  0.41372  0.29682  0.21450  1.0000
  C   C1964     1.0  0.41989  0.29664  0.18839  1.0000
  C   C1965     1.0  0.43949  0.30369  0.18332  1.0000
  C   C1966     1.0  0.45307  0.31056  0.20448  1.0000
  C   C1967     1.0  0.44672  0.31056  0.23063  1.0000
  P   P67       1.0  0.47844  0.32039  0.19819  1.0000
  C   C1968     1.0  0.48754  0.34615  0.19741  1.0000
  C   C1969     1.0  0.49074  0.31307  0.22449  1.0000
  C   C1970     1.0  0.48263  0.29446  0.23433  1.0000
  C   C1971     1.0  0.49209  0.28855  0.25439  1.0000
  C   C1972     1.0  0.56992  0.48967  0.38406  1.0000
  C   C1973     1.0  0.51765  0.31999  0.25588  1.0000
  C   C1974     1.0  0.50840  0.32580  0.23536  1.0000
  C   C1975     1.0  0.47820  0.35612  0.21084  1.0000
  C   C1976     1.0  0.48566  0.37605  0.21063  1.0000
  C   C1977     1.0  0.50255  0.38620  0.19731  1.0000
  C   C1978     1.0  0.51199  0.37642  0.18402  1.0000
  C   C1979     1.0  0.50456  0.35647  0.18409  1.0000
  C   C1980     1.0  0.48206  0.31115  0.16629  1.0000
  C   C1981     1.0  0.48079  0.32043  0.14251  1.0000
  C   C1982     1.0  0.48238  0.31273  0.11764  1.0000
  C   C1983     1.0  0.48511  0.29568  0.11631  1.0000
  C   C1984     1.0  0.48644  0.28642  0.13984  1.0000
  C   C1985     1.0  0.48484  0.29403  0.16473  1.0000
  H   H1558     1.0  0.42245  0.30443  0.25577  1.0000
  H   H1559     1.0  0.39857  0.29159  0.21846  1.0000
  H   H1560     1.0  0.40951  0.29120  0.17201  1.0000
  H   H1561     1.0  0.44390  0.30359  0.16291  1.0000
  H   H1562     1.0  0.45691  0.31593  0.24721  1.0000
  H   H1563     1.0  0.46904  0.28443  0.22638  1.0000
  C   C1986     1.0  0.50101  0.43799  0.40784  1.0000
  H   H1564     1.0  0.61692  0.48971  0.11812  1.0000
  H   H1565     1.0  0.39148  0.26044  0.42277  1.0000
  H   H1566     1.0  0.51494  0.34032  0.22845  1.0000
  H   H1567     1.0  0.46543  0.34869  0.22201  1.0000
  H   H1568     1.0  0.47871  0.38372  0.22162  1.0000
  H   H1569     1.0  0.50856  0.40167  0.19789  1.0000
  H   H1570     1.0  0.52525  0.38436  0.17404  1.0000
  H   H1571     1.0  0.51226  0.34912  0.17412  1.0000
  H   H1572     1.0  0.47811  0.33336  0.14311  1.0000
  H   H1573     1.0  0.48111  0.31978  0.09936  1.0000
  H   H1574     1.0  0.63749  0.47565  0.18971  1.0000
  H   H1575     1.0  0.62415  0.49590  0.47182  1.0000
  H   H1576     1.0  0.48525  0.28616  0.18247  1.0000
  C   C1987     1.0  0.43858  0.46963  0.42369  1.0000
  C   C1988     1.0  0.42655  0.45991  0.40217  1.0000
  C   C1989     1.0  0.43443  0.45790  0.37788  1.0000
  C   C1990     1.0  0.45430  0.46601  0.37489  1.0000
  C   C1991     1.0  0.46639  0.47636  0.39617  1.0000
  H   H1577     1.0  0.53107  0.33000  0.26455  1.0000
  H   H1578     1.0  0.65214  0.48955  0.14702  1.0000
  C   C1992     1.0  0.50063  0.46974  0.40769  1.0000
  H   H1579     1.0  0.46970  0.29320  0.38942  1.0000
  C   C1993     1.0  0.54820  0.37994  0.31114  1.0000
  H   H1580     1.0  0.45680  0.38222  0.34258  1.0000
  S   S264      1.0  0.54950  0.48464  0.01436  1.0000
  H   H1581     1.0  0.52450  0.38677  0.32140  1.0000
  C   C1994     1.0  0.51264  0.38437  0.42858  1.0000
  C   C1995     1.0  0.51247  0.47440  0.43083  1.0000
  C   C1996     1.0  0.49476  0.45133  0.39641  1.0000
  C   C1997     1.0  0.34750  0.46697  0.22700  1.0000
  H   H1582     1.0  0.41116  0.45375  0.40446  1.0000
  H   H1583     1.0  0.42513  0.45001  0.36138  1.0000
  H   H1584     1.0  0.46018  0.46413  0.35605  1.0000
  C   C1998     1.0  0.48148  0.37780  0.35774  1.0000
  C   C1999     1.0  0.56069  0.37145  0.31920  1.0000
  H   H1585     1.0  0.48574  0.27402  0.26154  1.0000
  C   C2000     1.0  0.48920  0.31920  0.40871  1.0000
  H   H1586     1.0  0.55378  0.39763  0.39342  1.0000
  H   H1587     1.0  0.49646  0.42380  0.39926  1.0000
  H   H1588     1.0  0.48542  0.44733  0.37876  1.0000
  H   H1589     1.0  0.51295  0.49031  0.14636  1.0000
  H   H1590     1.0  0.60037  0.46411  0.08529  1.0000
  H   H1591     1.0  0.49806  0.47000  0.03381  1.0000
  H   H1592     1.0  0.48971  0.31228  0.42746  1.0000
  H   H1593     1.0  0.61535  0.46298  0.04211  1.0000
  C   C2001     1.0  0.51702  0.48391  0.06709  1.0000
  H   H1594     1.0  0.56689  0.41635  0.43487  1.0000
  P   P68       1.0  0.51426  0.37251  0.37633  1.0000
  C   C2002     1.0  0.54430  0.39630  0.40984  1.0000
  C   C2003     1.0  0.62397  0.48935  0.09966  1.0000
  H   H1595     1.0  0.54379  0.35728  0.38135  1.0000
  H   H1596     1.0  0.34029  0.46459  0.36492  1.0000
  H   H1597     1.0  0.43652  0.26336  0.40771  1.0000
  C   C2004     1.0  0.33419  0.47623  0.27456  1.0000
  Fe  Fe131     1.0  0.44584  0.25903  0.34378  1.0000
  H   H1598     1.0  0.42870  0.26040  0.45594  1.0000
  C   C2005     1.0  0.52112  0.49738  0.08785  1.0000
  C   C2006     1.0  0.48837  0.33660  0.35989  1.0000
  H   H1599     1.0  0.52682  0.41216  0.36154  1.0000
  C   C2007     1.0  0.36041  0.49064  0.34812  1.0000
  H   H1600     1.0  0.44083  0.49115  0.34496  1.0000
  H   H1601     1.0  0.43263  0.47108  0.44271  1.0000
  H   H1602     1.0  0.43751  0.26274  0.21779  1.0000
  H   H1603     1.0  0.46892  0.30879  0.34615  1.0000
  C   C2008     1.0  0.49999  0.33876  0.40582  1.0000
  H   H1604     1.0  0.52002  0.47868  0.36013  1.0000
  C   C2009     1.0  0.47753  0.31712  0.36288  1.0000
  C   C2010     1.0  0.53417  0.38041  0.32840  1.0000
  C   C2011     1.0  0.51151  0.40547  0.35755  1.0000
  C   C2012     1.0  0.47206  0.38878  0.34702  1.0000
  C   C2013     1.0  0.61450  0.47472  0.08108  1.0000
  H   H1605     1.0  0.51873  0.43297  0.43871  1.0000
  C   C2014     1.0  0.51047  0.50065  0.30625  1.0000
  H   H1606     1.0  0.51662  0.29684  0.28132  1.0000
  H   H1607     1.0  0.46763  0.48459  0.43782  1.0000
  C   C2015     1.0  0.35975  0.47305  0.24952  1.0000
  C   C2016     1.0  0.33386  0.47324  0.42747  1.0000
  C   C2017     1.0  0.55908  0.36332  0.34454  1.0000
  C   C2018     1.0  0.53983  0.40636  0.45436  1.0000
  C   C2019     1.0  0.52465  0.38477  0.40742  1.0000
  H   H1608     1.0  0.49735  0.37603  0.42673  1.0000
  C   C2020     1.0  0.48237  0.40801  0.34135  1.0000
  H   H1609     1.0  0.48575  0.28936  0.09706  1.0000
  C   C2021     1.0  0.51330  0.44301  0.43033  1.0000
  C   C2022     1.0  0.53261  0.37251  0.35400  1.0000
  H   H1610     1.0  0.52656  0.47667  0.06377  1.0000
  H   H1611     1.0  0.51009  0.43135  0.34292  1.0000
  C   C2023     1.0  0.62292  0.47409  0.05674  1.0000
  Fe  Fe132     1.0  0.57328  0.47879  0.48464  1.0000
  H   H1612     1.0  0.49076  0.48824  0.48000  1.0000
  H   H1613     1.0  0.38270  0.49064  0.43694  1.0000
  C   C2024     1.0  0.44064  0.25516  0.17689  1.0000
  H   H1614     1.0  0.43913  0.26753  0.16848  1.0000
  H   H1615     1.0  0.37165  0.48531  0.34743  1.0000
  H   H1616     1.0  0.35261  0.46319  0.20865  1.0000
  H   H1617     1.0  0.47656  0.48692  0.04113  1.0000
  H   H1618     1.0  0.36237  0.48175  0.29098  1.0000
  H   H1619     1.0  0.32912  0.47943  0.29334  1.0000
  H   H1620     1.0  0.51681  0.48820  0.44046  1.0000
  C   C2025     1.0  0.51862  0.49058  0.32187  1.0000
  H   H1621     1.0  0.36222  0.25667  0.22588  1.0000
  H   H1622     1.0  0.52986  0.48703  0.31376  1.0000
  C   C2026     1.0  0.48878  0.48953  0.05458  1.0000
  H   H1623     1.0  0.58645  0.49623  0.10830  1.0000
  C   C2027     1.0  0.63766  0.48931  0.18352  1.0000
  C   C2028     1.0  0.64075  0.48819  0.05089  1.0000
  P   P69       1.0  0.49204  0.48658  0.39302  1.0000
  H   H1624     1.0  0.61121  0.49037  0.42505  1.0000
  C   C2029     1.0  0.63354  0.50211  0.45531  1.0000
  H   H1625     1.0  0.38259  0.25334  0.00675  1.0000
  H   H1626     1.0  0.42337  0.48695  0.30135  1.0000
  H   H1627     1.0  0.39880  0.25638  0.14189  1.0000
  C   C2030     1.0  0.62865  0.49846  0.19901  1.0000
  C   C2031     1.0  0.43871  0.25481  0.44848  1.0000
  C   C2032     1.0  0.42058  0.49509  0.31737  1.0000
  C   C2033     1.0  0.43039  0.49739  0.34196  1.0000
  C   C2034     1.0  0.32789  0.48530  0.35961  1.0000
  C   C2035     1.0  0.64596  0.49725  0.15940  1.0000
  H   H1628     1.0  0.53414  0.50062  0.09974  1.0000
  C   C2036     1.0  0.48985  0.50036  0.34244  1.0000
  H   H1629     1.0  0.54585  0.39516  0.99769  1.0000
  H   H1630     1.0  0.59284  0.50147  0.15744  1.0000
  C   C2037     1.0  0.43988  0.25255  0.20479  1.0000
  H   H1631     1.0  0.39979  0.50131  0.29412  1.0000
  C   C2038     1.0  0.50277  0.50183  0.23630  1.0000
  C   C2039     1.0  0.52594  0.50206  0.15303  1.0000
  Fe  Fe133     1.0  0.43904  0.25229  0.28322  1.0000
  Fe  Fe134     1.0  0.51937  0.45542  0.75720  1.0000
  S   S265      1.0  0.55106  0.47149  0.75674  1.0000
  S   S266      1.0  0.50037  0.47177  0.74948  1.0000
  Fe  Fe135     1.0  0.52249  0.41687  0.76700  1.0000
  S   S267      1.0  0.55477  0.43119  0.76688  1.0000
  S   S268      1.0  0.51269  0.38433  0.77062  1.0000
  Fe  Fe136     1.0  0.55168  0.45403  0.79240  1.0000
  S   S269      1.0  0.57329  0.46983  0.82531  1.0000
  Fe  Fe137     1.0  0.55114  0.44734  0.73127  1.0000
  S   S270      1.0  0.57199  0.45423  0.69723  1.0000
  S   S271      1.0  0.51964  0.43906  0.79482  1.0000
  S   S272      1.0  0.51916  0.43185  0.72934  1.0000
  H   H1632     1.0  0.50927  0.41358  0.84587  1.0000
  S   S273      1.0  0.55204  0.46308  0.94801  1.0000
  Fe  Fe138     1.0  0.56662  0.48094  0.54522  1.0000
  S   S274      1.0  0.54702  0.46318  0.57741  1.0000
  C   C2040     1.0  0.45506  0.25245  0.70724  1.0000
  S   S275      1.0  0.58822  0.47440  0.52180  1.0000
  H   H1633     1.0  0.54601  0.34101  0.75198  1.0000
  H   H1634     1.0  0.44660  0.29604  0.70683  1.0000
  C   C2041     1.0  0.49561  0.45619  0.56856  1.0000
  C   C2042     1.0  0.40549  0.28110  0.58655  1.0000
  H   H1635     1.0  0.54953  0.49311  0.70781  1.0000
  H   H1636     1.0  0.53747  0.45010  0.85228  1.0000
  Fe  Fe139     1.0  0.44096  0.27697  0.81057  1.0000
  S   S276      1.0  0.44473  0.30841  0.80963  1.0000
  C   C2043     1.0  0.48589  0.43314  0.88561  1.0000
  H   H1637     1.0  0.47950  0.44355  0.88502  1.0000
  C   C2044     1.0  0.56945  0.42466  0.85797  1.0000
  C   C2045     1.0  0.53296  0.37721  0.96310  1.0000
  H   H1638     1.0  0.49583  0.40428  0.92955  1.0000
  H   H1639     1.0  0.37685  0.25954  0.71674  1.0000
  C   C2046     1.0  0.49882  0.33690  0.86497  1.0000
  C   C2047     1.0  0.38710  0.48514  0.51850  1.0000
  C   C2048     1.0  0.55459  0.41684  0.87590  1.0000
  C   C2049     1.0  0.39204  0.26727  0.71428  1.0000
  C   C2050     1.0  0.35967  0.48522  0.95005  1.0000
  C   C2051     1.0  0.34246  0.46931  0.94409  1.0000
  H   H1640     1.0  0.52184  0.38430  0.83361  1.0000
  H   H1641     1.0  0.39586  0.28164  0.75269  1.0000
  H   H1642     1.0  0.50514  0.32711  0.85870  1.0000
  H   H1643     1.0  0.34288  0.45546  0.94085  1.0000
  C   C2052     1.0  0.49426  0.36387  0.78415  1.0000
  C   C2053     1.0  0.47776  0.36443  0.79533  1.0000
  C   C2054     1.0  0.46303  0.34740  0.80379  1.0000
  C   C2055     1.0  0.46453  0.32963  0.80106  1.0000
  C   C2056     1.0  0.48133  0.32921  0.79085  1.0000
  C   C2057     1.0  0.49609  0.34624  0.78265  1.0000
  H   H1644     1.0  0.47618  0.37787  0.79689  1.0000
  H   H1645     1.0  0.45018  0.34794  0.81195  1.0000
  H   H1646     1.0  0.48288  0.31576  0.78891  1.0000
  H   H1647     1.0  0.50898  0.34573  0.77482  1.0000
  C   C2058     1.0  0.56494  0.45657  0.66397  1.0000
  C   C2059     1.0  0.57892  0.46663  0.64551  1.0000
  C   C2060     1.0  0.57372  0.46871  0.61883  1.0000
  C   C2061     1.0  0.55450  0.46029  0.61031  1.0000
  C   C2062     1.0  0.54064  0.44963  0.62858  1.0000
  C   C2063     1.0  0.54576  0.44811  0.65541  1.0000
  H   H1648     1.0  0.59382  0.47303  0.65197  1.0000
  H   H1649     1.0  0.58454  0.47677  0.60489  1.0000
  H   H1650     1.0  0.52586  0.44245  0.62203  1.0000
  H   H1651     1.0  0.53495  0.44007  0.66935  1.0000
  C   C2064     1.0  0.56692  0.46885  0.85919  1.0000
  C   C2065     1.0  0.58096  0.47894  0.87865  1.0000
  C   C2066     1.0  0.57656  0.47773  0.90600  1.0000
  C   C2067     1.0  0.55810  0.46622  0.91397  1.0000
  C   C2068     1.0  0.54399  0.45652  0.89442  1.0000
  C   C2069     1.0  0.54834  0.45786  0.86712  1.0000
  H   H1652     1.0  0.38620  0.29415  0.59784  1.0000
  H   H1653     1.0  0.47586  0.45206  0.53519  1.0000
  H   H1654     1.0  0.52963  0.44790  0.90048  1.0000
  C   C2070     1.0  0.42238  0.29028  0.73203  1.0000
  C   C2071     1.0  0.50311  0.30445  0.73861  1.0000
  C   C2072     1.0  0.52145  0.31427  0.74973  1.0000
  C   C2073     1.0  0.53185  0.33331  0.74316  1.0000
  C   C2074     1.0  0.52387  0.34263  0.72566  1.0000
  C   C2075     1.0  0.50540  0.33290  0.71441  1.0000
  C   C2076     1.0  0.49514  0.31368  0.72100  1.0000
  P   P70       1.0  0.49475  0.34461  0.69164  1.0000
  C   C2077     1.0  0.51307  0.36563  0.67772  1.0000
  C   C2078     1.0  0.48222  0.32737  0.66558  1.0000
  C   C2079     1.0  0.49068  0.31561  0.65483  1.0000
  C   C2080     1.0  0.48060  0.30135  0.63601  1.0000
  C   C2081     1.0  0.46206  0.29876  0.62770  1.0000
  C   C2082     1.0  0.45358  0.31051  0.63807  1.0000
  C   C2083     1.0  0.46362  0.32482  0.65690  1.0000
  C   C2084     1.0  0.51822  0.36598  0.65083  1.0000
  C   C2085     1.0  0.53208  0.38253  0.64030  1.0000
  C   C2086     1.0  0.54090  0.39881  0.65650  1.0000
  C   C2087     1.0  0.53587  0.39858  0.68325  1.0000
  C   C2088     1.0  0.52198  0.38211  0.69380  1.0000
  C   C2089     1.0  0.47763  0.35145  0.70872  1.0000
  C   C2090     1.0  0.46552  0.33937  0.72766  1.0000
  C   C2091     1.0  0.45147  0.34410  0.73957  1.0000
  C   C2092     1.0  0.44962  0.36109  0.73311  1.0000
  C   C2093     1.0  0.46152  0.37316  0.71419  1.0000
  C   C2094     1.0  0.47530  0.36827  0.70177  1.0000
  H   H1655     1.0  0.49501  0.28967  0.74369  1.0000
  S   S277      1.0  0.42468  0.25922  0.84508  1.0000
  S   S278      1.0  0.42152  0.25658  0.77924  1.0000
  H   H1656     1.0  0.53214  0.35744  0.72136  1.0000
  H   H1657     1.0  0.48098  0.30574  0.71246  1.0000
  H   H1658     1.0  0.50496  0.31724  0.66130  1.0000
  H   H1659     1.0  0.48697  0.29196  0.62817  1.0000
  H   H1660     1.0  0.45427  0.28747  0.61340  1.0000
  H   H1661     1.0  0.43915  0.30838  0.63163  1.0000
  H   H1662     1.0  0.45673  0.33368  0.66480  1.0000
  H   H1663     1.0  0.51157  0.35361  0.63785  1.0000
  H   H1664     1.0  0.53600  0.38281  0.61953  1.0000
  H   H1665     1.0  0.55165  0.41165  0.64839  1.0000
  H   H1666     1.0  0.54281  0.41121  0.69581  1.0000
  H   H1667     1.0  0.51819  0.38225  0.71455  1.0000
  H   H1668     1.0  0.46700  0.32641  0.73360  1.0000
  H   H1669     1.0  0.44238  0.33486  0.75449  1.0000
  H   H1670     1.0  0.43910  0.36496  0.74301  1.0000
  H   H1671     1.0  0.46017  0.38637  0.70923  1.0000
  H   H1672     1.0  0.48410  0.37768  0.68679  1.0000
  H   H1673     1.0  0.59536  0.48746  0.87255  1.0000
  H   H1674     1.0  0.37717  0.27641  0.64006  1.0000
  C   C2095     1.0  0.40269  0.27999  0.73460  1.0000
  H   H1675     1.0  0.42797  0.27374  0.67090  1.0000
  C   C2096     1.0  0.47891  0.33080  0.86517  1.0000
  C   C2097     1.0  0.51295  0.48429  0.82245  1.0000
  C   C2098     1.0  0.47917  0.43124  0.68466  1.0000
  H   H1676     1.0  0.45199  0.41597  0.70276  1.0000
  C   C2099     1.0  0.54571  0.49363  0.68689  1.0000
  C   C2100     1.0  0.55024  0.40283  0.82332  1.0000
  C   C2101     1.0  0.35845  0.48853  0.50197  1.0000
  C   C2102     1.0  0.34689  0.25905  0.76235  1.0000
  H   H1677     1.0  0.53222  0.49513  0.61194  1.0000
  H   H1678     1.0  0.39719  0.47835  0.51733  1.0000
  H   H1679     1.0  0.50398  0.44951  0.55859  1.0000
  C   C2103     1.0  0.53519  0.39522  0.84101  1.0000
  H   H1680     1.0  0.49301  0.48661  0.88547  1.0000
  C   C2104     1.0  0.38664  0.47244  0.89867  1.0000
  C   C2105     1.0  0.41368  0.26827  0.59381  1.0000
  Fe  Fe140     1.0  0.56867  0.48333  0.98172  1.0000
  H   H1681     1.0  0.36260  0.47989  0.89282  1.0000
  C   C2106     1.0  0.49013  0.44719  0.66990  1.0000
  S   S279      1.0  0.55020  0.48250  0.50804  1.0000
  H   H1682     1.0  0.50468  0.44933  0.66516  1.0000
  H   H1683     1.0  0.52554  0.49862  0.98804  1.0000
  H   H1684     1.0  0.53329  0.49473  0.55684  1.0000
  C   C2107     1.0  0.39466  0.26026  0.63394  1.0000
  H   H1685     1.0  0.53487  0.42363  0.92969  1.0000
  H   H1686     1.0  0.50193  0.49416  0.54099  1.0000
  H   H1687     1.0  0.41313  0.46846  0.90198  1.0000
  C   C2108     1.0  0.50422  0.40761  0.88804  1.0000
  C   C2109     1.0  0.40114  0.26466  0.69132  1.0000
  C   C2110     1.0  0.53731  0.40201  0.86761  1.0000
  P   P71       1.0  0.51760  0.39261  0.89025  1.0000
  C   C2111     1.0  0.51051  0.35564  0.87258  1.0000
  H   H1688     1.0  0.40947  0.28890  0.56806  1.0000
  C   C2112     1.0  0.46924  0.46641  0.56840  1.0000
  H   H1689     1.0  0.52593  0.36015  0.87240  1.0000
  C   C2113     1.0  0.47067  0.34344  0.87284  1.0000
  H   H1690     1.0  0.46984  0.31633  0.85897  1.0000
  H   H1691     1.0  0.49327  0.43610  0.84401  1.0000
  C   C2114     1.0  0.50081  0.46347  0.59460  1.0000
  C   C2115     1.0  0.54120  0.41124  0.96500  1.0000
  H   H1692     1.0  0.55656  0.42289  0.89589  1.0000
  H   H1693     1.0  0.39691  0.25941  0.91501  1.0000
  C   C2116     1.0  0.50235  0.36849  0.88014  1.0000
  C   C2117     1.0  0.54053  0.39458  0.97724  1.0000
  H   H1694     1.0  0.53240  0.36429  0.97264  1.0000
  S   S280      1.0  0.46274  0.26355  0.81073  1.0000
  C   C2118     1.0  0.53430  0.41055  0.93869  1.0000
  H   H1695     1.0  0.52756  0.30715  0.76354  1.0000
  H   H1696     1.0  0.57867  0.42408  0.81768  1.0000
  H   H1697     1.0  0.54846  0.39752  0.80285  1.0000
  H   H1698     1.0  0.42413  0.26620  0.58109  1.0000
  H   H1699     1.0  0.45702  0.46758  0.55819  1.0000
  C   C2119     1.0  0.40560  0.47628  0.89234  1.0000
  H   H1700     1.0  0.49131  0.48439  0.97403  1.0000
  C   C2120     1.0  0.48611  0.49660  0.88688  1.0000
  C   C2121     1.0  0.49379  0.42905  0.86260  1.0000
  C   C2122     1.0  0.37123  0.47950  0.50087  1.0000
  C   C2123     1.0  0.49541  0.41110  0.91072  1.0000
  C   C2124     1.0  0.52652  0.48848  0.67907  1.0000
  C   C2125     1.0  0.42079  0.27542  0.68862  1.0000
  C   C2126     1.0  0.49057  0.47263  0.60761  1.0000
  H   H1701     1.0  0.35981  0.27199  0.76277  1.0000
  H   H1702     1.0  0.48538  0.42142  0.69141  1.0000
  C   C2127     1.0  0.32914  0.25988  0.75675  1.0000
  H   H1703     1.0  0.37942  0.46158  0.91314  1.0000
  C   C2128     1.0  0.39235  0.28400  0.60330  1.0000
  H   H1704     1.0  0.58244  0.43659  0.86420  1.0000
  H   H1705     1.0  0.43068  0.29964  0.74822  1.0000
  C   C2129     1.0  0.47979  0.45760  0.55546  1.0000
  C   C2130     1.0  0.34924  0.49963  0.85259  1.0000
  C   C2131     1.0  0.38713  0.27380  0.62707  1.0000
  C   C2132     1.0  0.48647  0.42399  0.90955  1.0000
  C   C2133     1.0  0.48240  0.46031  0.66165  1.0000
  H   H1706     1.0  0.43766  0.43821  0.68652  1.0000
  P   P72       1.0  0.49637  0.48064  0.64203  1.0000
  H   H1707     1.0  0.54703  0.42478  0.97585  1.0000
  C   C2134     1.0  0.40856  0.25812  0.61758  1.0000
  C   C2135     1.0  0.46679  0.46617  0.83141  1.0000
  C   C2136     1.0  0.46653  0.45561  0.80824  1.0000
  C   C2137     1.0  0.45641  0.43583  0.80740  1.0000
  C   C2138     1.0  0.44594  0.42650  0.82944  1.0000
  C   C2139     1.0  0.44543  0.43701  0.85221  1.0000
  C   C2140     1.0  0.45576  0.45679  0.85321  1.0000
  H   H1708     1.0  0.48038  0.42718  0.92742  1.0000
  C   C2141     1.0  0.46320  0.45662  0.66697  1.0000
  C   C2142     1.0  0.51019  0.49717  0.75030  1.0000
  C   C2143     1.0  0.37710  0.48301  0.88709  1.0000
  C   C2144     1.0  0.41497  0.49055  0.87410  1.0000
  H   H1709     1.0  0.45521  0.33868  0.87252  1.0000
  C   C2145     1.0  0.52604  0.37650  0.93672  1.0000
  H   H1710     1.0  0.58750  0.48530  0.92093  1.0000
  H   H1711     1.0  0.45405  0.26230  0.72217  1.0000
  C   C2146     1.0  0.46035  0.42813  0.69093  1.0000
  H   H1712     1.0  0.34470  0.49835  0.89534  1.0000
  C   C2147     1.0  0.38649  0.49765  0.86911  1.0000
  H   H1713     1.0  0.45731  0.27115  0.67406  1.0000
  C   C2148     1.0  0.45231  0.44072  0.68188  1.0000
  C   C2149     1.0  0.56729  0.41766  0.83170  1.0000
  H   H1714     1.0  0.45670  0.46611  0.65981  1.0000
  H   H1715     1.0  0.47433  0.46272  0.79088  1.0000
  H   H1716     1.0  0.45676  0.42780  0.78960  1.0000
  H   H1717     1.0  0.43813  0.41115  0.82882  1.0000
  H   H1718     1.0  0.43712  0.42981  0.86919  1.0000
  H   H1719     1.0  0.45500  0.46460  0.87098  1.0000
  H   H1720     1.0  0.46593  0.48018  0.60437  1.0000
  C   C2150     1.0  0.52667  0.39321  0.92426  1.0000
  H   H1721     1.0  0.51573  0.48421  0.69426  1.0000
  H   H1722     1.0  0.53841  0.47872  0.81719  1.0000
  H   H1723     1.0  0.50371  0.46943  0.81998  1.0000
  H   H1724     1.0  0.51282  0.46190  0.60454  1.0000
  C   C2151     1.0  0.52135  0.48840  0.65188  1.0000
  C   C2152     1.0  0.47451  0.47377  0.59446  1.0000
  H   H1725     1.0  0.52019  0.36289  0.92628  1.0000
  H   H1726     1.0  0.35453  0.49581  0.59005  1.0000
  C   C2153     1.0  0.48232  0.36221  0.88043  1.0000
  C   C2154     1.0  0.53576  0.49467  0.63288  1.0000
  H   H1727     1.0  0.37314  0.48354  0.95150  1.0000
  C   C2155     1.0  0.43137  0.28813  0.70890  1.0000
  H   H1728     1.0  0.47564  0.37176  0.88631  1.0000
  C   C2156     1.0  0.50288  0.41628  0.86376  1.0000
  C   C2157     1.0  0.33807  0.49452  0.87556  1.0000
  C   C2158     1.0  0.53273  0.48945  0.82092  1.0000
  C   C2159     1.0  0.34003  0.49497  0.82723  1.0000
  C   C2160     1.0  0.49026  0.50072  0.64902  1.0000
  C   C2161     1.0  0.49703  0.49805  0.98437  1.0000
  H   H1729     1.0  0.38098  0.49334  0.80844  1.0000
  P   P73       1.0  0.48014  0.49173  0.83193  1.0000
  H   H1730     1.0  0.48349  0.49868  0.73807  1.0000
  S   S281      1.0  0.46118  0.49823  0.97611  1.0000
  H   H1731     1.0  0.44081  0.47916  0.81091  1.0000
  C   C2162     1.0  0.45663  0.25732  0.68000  1.0000
  H   H1732     1.0  0.34805  0.49904  0.80910  1.0000
  C   C2163     1.0  0.55990  0.49908  0.66771  1.0000
  H   H1733     1.0  0.54603  0.49524  0.91277  1.0000
  H   H1734     1.0  0.32830  0.27348  0.75271  1.0000
  C   C2164     1.0  0.44925  0.49262  0.80180  1.0000
  C   C2165     1.0  0.39019  0.49981  0.53727  1.0000
  H   H1735     1.0  0.42974  0.49370  0.86949  1.0000
  H   H1736     1.0  0.42465  0.49437  0.78162  1.0000
  C   C2166     1.0  0.55494  0.49983  0.64075  1.0000
  H   H1737     1.0  0.48335  0.49331  0.69032  1.0000
  C   C2167     1.0  0.50555  0.49821  0.82741  1.0000
  H   H1738     1.0  0.53860  0.50092  0.76349  1.0000
  C   C2168     1.0  0.43995  0.50127  0.78537  1.0000
  C   C2169     1.0  0.40551  0.50122  0.86257  1.0000
  H   H1739     1.0  0.49011  0.49971  0.92972  1.0000
  H   H1740     1.0  0.44462  0.25743  0.90483  1.0000
  H   H1741     1.0  0.43929  0.26026  0.95324  1.0000
  C   C2170     1.0  0.46910  0.50160  0.80708  1.0000
  C   C2171     1.0  0.47846  0.50184  0.86395  1.0000
  Fe  Fe141     1.0  0.50559  0.58207  0.21805  1.0000
  S   S282      1.0  0.47384  0.56605  0.21754  1.0000
  S   S283      1.0  0.52556  0.56643  0.22091  1.0000
  Fe  Fe142     1.0  0.50292  0.62113  0.21545  1.0000
  S   S284      1.0  0.47058  0.60722  0.21563  1.0000
  S   S285      1.0  0.51480  0.65396  0.21667  1.0000
  Fe  Fe143     1.0  0.47384  0.58802  0.24764  1.0000
  S   S286      1.0  0.45321  0.57663  0.28203  1.0000
  Fe  Fe144     1.0  0.47337  0.58647  0.18563  1.0000
  S   S287      1.0  0.45133  0.57470  0.15171  1.0000
  S   S288      1.0  0.50584  0.60319  0.24994  1.0000
  S   S289      1.0  0.50540  0.60118  0.18358  1.0000
  C   C2172     1.0  0.57131  0.73194  0.27438  1.0000
  S   S290      1.0  0.58746  0.51586  0.04589  1.0000
  C   C2173     1.0  0.54410  0.56746  0.06771  1.0000
  C   C2174     1.0  0.40275  0.54198  0.25152  1.0000
  C   C2175     1.0  0.50276  0.51035  0.40741  1.0000
  H   H1742     1.0  0.40682  0.56600  0.31462  1.0000
  Fe  Fe145     1.0  0.41741  0.53741  0.45619  1.0000
  S   S291      1.0  0.43384  0.56932  0.45935  1.0000
  S   S292      1.0  0.38549  0.52972  0.44658  1.0000
  S   S293      1.0  0.63690  0.52165  0.00757  1.0000
  S   S294      1.0  0.47186  0.56220  0.47654  1.0000
  H   H1743     1.0  0.49145  0.54749  0.42712  1.0000
  H   H1744     1.0  0.54307  0.53944  0.21839  1.0000
  S   S295      1.0  0.46846  0.57787  0.02715  1.0000
  Fe  Fe146     1.0  0.45727  0.56463  0.43781  1.0000
  S   S296      1.0  0.47649  0.58385  0.40631  1.0000
  H   H1745     1.0  0.56010  0.52230  0.34914  1.0000
  S   S297      1.0  0.44031  0.53314  0.43213  1.0000
  S   S298      1.0  0.58105  0.72595  0.16472  1.0000
  C   C2176     1.0  0.55200  0.73062  0.33398  1.0000
  C   C2177     1.0  0.49161  0.52094  0.41234  1.0000
  H   H1746     1.0  0.53682  0.53738  0.07009  1.0000
  H   H1747     1.0  0.64083  0.55703  0.03575  1.0000
  H   H1748     1.0  0.55119  0.56860  0.04880  1.0000
  C   C2178     1.0  0.51819  0.68320  0.32417  1.0000
  C   C2179     1.0  0.52627  0.54785  0.10400  1.0000
  C   C2180     1.0  0.53082  0.73546  0.24449  1.0000
  C   C2181     1.0  0.49058  0.51158  0.23867  1.0000
  H   H1749     1.0  0.35461  0.52533  0.24041  1.0000
  C   C2182     1.0  0.38592  0.52989  0.29273  1.0000
  H   H1750     1.0  0.35108  0.53020  0.33642  1.0000
  H   H1751     1.0  0.39517  0.56250  0.41212  1.0000
  S   S299      1.0  0.59149  0.51014  0.48245  1.0000
  C   C2183     1.0  0.53291  0.67349  0.20076  1.0000
  C   C2184     1.0  0.53280  0.69185  0.20349  1.0000
  C   C2185     1.0  0.54747  0.70802  0.19287  1.0000
  C   C2186     1.0  0.56245  0.70606  0.17915  1.0000
  C   C2187     1.0  0.56238  0.68766  0.17594  1.0000
  C   C2188     1.0  0.54776  0.67149  0.18673  1.0000
  H   H1752     1.0  0.52138  0.69367  0.21412  1.0000
  H   H1753     1.0  0.54718  0.72200  0.19535  1.0000
  H   H1754     1.0  0.57379  0.68590  0.16517  1.0000
  H   H1755     1.0  0.54814  0.65755  0.18461  1.0000
  C   C2189     1.0  0.45670  0.57545  0.11730  1.0000
  C   C2190     1.0  0.47514  0.58575  0.10805  1.0000
  C   C2191     1.0  0.47859  0.58624  0.08039  1.0000
  C   C2192     1.0  0.46378  0.57612  0.06184  1.0000
  C   C2193     1.0  0.44548  0.56550  0.07120  1.0000
  C   C2194     1.0  0.44194  0.56535  0.09876  1.0000
  H   H1756     1.0  0.48664  0.59347  0.12214  1.0000
  H   H1757     1.0  0.49280  0.59443  0.07332  1.0000
  H   H1758     1.0  0.43396  0.55772  0.05713  1.0000
  H   H1759     1.0  0.42766  0.55729  0.10574  1.0000
  C   C2195     1.0  0.46028  0.57868  0.31639  1.0000
  C   C2196     1.0  0.44780  0.56635  0.33482  1.0000
  C   C2197     1.0  0.45255  0.56779  0.36236  1.0000
  C   C2198     1.0  0.46990  0.58169  0.37181  1.0000
  C   C2199     1.0  0.48244  0.59408  0.35343  1.0000
  C   C2200     1.0  0.47774  0.59246  0.32579  1.0000
  H   H1760     1.0  0.43456  0.55534  0.32775  1.0000
  H   H1761     1.0  0.44278  0.55818  0.37625  1.0000
  H   H1762     1.0  0.49581  0.60501  0.36061  1.0000
  H   H1763     1.0  0.48745  0.60199  0.31178  1.0000
  C   C2201     1.0  0.51625  0.54149  0.22641  1.0000
  C   C2202     1.0  0.49729  0.53130  0.23375  1.0000
  C   C2203     1.0  0.36363  0.50926  0.34001  1.0000
  H   H1764     1.0  0.48999  0.63578  0.31801  1.0000
  C   C2204     1.0  0.50017  0.53954  0.42269  1.0000
  C   C2205     1.0  0.52839  0.53172  0.22402  1.0000
  H   H1765     1.0  0.48778  0.53858  0.23575  1.0000
  H   H1766     1.0  0.49217  0.69946  0.26997  1.0000
  H   H1767     1.0  0.47887  0.50446  0.35035  1.0000
  H   H1768     1.0  0.63503  0.53652  0.15974  1.0000
  H   H1769     1.0  0.54646  0.54387  0.42672  1.0000
  H   H1770     1.0  0.41130  0.52450  0.37484  1.0000
  H   H1771     1.0  0.41877  0.59513  0.34223  1.0000
  H   H1772     1.0  0.54878  0.59718  0.06980  1.0000
  C   C2206     1.0  0.54275  0.58352  0.07954  1.0000
  C   C2207     1.0  0.63642  0.52368  0.16646  1.0000
  H   H1773     1.0  0.45685  0.63474  0.03903  1.0000
  H   H1774     1.0  0.56575  0.51789  0.30152  1.0000
  Fe  Fe147     1.0  0.56603  0.51607  0.01374  1.0000
  Fe  Fe148     1.0  0.45368  0.53099  0.47221  1.0000
  C   C2208     1.0  0.47982  0.62629  0.02926  1.0000
  C   C2209     1.0  0.49301  0.52421  0.13428  1.0000
  C   C2210     1.0  0.53588  0.54968  0.07986  1.0000
  C   C2211     1.0  0.65025  0.50290  0.06939  1.0000
  C   C2212     1.0  0.65687  0.54160  0.02043  1.0000
  C   C2213     1.0  0.52272  0.51911  0.41144  1.0000
  H   H1775     1.0  0.50996  0.67766  0.25673  1.0000
  C   C2214     1.0  0.50056  0.71097  0.25715  1.0000
  C   C2215     1.0  0.48146  0.53211  0.12083  1.0000
  C   C2216     1.0  0.49906  0.65528  0.28523  1.0000
  C   C2217     1.0  0.39415  0.54705  0.34763  1.0000
  C   C2218     1.0  0.49814  0.65038  0.31222  1.0000
  C   C2219     1.0  0.53719  0.72853  0.31529  1.0000
  C   C2220     1.0  0.36812  0.52892  0.25125  1.0000
  H   H1776     1.0  0.57007  0.72624  0.05715  1.0000
  H   H1777     1.0  0.52547  0.69370  0.33961  1.0000
  H   H1778     1.0  0.39870  0.56917  0.48164  1.0000
  C   C2221     1.0  0.53346  0.58186  0.10382  1.0000
  H   H1779     1.0  0.38511  0.54032  0.21651  1.0000
  H   H1780     1.0  0.45656  0.53891  0.12251  1.0000
  C   C2222     1.0  0.53021  0.52059  0.14361  1.0000
  H   H1781     1.0  0.54613  0.74316  0.24724  1.0000
  C   C2223     1.0  0.46531  0.53269  0.13294  1.0000
  C   C2224     1.0  0.62816  0.51570  0.19060  1.0000
  P   P74       1.0  0.53292  0.71254  0.28683  1.0000
  H   H1782     1.0  0.51434  0.73774  0.30484  1.0000
  C   C2225     1.0  0.55558  0.71429  0.27385  1.0000
  C   C2226     1.0  0.34746  0.50754  0.43591  1.0000
  C   C2227     1.0  0.52541  0.56413  0.11618  1.0000
  C   C2228     1.0  0.47121  0.63602  0.04437  1.0000
  C   C2229     1.0  0.48086  0.64686  0.06683  1.0000
  C   C2230     1.0  0.49918  0.64793  0.07441  1.0000
  C   C2231     1.0  0.50785  0.63829  0.05889  1.0000
  P   P75       1.0  0.51087  0.66095  0.10451  1.0000
  C   C2232     1.0  0.49362  0.65380  0.13090  1.0000
  C   C2233     1.0  0.53055  0.65445  0.11416  1.0000
  C   C2234     1.0  0.52748  0.63856  0.13033  1.0000
  C   C2235     1.0  0.54274  0.63351  0.13755  1.0000
  C   C2236     1.0  0.56114  0.64423  0.12865  1.0000
  C   C2237     1.0  0.56428  0.65994  0.11230  1.0000
  C   C2238     1.0  0.54904  0.66498  0.10493  1.0000
  C   C2239     1.0  0.47922  0.63525  0.13075  1.0000
  C   C2240     1.0  0.46606  0.62946  0.15131  1.0000
  C   C2241     1.0  0.46722  0.64207  0.17229  1.0000
  C   C2242     1.0  0.48157  0.66046  0.17276  1.0000
  C   C2243     1.0  0.49473  0.66633  0.15218  1.0000
  C   C2244     1.0  0.51994  0.68647  0.09941  1.0000
  C   C2245     1.0  0.51436  0.69410  0.07678  1.0000
  C   C2246     1.0  0.52174  0.71387  0.07309  1.0000
  C   C2247     1.0  0.53470  0.72615  0.09193  1.0000
  C   C2248     1.0  0.54036  0.71866  0.11441  1.0000
  C   C2249     1.0  0.53312  0.69893  0.11804  1.0000
  C   C2250     1.0  0.55969  0.53193  0.17061  1.0000
  H   H1783     1.0  0.54034  0.74147  0.08917  1.0000
  P   P76       1.0  0.51456  0.52473  0.11889  1.0000
  H   H1784     1.0  0.47383  0.65402  0.07867  1.0000
  H   H1785     1.0  0.52183  0.63864  0.06438  1.0000
  H   H1786     1.0  0.51338  0.63010  0.13758  1.0000
  H   H1787     1.0  0.54033  0.62141  0.15040  1.0000
  H   H1788     1.0  0.57296  0.64041  0.13456  1.0000
  H   H1789     1.0  0.57855  0.66831  0.10548  1.0000
  H   H1790     1.0  0.55172  0.67712  0.09211  1.0000
  H   H1791     1.0  0.47824  0.62506  0.11501  1.0000
  H   H1792     1.0  0.45518  0.61503  0.15120  1.0000
  H   H1793     1.0  0.45725  0.63741  0.18850  1.0000
  H   H1794     1.0  0.48289  0.66999  0.18953  1.0000
  H   H1795     1.0  0.50590  0.68049  0.15340  1.0000
  H   H1796     1.0  0.50439  0.68493  0.06190  1.0000
  H   H1797     1.0  0.57482  0.68899  0.23660  1.0000
  C   C2251     1.0  0.49814  0.62747  0.03645  1.0000
  H   H1798     1.0  0.55038  0.72815  0.12910  1.0000
  H   H1799     1.0  0.53775  0.69335  0.13545  1.0000
  C   C2252     1.0  0.52055  0.71995  0.26071  1.0000
  S   S300      1.0  0.54889  0.53464  0.01509  1.0000
  H   H1800     1.0  0.32810  0.51580  0.48173  1.0000
  H   H1801     1.0  0.47577  0.70980  0.23412  1.0000
  C   C2253     1.0  0.49115  0.71691  0.23698  1.0000
  C   C2254     1.0  0.50322  0.53575  0.48965  1.0000
  H   H1802     1.0  0.48509  0.53819  0.10113  1.0000
  H   H1803     1.0  0.49184  0.64447  0.27000  1.0000
  C   C2255     1.0  0.50156  0.73213  0.22063  1.0000
  C   C2256     1.0  0.62824  0.53843  0.09744  1.0000
  C   C2257     1.0  0.62263  0.55335  0.09109  1.0000
  C   C2258     1.0  0.53118  0.53757  0.42227  1.0000
  C   C2259     1.0  0.52574  0.73895  0.31904  1.0000
  H   H1804     1.0  0.34544  0.52073  0.43796  1.0000
  C   C2260     1.0  0.40761  0.58071  0.37891  1.0000
  H   H1805     1.0  0.52630  0.56168  0.43741  1.0000
  C   C2261     1.0  0.51988  0.54769  0.42810  1.0000
  C   C2262     1.0  0.60793  0.74476  0.10096  1.0000
  C   C2263     1.0  0.57403  0.70089  0.24768  1.0000
  C   C2264     1.0  0.64637  0.54233  0.10924  1.0000
  C   C2265     1.0  0.50769  0.66434  0.33167  1.0000
  C   C2266     1.0  0.58947  0.71859  0.24796  1.0000
  H   H1806     1.0  0.58020  0.72182  0.10339  1.0000
  H   H1807     1.0  0.53174  0.51157  0.40660  1.0000
  H   H1808     1.0  0.60870  0.55025  0.08170  1.0000
  H   H1809     1.0  0.48356  0.53277  0.00731  1.0000
  C   C2267     1.0  0.58817  0.73407  0.26152  1.0000
  C   C2268     1.0  0.50869  0.50662  0.09277  1.0000
  C   C2269     1.0  0.51913  0.68828  0.29704  1.0000
  H   H1810     1.0  0.63375  0.56223  0.19031  1.0000
  C   C2270     1.0  0.55533  0.74299  0.35601  1.0000
  C   C2271     1.0  0.47623  0.53944  0.33987  1.0000
  C   C2272     1.0  0.46858  0.53937  0.31415  1.0000
  C   C2273     1.0  0.48062  0.54875  0.29348  1.0000
  C   C2274     1.0  0.50029  0.55838  0.29849  1.0000
  C   C2275     1.0  0.50801  0.55877  0.32440  1.0000
  C   C2276     1.0  0.49595  0.54867  0.34484  1.0000
  P   P77       1.0  0.53342  0.57093  0.33065  1.0000
  C   C2277     1.0  0.53904  0.57986  0.36471  1.0000
  C   C2278     1.0  0.54368  0.55410  0.32158  1.0000
  C   C2279     1.0  0.54837  0.54344  0.34127  1.0000
  C   C2280     1.0  0.55655  0.53063  0.33403  1.0000
  C   C2281     1.0  0.55963  0.52801  0.30710  1.0000
  C   C2282     1.0  0.55410  0.53783  0.28732  1.0000
  C   C2283     1.0  0.54592  0.55065  0.29446  1.0000
  C   C2284     1.0  0.52626  0.58549  0.37872  1.0000
  C   C2285     1.0  0.53122  0.59388  0.40420  1.0000
  C   C2286     1.0  0.54911  0.59693  0.41584  1.0000
  C   C2287     1.0  0.56205  0.59162  0.40193  1.0000
  C   C2288     1.0  0.55715  0.58335  0.37631  1.0000
  C   C2289     1.0  0.54215  0.59237  0.31111  1.0000
  C   C2290     1.0  0.53241  0.60465  0.31161  1.0000
  C   C2291     1.0  0.53932  0.62176  0.29758  1.0000
  C   C2292     1.0  0.55586  0.62662  0.28265  1.0000
  C   C2293     1.0  0.56581  0.61462  0.28239  1.0000
  C   C2294     1.0  0.55916  0.59768  0.29687  1.0000
  H   H1811     1.0  0.46689  0.53263  0.35609  1.0000
  H   H1812     1.0  0.45328  0.53260  0.31031  1.0000
  H   H1813     1.0  0.47459  0.54905  0.27371  1.0000
  H   H1814     1.0  0.50938  0.56560  0.28215  1.0000
  H   H1815     1.0  0.50169  0.54816  0.36471  1.0000
  H   H1816     1.0  0.54551  0.54479  0.36213  1.0000
  H   H1817     1.0  0.54519  0.68504  0.25906  1.0000
  H   H1818     1.0  0.53221  0.59421  0.11291  1.0000
  H   H1819     1.0  0.55585  0.53521  0.26641  1.0000
  H   H1820     1.0  0.54129  0.55779  0.27876  1.0000
  H   H1821     1.0  0.51250  0.58364  0.36994  1.0000
  H   H1822     1.0  0.52109  0.59797  0.41484  1.0000
  H   H1823     1.0  0.55291  0.60339  0.43564  1.0000
  H   H1824     1.0  0.57597  0.59411  0.41087  1.0000
  H   H1825     1.0  0.56760  0.57996  0.36542  1.0000
  H   H1826     1.0  0.51943  0.60094  0.32279  1.0000
  H   H1827     1.0  0.53154  0.63101  0.29769  1.0000
  H   H1828     1.0  0.56087  0.63962  0.27117  1.0000
  H   H1829     1.0  0.57865  0.61840  0.27082  1.0000
  H   H1830     1.0  0.56732  0.58884  0.29685  1.0000
  C   C2295     1.0  0.58988  0.73281  0.09083  1.0000
  C   C2296     1.0  0.50942  0.67414  0.27772  1.0000
  H   H1831     1.0  0.41682  0.54194  0.28903  1.0000
  H   H1832     1.0  0.51734  0.71971  0.05567  1.0000
  C   C2297     1.0  0.52170  0.51203  0.22889  1.0000
  C   C2298     1.0  0.64549  0.56687  0.20495  1.0000
  C   C2299     1.0  0.63508  0.57224  0.09635  1.0000
  C   C2300     1.0  0.40396  0.51439  0.33371  1.0000
  H   H1833     1.0  0.50695  0.66050  0.35261  1.0000
  H   H1834     1.0  0.49430  0.73682  0.20508  1.0000
  H   H1835     1.0  0.51751  0.54628  0.02290  1.0000
  H   H1836     1.0  0.35847  0.54395  0.47951  1.0000
  P   P78       1.0  0.65357  0.52305  0.11760  1.0000
  H   H1837     1.0  0.61204  0.74304  0.12142  1.0000
  C   C2301     1.0  0.55714  0.69872  0.26053  1.0000
  H   H1838     1.0  0.38317  0.53292  0.38495  1.0000
  C   C2302     1.0  0.38528  0.53731  0.23770  1.0000
  H   H1839     1.0  0.43434  0.50953  0.38175  1.0000
  C   C2303     1.0  0.52415  0.52367  0.00603  1.0000
  C   C2304     1.0  0.49264  0.50278  0.07565  1.0000
  H   H1840     1.0  0.50443  0.61937  0.02508  1.0000
  C   C2305     1.0  0.64198  0.56952  0.23169  1.0000
  H   H1841     1.0  0.60227  0.72040  0.23717  1.0000
  P   P79       1.0  0.38675  0.52512  0.32817  1.0000
  C   C2306     1.0  0.39069  0.54641  0.37521  1.0000
  H   H1842     1.0  0.52753  0.57404  0.99895  1.0000
  C   C2307     1.0  0.65867  0.56136  0.11496  1.0000
  H   H1843     1.0  0.61843  0.52392  0.09290  1.0000
  H   H1844     1.0  0.62050  0.52231  0.20224  1.0000
  C   C2308     1.0  0.36841  0.52529  0.27868  1.0000
  H   H1845     1.0  0.57265  0.54350  0.17766  1.0000
  Fe  Fe149     1.0  0.60440  0.51183  0.01146  1.0000
  H   H1846     1.0  0.56110  0.72284  0.33140  1.0000
  H   H1847     1.0  0.62754  0.56687  0.23776  1.0000
  H   H1848     1.0  0.63081  0.58376  0.09087  1.0000
  H   H1849     1.0  0.41615  0.54873  0.24118  1.0000
  C   C2309     1.0  0.46058  0.52558  0.15864  1.0000
  H   H1850     1.0  0.41326  0.59362  0.39110  1.0000
  H   H1851     1.0  0.57615  0.50465  0.37925  1.0000
  H   H1852     1.0  0.35498  0.51883  0.28870  1.0000
  H   H1853     1.0  0.59170  0.75157  0.02907  1.0000
  C   C2310     1.0  0.65308  0.57624  0.10832  1.0000
  C   C2311     1.0  0.64535  0.51448  0.15062  1.0000
  H   H1854     1.0  0.47632  0.51498  0.40841  1.0000
  C   C2312     1.0  0.41067  0.58156  0.35140  1.0000
  C   C2313     1.0  0.40731  0.50340  0.31330  1.0000
  C   C2314     1.0  0.42683  0.50788  0.36260  1.0000
  H   H1855     1.0  0.55062  0.54998  0.14609  1.0000
  C   C2315     1.0  0.40383  0.56485  0.33575  1.0000
  C   C2316     1.0  0.36604  0.50777  0.43857  1.0000
  C   C2317     1.0  0.40308  0.53819  0.27882  1.0000
  H   H1856     1.0  0.51823  0.56308  0.13499  1.0000
  C   C2318     1.0  0.39748  0.56317  0.39075  1.0000
  C   C2319     1.0  0.65706  0.57546  0.25064  1.0000
  H   H1857     1.0  0.48969  0.51318  0.30395  1.0000
  H   H1858     1.0  0.56513  0.51057  0.19348  1.0000
  C   C2320     1.0  0.54710  0.53555  0.15275  1.0000
  C   C2321     1.0  0.41371  0.51640  0.35853  1.0000
  C   C2322     1.0  0.49595  0.50540  0.31635  1.0000
  C   C2323     1.0  0.58421  0.73532  0.06483  1.0000
  C   C2324     1.0  0.34878  0.51577  0.34201  1.0000
  C   C2325     1.0  0.51202  0.53306  0.01159  1.0000
  H   H1859     1.0  0.53119  0.50473  0.22671  1.0000
  C   C2326     1.0  0.65793  0.51822  0.41292  1.0000
  H   H1860     1.0  0.65136  0.72962  0.48580  1.0000
  C   C2327     1.0  0.48809  0.51697  0.16013  1.0000
  C   C2328     1.0  0.52136  0.74148  0.22456  1.0000
  C   C2329     1.0  0.65495  0.55716  0.03298  1.0000
  C   C2330     1.0  0.63846  0.50711  0.40780  1.0000
  H   H1861     1.0  0.47595  0.50389  0.24456  1.0000
  C   C2331     1.0  0.49269  0.52535  0.00277  1.0000
  H   H1862     1.0  0.65430  0.57738  0.27142  1.0000
  H   H1863     1.0  0.44827  0.52647  0.16814  1.0000
  H   H1864     1.0  0.57032  0.74424  0.28400  1.0000
  C   C2332     1.0  0.55545  0.51341  0.17958  1.0000
  C   C2333     1.0  0.33094  0.50377  0.35160  1.0000
  H   H1865     1.0  0.48321  0.51016  0.07808  1.0000
  C   C2334     1.0  0.49140  0.51658  0.48463  1.0000
  H   H1866     1.0  0.46822  0.51210  0.19209  1.0000
  C   C2335     1.0  0.47188  0.51760  0.17214  1.0000
  Fe  Fe150     1.0  0.44951  0.55648  0.99584  1.0000
  H   H1867     1.0  0.65825  0.51560  0.48107  1.0000
  C   C2336     1.0  0.65293  0.51325  0.46050  1.0000
  S   S301      1.0  0.42941  0.52586  0.00076  1.0000
  C   C2337     1.0  0.59661  0.74980  0.04892  1.0000
  H   H1868     1.0  0.49713  0.54627  0.49071  1.0000
  H   H1869     1.0  0.49682  0.51115  0.17137  1.0000
  S   S302      1.0  0.46627  0.50894  0.47973  1.0000
  H   H1870     1.0  0.56715  0.74508  0.36995  1.0000
  H   H1871     1.0  0.47208  0.61733  0.01239  1.0000
  C   C2338     1.0  0.52912  0.75131  0.34111  1.0000
  H   H1872     1.0  0.51567  0.50494  0.28640  1.0000
  C   C2339     1.0  0.64199  0.50356  0.09404  1.0000
  C   C2340     1.0  0.51958  0.50874  0.48811  1.0000
  H   H1873     1.0  0.63275  0.50471  0.38740  1.0000
  C   C2341     1.0  0.49970  0.50310  0.48384  1.0000
  H   H1874     1.0  0.60004  0.74788  0.26144  1.0000
  C   C2342     1.0  0.32960  0.52876  0.49237  1.0000
  C   C2343     1.0  0.51646  0.50601  0.99265  1.0000
  C   C2344     1.0  0.34687  0.54470  0.49114  1.0000
  Fe  Fe151     1.0  0.51736  0.57993  0.73592  1.0000
  S   S303      1.0  0.48819  0.56432  0.71777  1.0000
  S   S304      1.0  0.53467  0.56306  0.75029  1.0000
  Fe  Fe152     1.0  0.51392  0.61910  0.73066  1.0000
  S   S305      1.0  0.48387  0.60501  0.71292  1.0000
  S   S306      1.0  0.52454  0.65131  0.73922  1.0000
  Fe  Fe153     1.0  0.47951  0.58289  0.74506  1.0000
  S   S307      1.0  0.45417  0.56711  0.77154  1.0000
  Fe  Fe154     1.0  0.49586  0.58789  0.68771  1.0000
  S   S308      1.0  0.49506  0.58069  0.64290  1.0000
  S   S309      1.0  0.50857  0.59788  0.76416  1.0000
  S   S310      1.0  0.52603  0.60272  0.70450  1.0000
  C   C2345     1.0  0.52986  0.50711  0.55991  1.0000
  H   H1875     1.0  0.52696  0.73689  0.73993  1.0000
  C   C2346     1.0  0.62623  0.73354  0.74436  1.0000
  C   C2347     1.0  0.40430  0.58594  0.51809  1.0000
  H   H1876     1.0  0.60958  0.59526  0.93513  1.0000
  S   S311      1.0  0.63716  0.51466  0.52964  1.0000
  Fe  Fe155     1.0  0.41283  0.53012  0.96471  1.0000
  S   S312      1.0  0.43186  0.56163  0.96244  1.0000
  H   H1877     1.0  0.36245  0.57397  0.50349  1.0000
  Fe  Fe156     1.0  0.44752  0.51965  0.97008  1.0000
  S   S313      1.0  0.46800  0.54984  0.96664  1.0000
  H   H1878     1.0  0.62387  0.57819  0.62119  1.0000
  H   H1879     1.0  0.55141  0.53618  0.76379  1.0000
  S   S314      1.0  0.44736  0.58043  0.53594  1.0000
  Fe  Fe157     1.0  0.44895  0.55246  0.93344  1.0000
  S   S315      1.0  0.46496  0.57152  0.89913  1.0000
  C   C2348     1.0  0.54300  0.54483  0.90750  1.0000
  S   S316      1.0  0.42945  0.52131  0.93417  1.0000
  S   S317      1.0  0.58678  0.72427  0.68365  1.0000
  C   C2349     1.0  0.59434  0.57057  0.60876  1.0000
  C   C2350     1.0  0.58060  0.56339  0.58786  1.0000
  C   C2351     1.0  0.56555  0.58629  0.90680  1.0000
  C   C2352     1.0  0.60531  0.56179  0.55907  1.0000
  H   H1880     1.0  0.56966  0.62067  0.66115  1.0000
  C   C2353     1.0  0.62729  0.53463  0.62429  1.0000
  C   C2354     1.0  0.63637  0.52095  0.90627  1.0000
  H   H1881     1.0  0.49790  0.51323  0.61001  1.0000
  C   C2355     1.0  0.40350  0.58550  0.54602  1.0000
  C   C2356     1.0  0.54229  0.65025  0.63169  1.0000
  C   C2357     1.0  0.65050  0.52839  0.88721  1.0000
  H   H1882     1.0  0.55266  0.62709  0.54433  1.0000
  C   C2358     1.0  0.55049  0.58184  0.54980  1.0000
  H   H1883     1.0  0.63032  0.74173  0.53874  1.0000
  C   C2359     1.0  0.54134  0.67120  0.72225  1.0000
  C   C2360     1.0  0.54031  0.68918  0.72483  1.0000
  C   C2361     1.0  0.55387  0.70553  0.71294  1.0000
  C   C2362     1.0  0.56894  0.70418  0.69874  1.0000
  C   C2363     1.0  0.57000  0.68624  0.69615  1.0000
  C   C2364     1.0  0.55617  0.66980  0.70749  1.0000
  H   H1884     1.0  0.52883  0.69045  0.73589  1.0000
  H   H1885     1.0  0.55273  0.71916  0.71493  1.0000
  H   H1886     1.0  0.58171  0.68509  0.68545  1.0000
  H   H1887     1.0  0.55727  0.65614  0.70545  1.0000
  C   C2365     1.0  0.48164  0.58113  0.61355  1.0000
  C   C2366     1.0  0.48601  0.57440  0.58935  1.0000
  C   C2367     1.0  0.47553  0.57390  0.56551  1.0000
  C   C2368     1.0  0.46070  0.58041  0.56556  1.0000
  C   C2369     1.0  0.45654  0.58746  0.58965  1.0000
  C   C2370     1.0  0.46687  0.58772  0.61360  1.0000
  H   H1888     1.0  0.49754  0.56948  0.58902  1.0000
  H   H1889     1.0  0.47899  0.56862  0.54708  1.0000
  H   H1890     1.0  0.44516  0.59261  0.58983  1.0000
  H   H1891     1.0  0.46342  0.59301  0.63203  1.0000
  C   C2371     1.0  0.45786  0.56780  0.80695  1.0000
  C   C2372     1.0  0.44607  0.55259  0.82264  1.0000
  C   C2373     1.0  0.44817  0.55332  0.85085  1.0000
  C   C2374     1.0  0.46184  0.56943  0.86371  1.0000
  C   C2375     1.0  0.47380  0.58445  0.84800  1.0000
  C   C2376     1.0  0.47192  0.58362  0.81983  1.0000
  H   H1892     1.0  0.43532  0.54016  0.81298  1.0000
  H   H1893     1.0  0.43927  0.54150  0.86267  1.0000
  H   H1894     1.0  0.48455  0.59691  0.85769  1.0000
  H   H1895     1.0  0.48101  0.59550  0.80818  1.0000
  C   C2377     1.0  0.52487  0.53767  0.75052  1.0000
  C   C2378     1.0  0.50580  0.52688  0.74289  1.0000
  H   H1896     1.0  0.56057  0.51236  0.82239  1.0000
  C   C2379     1.0  0.51194  0.65002  0.59392  1.0000
  C   C2380     1.0  0.53290  0.63043  0.63471  1.0000
  C   C2381     1.0  0.53661  0.52806  0.75790  1.0000
  H   H1897     1.0  0.49663  0.53399  0.73704  1.0000
  H   H1898     1.0  0.56589  0.50378  0.62579  1.0000
  C   C2382     1.0  0.58781  0.61864  0.89789  1.0000
  C   C2383     1.0  0.61880  0.56840  0.58014  1.0000
  C   C2384     1.0  0.49842  0.50679  0.74323  1.0000
  H   H1899     1.0  0.54785  0.53719  0.83152  1.0000
  H   H1900     1.0  0.35228  0.53311  0.87807  1.0000
  C   C2385     1.0  0.55601  0.54048  0.89200  1.0000
  H   H1901     1.0  0.47789  0.54217  0.77165  1.0000
  H   H1902     1.0  0.43958  0.53650  0.64047  1.0000
  H   H1903     1.0  0.49462  0.52671  0.79926  1.0000
  C   C2386     1.0  0.49394  0.65109  0.59133  1.0000
  H   H1904     1.0  0.50189  0.55526  0.88418  1.0000
  H   H1905     1.0  0.36118  0.56119  0.90785  1.0000
  C   C2387     1.0  0.53297  0.57057  0.95752  1.0000
  H   H1906     1.0  0.58650  0.65570  0.65610  1.0000
  P   P80       1.0  0.52964  0.73114  0.79757  1.0000
  C   C2388     1.0  0.36152  0.50321  0.52063  1.0000
  C   C2389     1.0  0.36694  0.53993  0.88536  1.0000
  H   H1907     1.0  0.49379  0.52213  0.54830  1.0000
  C   C2390     1.0  0.54288  0.61982  0.64474  1.0000
  C   C2391     1.0  0.55818  0.61479  0.58071  1.0000
  H   H1908     1.0  0.61894  0.73182  0.72495  1.0000
  H   H1909     1.0  0.64029  0.70837  0.78998  1.0000
  C   C2392     1.0  0.51499  0.56589  0.81976  1.0000
  H   H1910     1.0  0.41974  0.56692  0.90951  1.0000
  H   H1911     1.0  0.56536  0.55089  0.87851  1.0000
  C   C2393     1.0  0.55668  0.70123  0.62234  1.0000
  C   C2394     1.0  0.54295  0.57311  0.84889  1.0000
  C   C2395     1.0  0.53093  0.53097  0.92461  1.0000
  C   C2396     1.0  0.50887  0.65601  0.66695  1.0000
  C   C2397     1.0  0.51343  0.68624  0.64669  1.0000
  H   H1912     1.0  0.55588  0.69971  0.64390  1.0000
  C   C2398     1.0  0.52935  0.50796  0.75762  1.0000
  C   C2399     1.0  0.58007  0.58326  0.92147  1.0000
  C   C2400     1.0  0.40351  0.53471  0.77520  1.0000
  H   H1913     1.0  0.57721  0.56981  0.93132  1.0000
  C   C2401     1.0  0.55226  0.72856  0.79587  1.0000
  H   H1914     1.0  0.58942  0.73648  0.75407  1.0000
  C   C2402     1.0  0.50320  0.55972  0.84178  1.0000
  H   H1915     1.0  0.59075  0.63239  0.88896  1.0000
  H   H1916     1.0  0.48813  0.54000  0.61917  1.0000
  C   C2403     1.0  0.35942  0.50327  0.95416  1.0000
  C   C2404     1.0  0.54956  0.59806  0.53802  1.0000
  S   S318      1.0  0.55635  0.53552  0.49956  1.0000
  C   C2405     1.0  0.55895  0.59850  0.59258  1.0000
  H   H1917     1.0  0.63983  0.55406  0.53025  1.0000
  H   H1918     1.0  0.46669  0.64082  0.56996  1.0000
  H   H1919     1.0  0.47598  0.52360  0.93341  1.0000
  C   C2406     1.0  0.65883  0.54133  0.60720  1.0000
  H   H1920     1.0  0.49006  0.66024  0.60448  1.0000
  C   C2407     1.0  0.40492  0.55922  0.90320  1.0000
  C   C2408     1.0  0.55329  0.61450  0.55351  1.0000
  C   C2409     1.0  0.51842  0.51723  0.83149  1.0000
  H   H1921     1.0  0.63303  0.53232  0.58263  1.0000
  C   C2410     1.0  0.47967  0.53133  0.65941  1.0000
  C   C2411     1.0  0.47919  0.69436  0.76263  1.0000
  C   C2412     1.0  0.40207  0.54758  0.79413  1.0000
  C   C2413     1.0  0.47652  0.51747  0.91406  1.0000
  H   H1922     1.0  0.65210  0.73955  0.81378  1.0000
  H   H1923     1.0  0.47553  0.54314  0.66339  1.0000
  C   C2414     1.0  0.55776  0.71895  0.81622  1.0000
  H   H1924     1.0  0.53204  0.55628  0.49702  1.0000
  H   H1925     1.0  0.59049  0.57455  0.62790  1.0000
  C   C2415     1.0  0.63523  0.53932  0.65019  1.0000
  C   C2416     1.0  0.35822  0.52384  0.57612  1.0000
  P   P81       1.0  0.37500  0.51269  0.85580  1.0000
  H   H1926     1.0  0.56304  0.59899  0.61356  1.0000
  C   C2417     1.0  0.51684  0.58317  0.92530  1.0000
  C   C2418     1.0  0.46896  0.52283  0.89137  1.0000
  H   H1927     1.0  0.62364  0.70443  0.74557  1.0000
  H   H1928     1.0  0.53803  0.67727  0.56373  1.0000
  Fe  Fe158     1.0  0.56898  0.51353  0.50820  1.0000
  H   H1929     1.0  0.52534  0.69102  0.79236  1.0000
  C   C2419     1.0  0.56176  0.65923  0.63924  1.0000
  H   H1930     1.0  0.57965  0.73443  0.57598  1.0000
  C   C2420     1.0  0.47852  0.51829  0.67951  1.0000
  C   C2421     1.0  0.38667  0.50849  0.80448  1.0000
  H   H1931     1.0  0.54610  0.59786  0.51682  1.0000
  H   H1932     1.0  0.63351  0.57018  0.57717  1.0000
  P   P82       1.0  0.54174  0.56787  0.90423  1.0000
  H   H1933     1.0  0.46964  0.66406  0.75535  1.0000
  H   H1934     1.0  0.48780  0.55448  0.83895  1.0000
  H   H1935     1.0  0.49799  0.59518  0.94173  1.0000
  C   C2422     1.0  0.56905  0.71853  0.61180  1.0000
  H   H1936     1.0  0.55974  0.70793  0.54544  1.0000
  C   C2423     1.0  0.59843  0.59772  0.92386  1.0000
  C   C2424     1.0  0.52891  0.57351  0.93072  1.0000
  C   C2425     1.0  0.52309  0.54139  0.49360  1.0000
  H   H1937     1.0  0.54815  0.56939  0.53742  1.0000
  C   C2426     1.0  0.38527  0.52136  0.82370  1.0000
  C   C2427     1.0  0.37200  0.55614  0.90188  1.0000
  H   H1938     1.0  0.51410  0.58659  0.90506  1.0000
  H   H1939     1.0  0.51089  0.64274  0.66741  1.0000
  S   S319      1.0  0.38067  0.52399  0.96122  1.0000
  C   C2428     1.0  0.48668  0.52948  0.63439  1.0000
  H   H1940     1.0  0.41031  0.59947  0.50797  1.0000
  H   H1941     1.0  0.46617  0.69513  0.75448  1.0000
  S   S320      1.0  0.58436  0.51509  0.97934  1.0000
  H   H1942     1.0  0.54880  0.71351  0.83333  1.0000
  H   H1943     1.0  0.62147  0.51366  0.90002  1.0000
  C   C2429     1.0  0.39006  0.55082  0.54434  1.0000
  C   C2430     1.0  0.39640  0.56801  0.55912  1.0000
  P   P83       1.0  0.38124  0.52844  0.56173  1.0000
  H   H1944     1.0  0.39491  0.57826  0.92371  1.0000
  C   C2431     1.0  0.39941  0.53026  0.58689  1.0000
  C   C2432     1.0  0.41865  0.53650  0.57953  1.0000
  C   C2433     1.0  0.43296  0.53834  0.59874  1.0000
  C   C2434     1.0  0.42833  0.53457  0.62558  1.0000
  C   C2435     1.0  0.51177  0.58518  0.97272  1.0000
  H   H1945     1.0  0.34128  0.51898  0.95573  1.0000
  C   C2436     1.0  0.46997  0.52816  0.77972  1.0000
  C   C2437     1.0  0.48066  0.64017  0.57173  1.0000
  C   C2438     1.0  0.49401  0.71085  0.77278  1.0000
  C   C2439     1.0  0.56215  0.62889  0.65257  1.0000
  C   C2440     1.0  0.47939  0.51939  0.79572  1.0000
  P   P84       1.0  0.52911  0.66395  0.61937  1.0000
  C   C2441     1.0  0.39487  0.52655  0.61396  1.0000
  C   C2442     1.0  0.63821  0.72035  0.78101  1.0000
  C   C2443     1.0  0.49866  0.65994  0.68746  1.0000
  C   C2444     1.0  0.51700  0.73951  0.88564  1.0000
  C   C2445     1.0  0.58602  0.72207  0.79185  1.0000
  C   C2446     1.0  0.45031  0.51907  0.77440  1.0000
  C   C2447     1.0  0.50236  0.72733  0.86868  1.0000
  H   H1946     1.0  0.39224  0.55129  0.83270  1.0000
  C   C2448     1.0  0.54517  0.50902  0.91112  1.0000
  H   H1947     1.0  0.39626  0.56789  0.58080  1.0000
  H   H1948     1.0  0.42264  0.54012  0.55893  1.0000
  H   H1949     1.0  0.49313  0.64982  0.70344  1.0000
  C   C2449     1.0  0.54530  0.50849  0.82400  1.0000
  C   C2450     1.0  0.64148  0.52286  0.93348  1.0000
  H   H1950     1.0  0.40896  0.59870  0.55754  1.0000
  C   C2451     1.0  0.49619  0.67713  0.68793  1.0000
  C   C2452     1.0  0.51258  0.69226  0.78421  1.0000
  H   H1951     1.0  0.54276  0.56380  0.96243  1.0000
  C   C2453     1.0  0.57161  0.64859  0.64970  1.0000
  H   H1952     1.0  0.59879  0.71921  0.79000  1.0000
  H   H1953     1.0  0.57855  0.70801  0.82971  1.0000
  C   C2454     1.0  0.34168  0.50511  0.95249  1.0000
  C   C2455     1.0  0.54538  0.68609  0.60528  1.0000
  H   H1954     1.0  0.48805  0.72009  0.87617  1.0000
  H   H1955     1.0  0.35661  0.55041  0.56374  1.0000
  C   C2456     1.0  0.53123  0.56742  0.87126  1.0000
  H   H1956     1.0  0.57765  0.73011  0.62523  1.0000
  C   C2457     1.0  0.54665  0.68858  0.57742  1.0000
  C   C2458     1.0  0.39978  0.54263  0.88762  1.0000
  C   C2459     1.0  0.38075  0.53279  0.87858  1.0000
  C   C2460     1.0  0.39107  0.55140  0.51632  1.0000
  C   C2461     1.0  0.34834  0.50639  0.58873  1.0000
  C   C2462     1.0  0.51094  0.70997  0.78334  1.0000
  H   H1957     1.0  0.51872  0.69650  0.63085  1.0000
  H   H1958     1.0  0.47485  0.61956  0.53958  1.0000
  H   H1959     1.0  0.48874  0.68031  0.70426  1.0000
  C   C2463     1.0  0.48524  0.62816  0.55458  1.0000
  H   H1960     1.0  0.61656  0.62657  0.91389  1.0000
  C   C2464     1.0  0.39099  0.56578  0.91080  1.0000
  C   C2465     1.0  0.39291  0.54097  0.81824  1.0000
  C   C2466     1.0  0.55711  0.52264  0.89389  1.0000
  C   C2467     1.0  0.50754  0.52249  0.55536  1.0000
  H   H1961     1.0  0.62408  0.73212  0.58622  1.0000
  C   C2468     1.0  0.48108  0.67687  0.76320  1.0000
  C   C2469     1.0  0.52462  0.73407  0.83214  1.0000
  H   H1962     1.0  0.53024  0.63693  0.57808  1.0000
  H   H1963     1.0  0.41075  0.53767  0.88246  1.0000
  C   C2470     1.0  0.55899  0.70596  0.56692  1.0000
  H   H1964     1.0  0.55821  0.60701  0.88491  1.0000
  C   C2471     1.0  0.61333  0.57286  0.60496  1.0000
  H   H1965     1.0  0.54391  0.57688  0.80605  1.0000
  C   C2472     1.0  0.50611  0.72463  0.84200  1.0000
  H   H1966     1.0  0.61944  0.74608  0.82653  1.0000
  H   H1967     1.0  0.55836  0.57798  0.85108  1.0000
  C   C2473     1.0  0.60233  0.61537  0.91196  1.0000
  H   H1968     1.0  0.49451  0.71526  0.82922  1.0000
  H   H1969     1.0  0.50876  0.56542  0.79989  1.0000
  P   P85       1.0  0.55618  0.56088  0.59202  1.0000
  C   C2474     1.0  0.54908  0.55753  0.62639  1.0000
  C   C2475     1.0  0.53913  0.53978  0.57554  1.0000
  C   C2476     1.0  0.54334  0.52359  0.57213  1.0000
  H   H1970     1.0  0.40861  0.56277  0.79043  1.0000
  C   C2477     1.0  0.53926  0.74612  0.84942  1.0000
  H   H1971     1.0  0.50161  0.70360  0.66785  1.0000
  C   C2478     1.0  0.52097  0.53898  0.56762  1.0000
  C   C2479     1.0  0.55544  0.54631  0.64304  1.0000
  C   C2480     1.0  0.54881  0.54232  0.66909  1.0000
  C   C2481     1.0  0.53556  0.54919  0.67846  1.0000
  C   C2482     1.0  0.52901  0.56016  0.66199  1.0000
  C   C2483     1.0  0.53549  0.56412  0.63586  1.0000
  H   H1972     1.0  0.55699  0.52365  0.57887  1.0000
  C   C2484     1.0  0.53484  0.57242  0.82328  1.0000
  H   H1973     1.0  0.62609  0.53862  0.66684  1.0000
  C   C2485     1.0  0.33167  0.53310  0.58494  1.0000
  H   H1974     1.0  0.56524  0.54034  0.63578  1.0000
  H   H1975     1.0  0.55372  0.53372  0.68202  1.0000
  H   H1976     1.0  0.53017  0.54582  0.69839  1.0000
  H   H1977     1.0  0.51856  0.56521  0.66944  1.0000
  H   H1978     1.0  0.52950  0.57190  0.62302  1.0000
  H   H1979     1.0  0.56937  0.67448  0.63762  1.0000
  C   C2486     1.0  0.56943  0.60420  0.89549  1.0000
  C   C2487     1.0  0.50802  0.58860  0.94618  1.0000
  H   H1980     1.0  0.46254  0.53317  0.89326  1.0000
  H   H1981     1.0  0.56147  0.62767  0.59256  1.0000
  C   C2488     1.0  0.51647  0.63798  0.57648  1.0000
  C   C2489     1.0  0.51647  0.66920  0.64647  1.0000
  H   H1982     1.0  0.52055  0.53376  0.93655  1.0000
  H   H1983     1.0  0.51778  0.62311  0.62957  1.0000
  C   C2490     1.0  0.56402  0.73511  0.77368  1.0000
  H   H1984     1.0  0.57610  0.55441  0.54626  1.0000
  C   C2491     1.0  0.37744  0.50902  0.53839  1.0000
  H   H1985     1.0  0.60948  0.55842  0.53972  1.0000
  C   C2492     1.0  0.58077  0.73182  0.77167  1.0000
  C   C2493     1.0  0.50309  0.62699  0.55704  1.0000
  C   C2494     1.0  0.50353  0.69026  0.66751  1.0000
  H   H1986     1.0  0.51327  0.52808  0.83676  1.0000
  H   H1987     1.0  0.51722  0.55114  0.57065  1.0000
  H   H1988     1.0  0.44773  0.54307  0.59289  1.0000
  H   H1989     1.0  0.63055  0.51706  0.94836  1.0000
  C   C2495     1.0  0.58632  0.55939  0.56287  1.0000
  C   C2496     1.0  0.55452  0.58174  0.57735  1.0000
  C   C2497     1.0  0.51125  0.56027  0.86740  1.0000
  C   C2498     1.0  0.34962  0.53707  0.57397  1.0000
  H   H1990     1.0  0.50638  0.61732  0.54405  1.0000
  C   C2499     1.0  0.57020  0.72092  0.58410  1.0000
  H   H1991     1.0  0.53551  0.60455  0.64696  1.0000
  C   C2500     1.0  0.57459  0.71576  0.81421  1.0000
  H   H1992     1.0  0.49221  0.72426  0.77255  1.0000
  C   C2501     1.0  0.49217  0.51433  0.62928  1.0000
  C   C2502     1.0  0.62888  0.71811  0.75598  1.0000
  H   H1993     1.0  0.41107  0.54002  0.75687  1.0000
  C   C2503     1.0  0.33405  0.56250  0.51929  1.0000
  C   C2504     1.0  0.48476  0.50413  0.91188  1.0000
  H   H1994     1.0  0.38683  0.53848  0.50434  1.0000
  H   H1995     1.0  0.50457  0.58901  0.98887  1.0000
  Fe  Fe159     1.0  0.44679  0.56369  0.49772  1.0000
  H   H1996     1.0  0.49930  0.66228  0.77427  1.0000
  H   H1997     1.0  0.46400  0.51965  0.84912  1.0000
  C   C2505     1.0  0.39569  0.51516  0.78027  1.0000
  C   C2506     1.0  0.63912  0.53581  0.60279  1.0000
  C   C2507     1.0  0.49775  0.67583  0.77399  1.0000
  H   H1998     1.0  0.61199  0.53017  0.62080  1.0000
  C   C2508     1.0  0.63049  0.74708  0.58114  1.0000
  H   H1999     1.0  0.35166  0.51028  0.52085  1.0000
  C   C2509     1.0  0.39797  0.56890  0.50328  1.0000
  C   C2510     1.0  0.53137  0.52790  0.49324  1.0000
  C   C2511     1.0  0.40930  0.52871  0.63320  1.0000
  H   H2000     1.0  0.52295  0.50246  0.93963  1.0000
  C   C2512     1.0  0.46989  0.51508  0.86634  1.0000
  C   C2513     1.0  0.53212  0.51316  0.92639  1.0000
  H   H2001     1.0  0.41323  0.51254  0.84907  1.0000
  C   C2514     1.0  0.64488  0.73802  0.79442  1.0000
  H   H2002     1.0  0.44311  0.52607  0.76216  1.0000
  H   H2003     1.0  0.51406  0.74183  0.90620  1.0000
  C   C2515     1.0  0.53813  0.52241  0.82917  1.0000
  Fe  Fe160     1.0  0.60508  0.50634  0.52146  1.0000
  C   C2516     1.0  0.33047  0.50252  0.59985  1.0000
  H   H2004     1.0  0.64652  0.52681  0.86608  1.0000
  C   C2517     1.0  0.65495  0.54474  0.65468  1.0000
  H   H2005     1.0  0.40578  0.52607  0.65410  1.0000
  C   C2518     1.0  0.34910  0.56157  0.50458  1.0000
  C   C2519     1.0  0.48400  0.50314  0.67444  1.0000
  H   H2006     1.0  0.38034  0.52237  0.62050  1.0000
  H   H2007     1.0  0.56029  0.74252  0.75759  1.0000
  C   C2520     1.0  0.51205  0.50663  0.55139  1.0000
  S   S321      1.0  0.58414  0.51254  0.54732  1.0000
  H   H2008     1.0  0.40265  0.50396  0.55050  1.0000
  H   H2009     1.0  0.56719  0.51929  0.88203  1.0000
  C   C2521     1.0  0.53544  0.74889  0.87599  1.0000
  H   H2010     1.0  0.47356  0.52003  0.69911  1.0000
  C   C2522     1.0  0.48517  0.50792  0.98871  1.0000
  C   C2523     1.0  0.53099  0.75161  0.77826  1.0000
  C   C2524     1.0  0.52444  0.57643  0.97837  1.0000
  H   H2011     1.0  0.39685  0.50522  0.76558  1.0000
  H   H2012     1.0  0.59775  0.74701  0.86187  1.0000
  C   C2525     1.0  0.65412  0.55433  0.53211  1.0000
  H   H2013     1.0  0.33580  0.57562  0.52966  1.0000
  C   C2526     1.0  0.65672  0.53718  0.53195  1.0000
  H   H2014     1.0  0.57467  0.50236  0.67374  1.0000
  S   S322      1.0  0.42917  0.53216  0.49580  1.0000
  C   C2527     1.0  0.52934  0.75023  0.75016  1.0000
  C   C2528     1.0  0.63287  0.75120  0.75773  1.0000
  Fe  Fe161     1.0  0.50758  0.96314  0.45392  1.0000
  S   S323      1.0  0.47569  0.95158  0.45510  1.0000
  H   H2015     1.0  0.52944  0.75357  0.21233  1.0000
  Fe  Fe162     1.0  0.50866  0.92408  0.46223  1.0000
  S   S324      1.0  0.47641  0.90929  0.46436  1.0000
  H   H2016     1.0  0.41276  0.87491  0.05304  1.0000
  Fe  Fe163     1.0  0.47593  0.92761  0.42919  1.0000
  S   S325      1.0  0.45326  0.91852  0.39561  1.0000
  H   H2017     1.0  0.60267  0.78011  0.31230  1.0000
  S   S326      1.0  0.44022  0.93588  0.02668  1.0000
  S   S327      1.0  0.50782  0.94046  0.42521  1.0000
  C   C2529     1.0  0.63830  0.87835  0.99991  1.0000
  Fe  Fe164     1.0  0.45296  0.93253  0.24164  1.0000
  S   S328      1.0  0.43907  0.95332  0.24727  1.0000
  S   S329      1.0  0.47231  0.92632  0.27209  1.0000
  Fe  Fe165     1.0  0.44232  0.92715  0.18161  1.0000
  S   S330      1.0  0.42807  0.94793  0.18252  1.0000
  S   S331      1.0  0.44662  0.91064  0.14626  1.0000
  Fe  Fe166     1.0  0.45316  0.96611  0.20901  1.0000
  C   C2530     1.0  0.34005  0.85842  0.11178  1.0000
  Fe  Fe167     1.0  0.41507  0.93316  0.22058  1.0000
  S   S332      1.0  0.38399  0.92716  0.22993  1.0000
  S   S333      1.0  0.46832  0.94653  0.20477  1.0000
  S   S334      1.0  0.42792  0.91125  0.21815  1.0000
  Fe  Fe168     1.0  0.60930  0.84184  0.42830  1.0000
  S   S335      1.0  0.60494  0.81124  0.42832  1.0000
  S   S336      1.0  0.63980  0.86386  0.43007  1.0000
  Fe  Fe169     1.0  0.56661  0.83204  0.42262  1.0000
  S   S337      1.0  0.55933  0.80026  0.42177  1.0000
  S   S338      1.0  0.54246  0.84187  0.41350  1.0000
  Fe  Fe170     1.0  0.58091  0.80677  0.45596  1.0000
  H   H2018     1.0  0.63397  0.76880  0.09385  1.0000
  Fe  Fe171     1.0  0.58412  0.80728  0.39430  1.0000
  S   S339      1.0  0.58983  0.78964  0.36159  1.0000
  S   S340      1.0  0.58663  0.83806  0.45879  1.0000
  S   S341      1.0  0.58989  0.83840  0.39262  1.0000
  H   H2019     1.0  0.39923  0.89173  0.15287  1.0000
  S   S342      1.0  0.56269  0.76864  0.17101  1.0000
  Fe  Fe172     1.0  0.61787  0.79772  0.17956  1.0000
  S   S343      1.0  0.59661  0.81122  0.18203  1.0000
  C   C2531     1.0  0.53475  0.98930  0.31611  1.0000
  Fe  Fe173     1.0  0.57908  0.78613  0.20666  1.0000
  S   S344      1.0  0.56172  0.78967  0.24115  1.0000
  Fe  Fe174     1.0  0.58222  0.79279  0.14617  1.0000
  S   S345      1.0  0.57384  0.80969  0.11471  1.0000
  S   S346      1.0  0.60159  0.77389  0.20767  1.0000
  S   S347      1.0  0.60436  0.78029  0.14256  1.0000
  H   H2020     1.0  0.63538  0.83826  0.14964  1.0000
  C   C2532     1.0  0.57213  0.79983  0.02380  1.0000
  C   C2533     1.0  0.57250  0.81698  0.03432  1.0000
  C   C2534     1.0  0.57290  0.81974  0.06226  1.0000
  C   C2535     1.0  0.57357  0.80564  0.07982  1.0000
  C   C2536     1.0  0.57358  0.78863  0.06929  1.0000
  C   C2537     1.0  0.57251  0.78563  0.04138  1.0000
  H   H2021     1.0  0.57214  0.82795  0.02097  1.0000
  H   H2022     1.0  0.57285  0.83290  0.07033  1.0000
  H   H2023     1.0  0.57401  0.77768  0.08264  1.0000
  H   H2024     1.0  0.39394  0.91387  0.12196  1.0000
  C   C2538     1.0  0.58125  0.78884  0.32835  1.0000
  C   C2539     1.0  0.56524  0.79288  0.32225  1.0000
  C   C2540     1.0  0.55892  0.79241  0.29547  1.0000
  C   C2541     1.0  0.56875  0.78815  0.27465  1.0000
  C   C2542     1.0  0.58427  0.78332  0.28085  1.0000
  C   C2543     1.0  0.59049  0.78363  0.30764  1.0000
  H   H2025     1.0  0.55778  0.79636  0.33822  1.0000
  H   H2026     1.0  0.54657  0.79564  0.29084  1.0000
  H   H2027     1.0  0.59152  0.77943  0.26498  1.0000
  C   C2544     1.0  0.64513  0.82517  0.47484  1.0000
  C   C2545     1.0  0.36419  0.90571  0.22121  1.0000
  C   C2546     1.0  0.36663  0.88963  0.21139  1.0000
  C   C2547     1.0  0.35051  0.87280  0.20506  1.0000
  C   C2548     1.0  0.55200  0.99990  0.30359  1.0000
  C   C2549     1.0  0.62019  0.83510  0.06649  1.0000
  C   C2550     1.0  0.34548  0.90475  0.22452  1.0000
  H   H2028     1.0  0.38091  0.89010  0.20888  1.0000
  H   H2029     1.0  0.35261  0.86038  0.19784  1.0000
  H   H2030     1.0  0.46899  0.97133  0.06474  1.0000
  H   H2031     1.0  0.34347  0.91708  0.23227  1.0000
  H   H2032     1.0  0.49447  0.98292  0.23100  1.0000
  C   C2551     1.0  0.54009  0.86194  0.42844  1.0000
  C   C2552     1.0  0.55388  0.87402  0.44654  1.0000
  C   C2553     1.0  0.55128  0.88962  0.45836  1.0000
  C   C2554     1.0  0.53487  0.89328  0.45232  1.0000
  C   C2555     1.0  0.52117  0.88131  0.43399  1.0000
  C   C2556     1.0  0.52380  0.86573  0.42211  1.0000
  H   H2033     1.0  0.56648  0.87129  0.45152  1.0000
  C   C2557     1.0  0.65492  0.87472  0.99875  1.0000
  H   H2034     1.0  0.50848  0.88394  0.42917  1.0000
  H   H2035     1.0  0.51308  0.85648  0.40806  1.0000
  C   C2558     1.0  0.44163  0.92831  0.05971  1.0000
  C   C2559     1.0  0.43321  0.93459  0.08040  1.0000
  C   C2560     1.0  0.43484  0.92948  0.10710  1.0000
  C   C2561     1.0  0.44410  0.91732  0.11306  1.0000
  C   C2562     1.0  0.45153  0.91016  0.09215  1.0000
  C   C2563     1.0  0.45075  0.91601  0.06564  1.0000
  H   H2036     1.0  0.42590  0.94388  0.07585  1.0000
  H   H2037     1.0  0.42897  0.93497  0.12304  1.0000
  H   H2038     1.0  0.45833  0.90040  0.09658  1.0000
  H   H2039     1.0  0.45694  0.91081  0.04975  1.0000
  C   C2564     1.0  0.45963  0.92251  0.36169  1.0000
  C   C2565     1.0  0.47713  0.92296  0.35285  1.0000
  C   C2566     1.0  0.48098  0.92440  0.32533  1.0000
  C   C2567     1.0  0.46758  0.92589  0.30658  1.0000
  C   C2568     1.0  0.45046  0.92630  0.31555  1.0000
  C   C2569     1.0  0.44640  0.92434  0.34296  1.0000
  H   H2040     1.0  0.48739  0.92152  0.36710  1.0000
  H   H2041     1.0  0.49426  0.92408  0.31851  1.0000
  H   H2042     1.0  0.44015  0.92763  0.30129  1.0000
  H   H2043     1.0  0.43301  0.92438  0.34969  1.0000
  C   C2570     1.0  0.62327  0.96528  0.03538  1.0000
  H   H2044     1.0  0.49972  0.99134  0.48798  1.0000
  H   H2045     1.0  0.36704  0.94322  0.16856  1.0000
  C   C2571     1.0  0.40455  0.86828  0.16867  1.0000
  C   C2572     1.0  0.46380  0.96931  0.35910  1.0000
  C   C2573     1.0  0.54177  0.89540  0.31828  1.0000
  C   C2574     1.0  0.54320  0.89884  0.34594  1.0000
  C   C2575     1.0  0.55187  0.88967  0.36250  1.0000
  C   C2576     1.0  0.55926  0.87721  0.35143  1.0000
  C   C2577     1.0  0.55845  0.87412  0.32356  1.0000
  C   C2578     1.0  0.54913  0.88290  0.30714  1.0000
  P   P86       1.0  0.56584  0.85616  0.31005  1.0000
  C   C2579     1.0  0.57038  0.85802  0.27462  1.0000
  C   C2580     1.0  0.58820  0.85749  0.32497  1.0000
  C   C2581     1.0  0.60081  0.87408  0.33837  1.0000
  C   C2582     1.0  0.61809  0.87470  0.34966  1.0000
  C   C2583     1.0  0.62302  0.85895  0.34719  1.0000
  C   C2584     1.0  0.61093  0.84273  0.33291  1.0000
  C   C2585     1.0  0.59364  0.84206  0.32175  1.0000
  C   C2586     1.0  0.56756  0.84160  0.25926  1.0000
  C   C2587     1.0  0.57232  0.84306  0.23226  1.0000
  C   C2588     1.0  0.58030  0.86096  0.22047  1.0000
  C   C2589     1.0  0.58363  0.87743  0.23575  1.0000
  C   C2590     1.0  0.57886  0.87599  0.26280  1.0000
  C   C2591     1.0  0.54655  0.83402  0.31828  1.0000
  C   C2592     1.0  0.54568  0.82685  0.34423  1.0000
  C   C2593     1.0  0.53005  0.81056  0.35164  1.0000
  C   C2594     1.0  0.51517  0.80125  0.33313  1.0000
  C   C2595     1.0  0.51574  0.80848  0.30735  1.0000
  C   C2596     1.0  0.53121  0.82499  0.30006  1.0000
  H   H2046     1.0  0.53451  0.90208  0.30558  1.0000
  H   H2047     1.0  0.53718  0.90823  0.35466  1.0000
  H   H2048     1.0  0.55242  0.89182  0.38405  1.0000
  H   H2049     1.0  0.56517  0.86962  0.36480  1.0000
  H   H2050     1.0  0.54708  0.87974  0.28588  1.0000
  H   H2051     1.0  0.59735  0.88647  0.34033  1.0000
  H   H2052     1.0  0.62750  0.88722  0.36084  1.0000
  H   H2053     1.0  0.63603  0.85916  0.35673  1.0000
  H   H2054     1.0  0.61471  0.83047  0.33100  1.0000
  H   H2055     1.0  0.58451  0.82952  0.31057  1.0000
  H   H2056     1.0  0.56204  0.82760  0.26813  1.0000
  H   H2057     1.0  0.58411  0.86201  0.19956  1.0000
  H   H2058     1.0  0.59014  0.89131  0.22668  1.0000
  H   H2059     1.0  0.58209  0.88890  0.27458  1.0000
  H   H2060     1.0  0.55685  0.83408  0.35901  1.0000
  H   H2061     1.0  0.52945  0.80538  0.37193  1.0000
  H   H2062     1.0  0.50307  0.78863  0.33892  1.0000
  H   H2063     1.0  0.50407  0.80143  0.29310  1.0000
  H   H2064     1.0  0.53107  0.83075  0.28033  1.0000
  H   H2065     1.0  0.45045  0.97747  0.10106  1.0000
  P   P87       1.0  0.44472  0.99197  0.46933  1.0000
  H   H2066     1.0  0.65743  0.87221  0.32025  1.0000
  H   H2067     1.0  0.57007  0.83026  0.22060  1.0000
  C   C2597     1.0  0.63389  0.78351  0.39842  1.0000
  C   C2598     1.0  0.57392  0.89534  0.00891  1.0000
  H   H2068     1.0  0.35843  0.83535  0.13003  1.0000
  H   H2069     1.0  0.62068  0.78185  0.38785  1.0000
  H   H2070     1.0  0.60683  0.88360  0.48356  1.0000
  C   C2599     1.0  0.39386  0.99602  0.48480  1.0000
  H   H2071     1.0  0.57044  0.00101  0.27102  1.0000
  C   C2600     1.0  0.38162  0.83671  0.15628  1.0000
  C   C2601     1.0  0.47586  0.00187  0.43530  1.0000
  C   C2602     1.0  0.62479  0.82373  0.26622  1.0000
  C   C2603     1.0  0.61330  0.83409  0.26325  1.0000
  P   P88       1.0  0.36456  0.87506  0.11814  1.0000
  C   C2604     1.0  0.62149  0.85398  0.26554  1.0000
  C   C2605     1.0  0.42297  0.93350  0.46505  1.0000
  H   H2072     1.0  0.64215  0.82857  0.45467  1.0000
  C   C2606     1.0  0.55730  0.99255  0.28087  1.0000
  H   H2073     1.0  0.61861  0.80839  0.26397  1.0000
  H   H2074     1.0  0.59807  0.82662  0.25906  1.0000
  C   C2607     1.0  0.55903  0.86069  0.00774  1.0000
  C   C2608     1.0  0.61485  0.76190  0.05889  1.0000
  H   H2075     1.0  0.54681  0.95404  0.40264  1.0000
  C   C2609     1.0  0.54557  0.97447  0.27077  1.0000
  H   H2076     1.0  0.51967  0.96676  0.22528  1.0000
  Fe  Fe175     1.0  0.58602  0.75745  0.17074  1.0000
  H   H2077     1.0  0.64943  0.78521  0.36236  1.0000
  S   S348      1.0  0.57880  0.78509  0.48809  1.0000
  H   H2078     1.0  0.41786  0.87749  0.17859  1.0000
  Fe  Fe176     1.0  0.46075  0.93396  0.99560  1.0000
  C   C2610     1.0  0.47410  0.97232  0.08540  1.0000
  C   C2611     1.0  0.40560  0.84784  0.38160  1.0000
  C   C2612     1.0  0.36484  0.89678  0.13322  1.0000
  C   C2613     1.0  0.52704  0.81347  0.47655  1.0000
  C   C2614     1.0  0.32935  0.88806  0.21755  1.0000
  C   C2615     1.0  0.65518  0.78656  0.04648  1.0000
  H   H2079     1.0  0.63370  0.93212  0.07001  1.0000
  C   C2616     1.0  0.43619  0.96762  0.45702  1.0000
  C   C2617     1.0  0.55376  0.86063  0.03435  1.0000
  H   H2080     1.0  0.33599  0.88426  0.14836  1.0000
  C   C2618     1.0  0.42305  0.92989  0.43763  1.0000
  C   C2619     1.0  0.42899  0.94503  0.41976  1.0000
  C   C2620     1.0  0.43543  0.96383  0.42936  1.0000
  H   H2081     1.0  0.54971  0.96879  0.25320  1.0000
  C   C2621     1.0  0.39113  0.87419  0.08074  1.0000
  H   H2082     1.0  0.61712  0.84715  0.07298  1.0000
  C   C2622     1.0  0.42912  0.95225  0.47468  1.0000
  H   H2083     1.0  0.33502  0.85033  0.15330  1.0000
  H   H2084     1.0  0.37064  0.85173  0.26431  1.0000
  H   H2085     1.0  0.62785  0.85412  0.48669  1.0000
  H   H2086     1.0  0.52254  0.80264  0.46085  1.0000
  H   H2087     1.0  0.47095  0.96244  0.39853  1.0000
  H   H2088     1.0  0.62735  0.79740  0.09229  1.0000
  H   H2089     1.0  0.41890  0.91538  0.43023  1.0000
  H   H2090     1.0  0.42919  0.94209  0.39856  1.0000
  H   H2091     1.0  0.44011  0.97538  0.41521  1.0000
  C   C2623     1.0  0.62564  0.77709  0.00382  1.0000
  H   H2092     1.0  0.57185  0.77219  0.03341  1.0000
  C   C2624     1.0  0.65291  0.85312  0.27297  1.0000
  H   H2093     1.0  0.39392  0.86416  0.09362  1.0000
  H   H2094     1.0  0.41100  0.84126  0.39715  1.0000
  H   H2095     1.0  0.47409  0.98712  0.43590  1.0000
  C   C2625     1.0  0.62251  0.82275  0.08543  1.0000
  C   C2626     1.0  0.61338  0.92592  0.03686  1.0000
  H   H2096     1.0  0.37195  0.83626  0.33121  1.0000
  C   C2627     1.0  0.38212  0.93040  0.14454  1.0000
  C   C2628     1.0  0.55561  0.98693  0.13985  1.0000
  H   H2097     1.0  0.41494  0.89117  0.35472  1.0000
  H   H2098     1.0  0.50982  0.96251  0.31540  1.0000
  C   C2629     1.0  0.36628  0.93044  0.15813  1.0000
  H   H2099     1.0  0.49832  0.96623  0.07539  1.0000
  C   C2630     1.0  0.34611  0.85633  0.33002  1.0000
  C   C2631     1.0  0.39024  0.83665  0.36484  1.0000
  H   H2100     1.0  0.35872  0.87791  0.26968  1.0000
  C   C2632     1.0  0.37455  0.89483  0.07028  1.0000
  H   H2101     1.0  0.54992  0.94399  0.05447  1.0000
  H   H2102     1.0  0.40694  0.84227  0.18095  1.0000
  C   C2633     1.0  0.54389  0.75331  0.35959  1.0000
  H   H2103     1.0  0.62121  0.82525  0.10653  1.0000
  H   H2104     1.0  0.65286  0.82461  0.27347  1.0000
  P   P89       1.0  0.52882  0.99796  0.34684  1.0000
  C   C2634     1.0  0.49064  0.98633  0.33116  1.0000
  C   C2635     1.0  0.64125  0.86349  0.27028  1.0000
  H   H2105     1.0  0.35204  0.85441  0.34914  1.0000
  H   H2106     1.0  0.52558  0.98088  0.18058  1.0000
  H   H2107     1.0  0.51908  0.94986  0.27538  1.0000
  C   C2636     1.0  0.39386  0.87636  0.15395  1.0000
  C   C2637     1.0  0.50345  0.98642  0.35194  1.0000
  C   C2638     1.0  0.46370  0.97591  0.10586  1.0000
  C   C2639     1.0  0.63165  0.80984  0.48811  1.0000
  H   H2108     1.0  0.55397  0.87779  0.06876  1.0000
  C   C2640     1.0  0.33172  0.85554  0.08585  1.0000
  P   P90       1.0  0.51753  0.96426  0.12639  1.0000
  C   C2641     1.0  0.51454  0.95369  0.15923  1.0000
  C   C2642     1.0  0.49672  0.96937  0.11844  1.0000
  C   C2643     1.0  0.48646  0.97354  0.13882  1.0000
  C   C2644     1.0  0.46998  0.97675  0.13250  1.0000
  C   C2645     1.0  0.37742  0.88152  0.08728  1.0000
  H   H2109     1.0  0.42658  0.87622  0.39039  1.0000
  C   C2646     1.0  0.49062  0.96919  0.09161  1.0000
  C   C2647     1.0  0.50610  0.93381  0.16225  1.0000
  C   C2648     1.0  0.50300  0.92591  0.18781  1.0000
  C   C2649     1.0  0.50820  0.93776  0.21056  1.0000
  C   C2650     1.0  0.51654  0.95755  0.20774  1.0000
  C   C2651     1.0  0.51974  0.96550  0.18225  1.0000
  C   C2652     1.0  0.51925  0.94832  0.10051  1.0000
  C   C2653     1.0  0.50280  0.93247  0.09239  1.0000
  C   C2654     1.0  0.50335  0.92083  0.07099  1.0000
  C   C2655     1.0  0.52034  0.92493  0.05740  1.0000
  C   C2656     1.0  0.53684  0.94067  0.06531  1.0000
  C   C2657     1.0  0.53633  0.95236  0.08677  1.0000
  C   C2658     1.0  0.47646  0.96942  0.37990  1.0000
  H   H2110     1.0  0.61808  0.80135  0.47838  1.0000
  H   H2111     1.0  0.61876  0.84075  0.02449  1.0000
  H   H2112     1.0  0.51151  0.82914  0.45936  1.0000
  H   H2113     1.0  0.55617  0.97428  0.14895  1.0000
  H   H2114     1.0  0.49083  0.97404  0.15966  1.0000
  H   H2115     1.0  0.46187  0.97947  0.14841  1.0000
  C   C2659     1.0  0.65007  0.78531  0.38406  1.0000
  H   H2116     1.0  0.39508  0.94325  0.14407  1.0000
  C   C2660     1.0  0.49624  0.97803  0.37644  1.0000
  H   H2117     1.0  0.50138  0.92428  0.14509  1.0000
  H   H2118     1.0  0.49588  0.91060  0.18998  1.0000
  H   H2119     1.0  0.50495  0.93162  0.23030  1.0000
  C   C2661     1.0  0.39889  0.89342  0.04087  1.0000
  C   C2662     1.0  0.62420  0.81544  0.03090  1.0000
  H   H2120     1.0  0.48940  0.92942  0.10227  1.0000
  H   H2121     1.0  0.49046  0.90882  0.06457  1.0000
  H   H2122     1.0  0.52055  0.91603  0.04049  1.0000
  H   H2123     1.0  0.57433  0.97969  0.42521  1.0000
  H   H2124     1.0  0.54914  0.96469  0.09213  1.0000
  C   C2663     1.0  0.37101  0.84474  0.14123  1.0000
  H   H2125     1.0  0.48896  0.99065  0.99863  1.0000
  H   H2126     1.0  0.54855  0.91359  0.00611  1.0000
  H   H2127     1.0  0.63381  0.83298  0.39198  1.0000
  H   H2128     1.0  0.54605  0.84719  0.04412  1.0000
  C   C2664     1.0  0.52838  0.96383  0.28319  1.0000
  C   C2665     1.0  0.41431  0.86752  0.37791  1.0000
  C   C2666     1.0  0.40752  0.87605  0.35772  1.0000
  C   C2667     1.0  0.39166  0.86504  0.34139  1.0000
  H   H2129     1.0  0.54692  0.76331  0.37627  1.0000
  P   P91       1.0  0.38388  0.87571  0.31377  1.0000
  C   C2668     1.0  0.39603  0.87173  0.28522  1.0000
  C   C2669     1.0  0.65200  0.78683  0.44001  1.0000
  H   H2130     1.0  0.40754  0.89837  0.02331  1.0000
  C   C2670     1.0  0.41608  0.88059  0.28477  1.0000
  C   C2671     1.0  0.42600  0.87736  0.26338  1.0000
  C   C2672     1.0  0.41595  0.86522  0.24223  1.0000
  C   C2673     1.0  0.39597  0.85618  0.24264  1.0000
  C   C2674     1.0  0.38603  0.85924  0.26419  1.0000
  C   C2675     1.0  0.39080  0.90099  0.31902  1.0000
  C   C2676     1.0  0.38951  0.90823  0.34448  1.0000
  C   C2677     1.0  0.39463  0.92782  0.34843  1.0000
  C   C2678     1.0  0.40059  0.94022  0.32686  1.0000
  C   C2679     1.0  0.40129  0.93301  0.30132  1.0000
  C   C2680     1.0  0.39643  0.91349  0.29736  1.0000
  C   C2681     1.0  0.63484  0.78419  0.42638  1.0000
  C   C2682     1.0  0.39846  0.84848  0.16985  1.0000
  H   H2131     1.0  0.52668  0.96199  0.36924  1.0000
  C   C2683     1.0  0.35810  0.86618  0.30930  1.0000
  H   H2132     1.0  0.50577  0.97815  0.39295  1.0000
  C   C2684     1.0  0.62109  0.83148  0.03924  1.0000
  H   H2133     1.0  0.42410  0.88998  0.30103  1.0000
  H   H2134     1.0  0.44149  0.88455  0.26306  1.0000
  H   H2135     1.0  0.42368  0.86298  0.22551  1.0000
  H   H2136     1.0  0.38813  0.84681  0.22625  1.0000
  H   H2137     1.0  0.65048  0.75715  0.05421  1.0000
  H   H2138     1.0  0.38460  0.89875  0.36127  1.0000
  H   H2139     1.0  0.39384  0.93335  0.36818  1.0000
  H   H2140     1.0  0.40440  0.95537  0.32977  1.0000
  H   H2141     1.0  0.40535  0.94249  0.28438  1.0000
  H   H2142     1.0  0.39683  0.90821  0.27728  1.0000
  C   C2685     1.0  0.52303  0.97116  0.30584  1.0000
  C   C2686     1.0  0.55026  0.96879  0.39747  1.0000
  H   H2143     1.0  0.62225  0.78275  0.43743  1.0000
  H   H2144     1.0  0.55522  0.84731  0.99683  1.0000
  C   C2687     1.0  0.53856  0.98629  0.12754  1.0000
  C   C2688     1.0  0.63189  0.95768  0.05452  1.0000
  C   C2689     1.0  0.53884  0.97337  0.37870  1.0000
  C   C2690     1.0  0.62566  0.80672  0.07717  1.0000
  C   C2691     1.0  0.38143  0.91368  0.13212  1.0000
  C   C2692     1.0  0.34981  0.86957  0.28550  1.0000
  H   H2145     1.0  0.61258  0.86201  0.26328  1.0000
  C   C2693     1.0  0.56588  0.98325  0.41008  1.0000
  C   C2694     1.0  0.55828  0.87788  0.04820  1.0000
  C   C2695     1.0  0.65583  0.85656  0.41273  1.0000
  C   C2696     1.0  0.34890  0.89701  0.14670  1.0000
  H   H2146     1.0  0.64753  0.87894  0.27124  1.0000
  C   C2697     1.0  0.64902  0.84059  0.39564  1.0000
  H   H2147     1.0  0.61934  0.88518  0.02528  1.0000
  C   C2698     1.0  0.56826  0.89519  0.03554  1.0000
  C   C2699     1.0  0.60975  0.95323  0.01688  1.0000
  S   S349      1.0  0.52558  0.99406  0.44503  1.0000
  C   C2700     1.0  0.62625  0.80274  0.04980  1.0000
  H   H2148     1.0  0.56200  0.89886  0.47238  1.0000
  C   C2701     1.0  0.37697  0.86466  0.14008  1.0000
  C   C2702     1.0  0.34960  0.91382  0.15888  1.0000
  H   H2149     1.0  0.36426  0.90087  0.07514  1.0000
  H   H2150     1.0  0.37698  0.82135  0.15697  1.0000
  Fe  Fe177     1.0  0.47828  0.93437  0.49021  1.0000
  C   C2703     1.0  0.56898  0.87796  0.99500  1.0000
  C   C2704     1.0  0.64442  0.83312  0.27140  1.0000
  C   C2705     1.0  0.42411  0.99805  0.46701  1.0000
  C   C2706     1.0  0.47088  0.97768  0.33469  1.0000
  H   H2151     1.0  0.42676  0.99960  0.12267  1.0000
  C   C2707     1.0  0.38346  0.84518  0.34457  1.0000
  H   H2152     1.0  0.60341  0.95949  0.00218  1.0000
  H   H2153     1.0  0.57159  0.90843  0.04653  1.0000
  H   H2154     1.0  0.62718  0.98055  0.03476  1.0000
  C   C2708     1.0  0.54300  0.99249  0.37241  1.0000
  S   S350      1.0  0.53199  0.91258  0.46892  1.0000
  C   C2709     1.0  0.40183  0.88018  0.05764  1.0000
  C   C2710     1.0  0.62693  0.93801  0.05526  1.0000
  S   S351      1.0  0.46913  0.99800  0.20393  1.0000
  H   H2155     1.0  0.65197  0.77326  0.99628  1.0000
  C   C2711     1.0  0.38529  0.90077  0.04719  1.0000
  H   H2156     1.0  0.64249  0.96704  0.06869  1.0000
  H   H2157     1.0  0.44851  0.96229  0.36163  1.0000
  H   H2158     1.0  0.62467  0.81299  0.00969  1.0000
  P   P92       1.0  0.63028  0.78186  0.03948  1.0000
  H   H2159     1.0  0.38344  0.91140  0.03444  1.0000
  C   C2712     1.0  0.52075  0.82839  0.47579  1.0000
  H   H2160     1.0  0.41864  0.92178  0.47899  1.0000
  C   C2713     1.0  0.60470  0.93343  0.01745  1.0000
  C   C2714     1.0  0.50154  0.99828  0.23075  1.0000
  C   C2715     1.0  0.41053  0.99245  0.48723  1.0000
  H   H2161     1.0  0.38377  0.82134  0.36733  1.0000
  S   S352      1.0  0.49119  0.93814  0.00468  1.0000
  C   C2716     1.0  0.64346  0.88402  0.04770  1.0000
  H   H2162     1.0  0.65649  0.82213  0.36966  1.0000
  C   C2717     1.0  0.63243  0.88278  0.02441  1.0000
  S   S353      1.0  0.51049  0.94787  0.49094  1.0000
  C   C2718     1.0  0.62031  0.75932  0.08520  1.0000
  H   H2163     1.0  0.46109  0.97723  0.31833  1.0000
  H   H2164     1.0  0.60982  0.91074  0.03763  1.0000
  H   H2165     1.0  0.52058  0.75966  0.34362  1.0000
  C   C2719     1.0  0.32899  0.84831  0.13311  1.0000
  H   H2166     1.0  0.33983  0.86300  0.06896  1.0000
  H   H2167     1.0  0.59859  0.78027  0.00354  1.0000
  H   H2168     1.0  0.49593  0.99278  0.31210  1.0000
  C   C2720     1.0  0.32988  0.86211  0.28182  1.0000
  H   H2169     1.0  0.63921  0.88783  0.06670  1.0000
  H   H2170     1.0  0.52752  0.99894  0.24988  1.0000
  C   C2721     1.0  0.32617  0.84902  0.32633  1.0000
  C   C2722     1.0  0.65072  0.84578  0.15206  1.0000
  H   H2171     1.0  0.65254  0.78755  0.46168  1.0000
  H   H2172     1.0  0.65188  0.86971  0.12804  1.0000
  H   H2173     1.0  0.65165  0.83903  0.99383  1.0000
  H   H2174     1.0  0.33740  0.91378  0.16972  1.0000
  C   C2723     1.0  0.33179  0.87196  0.20784  1.0000
  S   S354      1.0  0.65012  0.81537  0.18328  1.0000
  P   P93       1.0  0.58777  0.91767  0.99307  1.0000
  Fe  Fe178     1.0  0.49864  0.95967  0.97198  1.0000
  S   S355      1.0  0.46867  0.95704  0.96507  1.0000
  C   C2724     1.0  0.45365  0.99511  0.50361  1.0000
  Fe  Fe179     1.0  0.48682  0.91664  0.97131  1.0000
  S   S356      1.0  0.45540  0.91089  0.96442  1.0000
  H   H2175     1.0  0.52702  0.95820  0.72018  1.0000
  Fe  Fe180     1.0  0.46589  0.93451  0.93423  1.0000
  S   S357      1.0  0.45007  0.93957  0.89743  1.0000
  C   C2725     1.0  0.59165  0.91310  0.51879  1.0000
  S   S358      1.0  0.45706  0.93327  0.52247  1.0000
  S   S359      1.0  0.49691  0.93867  0.93919  1.0000
  H   H2176     1.0  0.34138  0.91735  0.93802  1.0000
  Fe  Fe181     1.0  0.43563  0.92743  0.73893  1.0000
  S   S360      1.0  0.41971  0.94685  0.73670  1.0000
  S   S361      1.0  0.44115  0.91212  0.77523  1.0000
  Fe  Fe182     1.0  0.44602  0.93265  0.67938  1.0000
  S   S362      1.0  0.43096  0.95236  0.67327  1.0000
  S   S363      1.0  0.46508  0.92694  0.64895  1.0000
  Fe  Fe183     1.0  0.44473  0.96586  0.71259  1.0000
  C   C2726     1.0  0.49240  0.87623  0.88567  1.0000
  Fe  Fe184     1.0  0.40727  0.93150  0.69756  1.0000
  S   S364      1.0  0.37685  0.92491  0.68120  1.0000
  S   S365      1.0  0.46118  0.94738  0.71739  1.0000
  S   S366      1.0  0.42162  0.91075  0.70120  1.0000
  Fe  Fe185     1.0  0.60920  0.84758  0.92692  1.0000
  S   S367      1.0  0.59829  0.81584  0.92815  1.0000
  S   S368      1.0  0.64075  0.86678  0.92771  1.0000
  Fe  Fe186     1.0  0.56885  0.84723  0.92297  1.0000
  S   S369      1.0  0.55488  0.81502  0.92321  1.0000
  S   S370      1.0  0.55486  0.86825  0.91375  1.0000
  Fe  Fe187     1.0  0.57643  0.81739  0.95638  1.0000
  C   C2727     1.0  0.65609  0.85685  0.59978  1.0000
  Fe  Fe188     1.0  0.57792  0.81587  0.89503  1.0000
  S   S371      1.0  0.57465  0.79359  0.86281  1.0000
  S   S372      1.0  0.58905  0.84956  0.95803  1.0000
  S   S373      1.0  0.59028  0.84772  0.89197  1.0000
  H   H2177     1.0  0.56705  0.90411  0.54358  1.0000
  S   S374      1.0  0.56986  0.76972  0.68142  1.0000
  Fe  Fe189     1.0  0.62544  0.79390  0.67320  1.0000
  S   S375      1.0  0.60681  0.81031  0.67265  1.0000
  C   C2728     1.0  0.63148  0.81881  0.58990  1.0000
  Fe  Fe190     1.0  0.59198  0.79245  0.70735  1.0000
  S   S376      1.0  0.58576  0.81061  0.73879  1.0000
  Fe  Fe191     1.0  0.58644  0.78667  0.64674  1.0000
  S   S377      1.0  0.57355  0.79738  0.61242  1.0000
  S   S378      1.0  0.61217  0.77744  0.70993  1.0000
  S   S379      1.0  0.60605  0.77122  0.64476  1.0000
  H   H2178     1.0  0.64555  0.83909  0.66857  1.0000
  C   C2729     1.0  0.58052  0.79001  0.52286  1.0000
  C   C2730     1.0  0.58026  0.77576  0.54077  1.0000
  C   C2731     1.0  0.57951  0.77841  0.56856  1.0000
  C   C2732     1.0  0.57862  0.79519  0.57852  1.0000
  C   C2733     1.0  0.57987  0.80981  0.56069  1.0000
  C   C2734     1.0  0.58115  0.80735  0.53296  1.0000
  H   H2179     1.0  0.57991  0.76235  0.53305  1.0000
  H   H2180     1.0  0.57847  0.76708  0.58215  1.0000
  H   H2181     1.0  0.57943  0.82291  0.56831  1.0000
  H   H2182     1.0  0.52860  0.90052  0.84438  1.0000
  C   C2735     1.0  0.57932  0.79915  0.82875  1.0000
  C   C2736     1.0  0.57942  0.81613  0.81826  1.0000
  C   C2737     1.0  0.58185  0.81958  0.79070  1.0000
  C   C2738     1.0  0.58420  0.80612  0.77343  1.0000
  C   C2739     1.0  0.58460  0.78934  0.78398  1.0000
  C   C2740     1.0  0.58215  0.78587  0.81157  1.0000
  H   H2183     1.0  0.57716  0.82639  0.83127  1.0000
  H   H2184     1.0  0.58153  0.83259  0.78262  1.0000
  H   H2185     1.0  0.58636  0.77889  0.77080  1.0000
  H   H2186     1.0  0.58223  0.77274  0.81951  1.0000
  C   C2741     1.0  0.35538  0.90623  0.69132  1.0000
  C   C2742     1.0  0.35556  0.89239  0.70943  1.0000
  C   C2743     1.0  0.33819  0.87843  0.71801  1.0000
  C   C2744     1.0  0.62585  0.86254  0.52735  1.0000
  C   C2745     1.0  0.63564  0.77095  0.96000  1.0000
  C   C2746     1.0  0.33764  0.90537  0.68104  1.0000
  H   H2187     1.0  0.36907  0.89267  0.71724  1.0000
  H   H2188     1.0  0.33847  0.86803  0.73232  1.0000
  H   H2189     1.0  0.34272  0.84572  0.77020  1.0000
  H   H2190     1.0  0.33735  0.91594  0.66689  1.0000
  C   C2747     1.0  0.49360  0.92715  0.78156  1.0000
  C   C2748     1.0  0.53900  0.87492  0.93289  1.0000
  C   C2749     1.0  0.52976  0.86470  0.95517  1.0000
  C   C2750     1.0  0.51712  0.87049  0.96947  1.0000
  C   C2751     1.0  0.51339  0.88639  0.96148  1.0000
  C   C2752     1.0  0.52273  0.89668  0.93925  1.0000
  C   C2753     1.0  0.53545  0.89093  0.92508  1.0000
  H   H2191     1.0  0.53210  0.85217  0.96115  1.0000
  C   C2754     1.0  0.38696  0.89072  0.59265  1.0000
  H   H2192     1.0  0.52005  0.90894  0.93287  1.0000
  H   H2193     1.0  0.54241  0.89875  0.90772  1.0000
  C   C2755     1.0  0.46012  0.93235  0.55764  1.0000
  C   C2756     1.0  0.44533  0.93228  0.57413  1.0000
  C   C2757     1.0  0.44679  0.93094  0.60214  1.0000
  C   C2758     1.0  0.46309  0.92966  0.61395  1.0000
  C   C2759     1.0  0.47804  0.93005  0.59751  1.0000
  C   C2760     1.0  0.47661  0.93147  0.56947  1.0000
  H   H2194     1.0  0.43255  0.93298  0.56513  1.0000
  H   H2195     1.0  0.43516  0.93053  0.61458  1.0000
  H   H2196     1.0  0.49070  0.92908  0.60650  1.0000
  H   H2197     1.0  0.48812  0.93159  0.55700  1.0000
  C   C2761     1.0  0.44858  0.93215  0.86345  1.0000
  C   C2762     1.0  0.45327  0.91698  0.85542  1.0000
  C   C2763     1.0  0.45104  0.91111  0.82831  1.0000
  C   C2764     1.0  0.44406  0.92029  0.80899  1.0000
  C   C2765     1.0  0.43921  0.93535  0.81707  1.0000
  C   C2766     1.0  0.44154  0.94128  0.84414  1.0000
  H   H2198     1.0  0.45812  0.90945  0.87018  1.0000
  H   H2199     1.0  0.45458  0.89927  0.82230  1.0000
  H   H2200     1.0  0.43354  0.94234  0.80250  1.0000
  H   H2201     1.0  0.43764  0.95288  0.85019  1.0000
  H   H2202     1.0  0.58414  0.87905  0.57508  1.0000
  H   H2203     1.0  0.62990  0.87747  0.98174  1.0000
  C   C2767     1.0  0.60089  0.91324  0.96587  1.0000
  C   C2768     1.0  0.51561  0.93959  0.81964  1.0000
  C   C2769     1.0  0.51922  0.99852  0.55868  1.0000
  H   H2204     1.0  0.59296  0.77568  0.95495  1.0000
  H   H2205     1.0  0.61100  0.85281  0.52905  1.0000
  C   C2770     1.0  0.53477  0.96570  0.89195  1.0000
  H   H2206     1.0  0.34520  0.94155  0.74006  1.0000
  C   C2771     1.0  0.48821  0.99945  0.63725  1.0000
  C   C2772     1.0  0.51677  0.89800  0.85760  1.0000
  C   C2773     1.0  0.50312  0.95623  0.87143  1.0000
  C   C2774     1.0  0.56979  0.84126  0.61675  1.0000
  C   C2775     1.0  0.61912  0.77170  0.94813  1.0000
  C   C2776     1.0  0.55218  0.83016  0.60443  1.0000
  H   H2207     1.0  0.64794  0.81320  0.96195  1.0000
  C   C2777     1.0  0.49571  0.90902  0.88177  1.0000
  C   C2778     1.0  0.60887  0.76013  0.85529  1.0000
  C   C2779     1.0  0.35469  0.87039  0.57758  1.0000
  H   H2208     1.0  0.62522  0.81709  0.74957  1.0000
  H   H2209     1.0  0.63329  0.75683  0.62219  1.0000
  C   C2780     1.0  0.62865  0.90842  0.94968  1.0000
  C   C2781     1.0  0.54578  0.82722  0.51685  1.0000
  C   C2782     1.0  0.51448  0.89125  0.53444  1.0000
  C   C2783     1.0  0.59815  0.88804  0.49676  1.0000
  C   C2784     1.0  0.44886  0.99164  0.63399  1.0000
  C   C2785     1.0  0.45605  0.97997  0.62037  1.0000
  H   H2210     1.0  0.49191  0.94743  0.85754  1.0000
  H   H2211     1.0  0.34537  0.86026  0.56299  1.0000
  H   H2212     1.0  0.63666  0.86962  0.86990  1.0000
  C   C2786     1.0  0.53949  0.81284  0.49716  1.0000
  H   H2213     1.0  0.49088  0.92001  0.88742  1.0000
  H   H2214     1.0  0.53594  0.77087  0.81244  1.0000
  C   C2787     1.0  0.51752  0.98992  0.66558  1.0000
  H   H2215     1.0  0.55162  0.99058  0.71172  1.0000
  C   C2788     1.0  0.50367  0.97169  0.67069  1.0000
  C   C2789     1.0  0.33283  0.91824  0.76724  1.0000
  S   S380      1.0  0.45882  0.99824  0.71714  1.0000
  H   H2216     1.0  0.63474  0.82919  0.90681  1.0000
  C   C2790     1.0  0.55745  0.85418  0.57029  1.0000
  H   H2217     1.0  0.60095  0.77791  0.88203  1.0000
  C   C2791     1.0  0.63398  0.75250  0.55445  1.0000
  C   C2792     1.0  0.57554  0.89942  0.53046  1.0000
  P   P94       1.0  0.52437  0.93669  0.85254  1.0000
  H   H2218     1.0  0.53237  0.82768  0.57192  1.0000
  H   H2219     1.0  0.50000  0.87091  0.59477  1.0000
  H   H2220     1.0  0.49390  0.94755  0.75177  1.0000
  H   H2221     1.0  0.51233  0.86856  0.86347  1.0000
  H   H2222     1.0  0.58185  0.81853  0.51929  1.0000
  C   C2793     1.0  0.36621  0.84505  0.74830  1.0000
  C   C2794     1.0  0.38549  0.85452  0.74217  1.0000
  C   C2795     1.0  0.39626  0.87230  0.75385  1.0000
  C   C2796     1.0  0.38775  0.88078  0.77142  1.0000
  C   C2797     1.0  0.36826  0.87154  0.77742  1.0000
  C   C2798     1.0  0.35764  0.85344  0.76594  1.0000
  P   P95       1.0  0.35715  0.88314  0.79915  1.0000
  C   C2799     1.0  0.51438  0.96069  0.78391  1.0000
  C   C2800     1.0  0.37346  0.89392  0.82708  1.0000
  C   C2801     1.0  0.38547  0.88532  0.83727  1.0000
  C   C2802     1.0  0.39829  0.89385  0.85861  1.0000
  C   C2803     1.0  0.39900  0.91083  0.87020  1.0000
  C   C2804     1.0  0.38702  0.91940  0.86033  1.0000
  C   C2805     1.0  0.37424  0.91098  0.83887  1.0000
  C   C2806     1.0  0.56054  0.94634  0.83040  1.0000
  C   C2807     1.0  0.57955  0.94794  0.83098  1.0000
  H   H2223     1.0  0.38336  0.99154  0.50037  1.0000
  C   C2808     1.0  0.65694  0.87362  0.83861  1.0000
  C   C2809     1.0  0.63534  0.86326  0.50351  1.0000
  C   C2810     1.0  0.35330  0.90191  0.78097  1.0000
  C   C2811     1.0  0.36823  0.91510  0.76639  1.0000
  C   C2812     1.0  0.54928  0.94011  0.85308  1.0000
  C   C2813     1.0  0.47602  0.99863  0.88120  1.0000
  C   C2814     1.0  0.54919  0.94785  0.96258  1.0000
  S   S381      1.0  0.52303  0.98867  0.97541  1.0000
  H   H2224     1.0  0.35786  0.83120  0.73931  1.0000
  H   H2225     1.0  0.39213  0.84807  0.72845  1.0000
  H   H2226     1.0  0.41128  0.87957  0.74931  1.0000
  H   H2227     1.0  0.39656  0.89448  0.78044  1.0000
  C   C2815     1.0  0.46757  0.99427  0.90623  1.0000
  H   H2228     1.0  0.38514  0.87216  0.82856  1.0000
  H   H2229     1.0  0.40910  0.91750  0.88658  1.0000
  H   H2230     1.0  0.38788  0.93273  0.86912  1.0000
  H   H2231     1.0  0.36516  0.91789  0.83138  1.0000
  H   H2232     1.0  0.35437  0.89451  0.63513  1.0000
  C   C2816     1.0  0.63892  0.77363  0.98771  1.0000
  C   C2817     1.0  0.64225  0.75360  0.78285  1.0000
  H   H2233     1.0  0.54869  0.93041  0.89384  1.0000
  C   C2818     1.0  0.64238  0.77184  0.54803  1.0000
  H   H2234     1.0  0.38206  0.91426  0.76564  1.0000
  C   C2819     1.0  0.49496  0.00028  0.73289  1.0000
  H   H2235     1.0  0.37663  0.93899  0.73976  1.0000
  H   H2236     1.0  0.52719  0.97817  0.53765  1.0000
  C   C2820     1.0  0.52204  0.95786  0.80845  1.0000
  H   H2237     1.0  0.62448  0.79410  0.52444  1.0000
  H   H2238     1.0  0.59524  0.92813  0.52261  1.0000
  C   C2821     1.0  0.46826  0.98546  0.54149  1.0000
  C   C2822     1.0  0.63119  0.83818  0.81879  1.0000
  H   H2239     1.0  0.47401  0.97571  0.55010  1.0000
  C   C2823     1.0  0.52060  0.95411  0.87362  1.0000
  C   C2824     1.0  0.37956  0.89672  0.61458  1.0000
  C   C2825     1.0  0.57042  0.87993  0.52493  1.0000
  H   H2240     1.0  0.62162  0.80424  0.58583  1.0000
  H   H2241     1.0  0.65743  0.81452  0.89498  1.0000
  C   C2826     1.0  0.53496  0.99653  0.68031  1.0000
  H   H2242     1.0  0.54847  0.96460  0.89395  1.0000
  H   H2243     1.0  0.64727  0.79095  0.61105  1.0000
  H   H2244     1.0  0.54675  0.75862  0.88897  1.0000
  C   C2827     1.0  0.34713  0.87628  0.59964  1.0000
  H   H2245     1.0  0.53268  0.96998  0.81901  1.0000
  H   H2246     1.0  0.49368  0.89237  0.56224  1.0000
  H   H2247     1.0  0.61385  0.83825  0.85219  1.0000
  C   C2828     1.0  0.63549  0.80557  0.51417  1.0000
  C   C2829     1.0  0.52167  0.86710  0.57107  1.0000
  C   C2830     1.0  0.37453  0.87759  0.57414  1.0000
  H   H2248     1.0  0.43359  0.98818  0.63358  1.0000
  C   C2831     1.0  0.46282  0.98109  0.78251  1.0000
  C   C2832     1.0  0.52823  0.88386  0.52906  1.0000
  H   H2249     1.0  0.47491  0.88810  0.90618  1.0000
  C   C2833     1.0  0.54598  0.83658  0.58135  1.0000
  C   C2834     1.0  0.62519  0.83091  0.60434  1.0000
  H   H2250     1.0  0.58207  0.93287  0.89447  1.0000
  C   C2835     1.0  0.63702  0.80009  0.77221  1.0000
  C   C2836     1.0  0.53155  0.76628  0.73497  1.0000
  H   H2251     1.0  0.53096  0.76535  0.71329  1.0000
  C   C2837     1.0  0.53625  0.78511  0.77564  1.0000
  H   H2252     1.0  0.64566  0.77574  0.52737  1.0000
  C   C2838     1.0  0.47560  0.98373  0.62214  1.0000
  C   C2839     1.0  0.50127  0.92424  0.80605  1.0000
  H   H2253     1.0  0.53939  0.79874  0.78548  1.0000
  C   C2840     1.0  0.50794  0.87454  0.57644  1.0000
  C   C2841     1.0  0.47477  0.97465  0.79746  1.0000
  H   H2254     1.0  0.57256  0.87760  0.97422  1.0000
  H   H2255     1.0  0.54457  0.80138  0.49759  1.0000
  H   H2256     1.0  0.64606  0.76857  0.94765  1.0000
  C   C2842     1.0  0.50749  0.87980  0.86819  1.0000
  C   C2843     1.0  0.48643  0.89080  0.89231  1.0000
  C   C2844     1.0  0.63736  0.81315  0.75248  1.0000
  H   H2257     1.0  0.48560  0.96967  0.88725  1.0000
  C   C2845     1.0  0.53206  0.87182  0.54737  1.0000
  H   H2258     1.0  0.34218  0.86385  0.65446  1.0000
  C   C2846     1.0  0.60291  0.90741  0.50188  1.0000
  C   C2847     1.0  0.57506  0.86537  0.58298  1.0000
  H   H2259     1.0  0.40233  0.89622  0.59007  1.0000
  H   H2260     1.0  0.62829  0.87344  0.56765  1.0000
  H   H2261     1.0  0.48215  0.91537  0.77146  1.0000
  C   C2848     1.0  0.63561  0.87417  0.54908  1.0000
  C   C2849     1.0  0.50720  0.96026  0.69013  1.0000
  H   H2262     1.0  0.55576  0.82671  0.53224  1.0000
  C   C2850     1.0  0.53432  0.76916  0.79090  1.0000
  H   H2263     1.0  0.33798  0.88666  0.91683  1.0000
  C   C2851     1.0  0.56708  0.95205  0.95143  1.0000
  H   H2264     1.0  0.54361  0.81629  0.61245  1.0000
  H   H2265     1.0  0.38914  0.90686  0.62908  1.0000
  C   C2852     1.0  0.61065  0.77753  0.86666  1.0000
  C   C2853     1.0  0.60576  0.77490  0.96401  1.0000
  C   C2854     1.0  0.57227  0.92887  0.98045  1.0000
  C   C2855     1.0  0.53120  0.97883  0.90827  1.0000
  C   C2856     1.0  0.52492  0.98128  0.60549  1.0000
  H   H2266     1.0  0.49023  0.96608  0.65946  1.0000
  H   H2267     1.0  0.61079  0.82556  0.61179  1.0000
  C   C2857     1.0  0.33572  0.90397  0.78188  1.0000
  H   H2268     1.0  0.51912  0.97485  0.77558  1.0000
  C   C2858     1.0  0.46128  0.98272  0.51498  1.0000
  C   C2859     1.0  0.51114  0.91286  0.86464  1.0000
  H   H2269     1.0  0.48559  0.86229  0.89450  1.0000
  H   H2270     1.0  0.65320  0.83061  0.72037  1.0000
  C   C2860     1.0  0.36529  0.92938  0.75186  1.0000
  H   H2271     1.0  0.62433  0.79387  0.78403  1.0000
  H   H2272     1.0  0.44642  0.96770  0.60897  1.0000
  H   H2273     1.0  0.48075  0.97415  0.61195  1.0000
  C   C2861     1.0  0.34754  0.93080  0.75198  1.0000
  H   H2274     1.0  0.49654  0.94601  0.69337  1.0000
  C   C2862     1.0  0.65671  0.85644  0.91762  1.0000
  C   C2863     1.0  0.52439  0.96707  0.70505  1.0000
  H   H2275     1.0  0.38031  0.87296  0.55715  1.0000
  Fe  Fe192     1.0  0.59116  0.75575  0.68158  1.0000
  C   C2864     1.0  0.63748  0.84988  0.60936  1.0000
  P   P96       1.0  0.54966  0.86207  0.53984  1.0000
  H   H2276     1.0  0.32871  0.93452  0.60956  1.0000
  H   H2277     1.0  0.59254  0.94624  0.95175  1.0000
  C   C2865     1.0  0.61952  0.90268  0.92467  1.0000
  C   C2866     1.0  0.60121  0.90239  0.92009  1.0000
  C   C2867     1.0  0.59193  0.90763  0.94057  1.0000
  C   C2868     1.0  0.64650  0.78592  0.56819  1.0000
  S   S382      1.0  0.57064  0.79524  0.98891  1.0000
  H   H2278     1.0  0.55467  0.94966  0.81211  1.0000
  H   H2279     1.0  0.61673  0.76994  0.92665  1.0000
  C   C2869     1.0  0.64830  0.84797  0.80575  1.0000
  C   C2870     1.0  0.53969  0.84240  0.51613  1.0000
  H   H2280     1.0  0.52410  0.85774  0.58553  1.0000
  H   H2281     1.0  0.62126  0.82440  0.81123  1.0000
  C   C2871     1.0  0.58202  0.87435  0.50831  1.0000
  C   C2872     1.0  0.50015  0.94533  0.77049  1.0000
  H   H2282     1.0  0.58815  0.95259  0.81336  1.0000
  C   C2873     1.0  0.62697  0.84603  0.84183  1.0000
  C   C2874     1.0  0.58734  0.94317  0.85408  1.0000
  C   C2875     1.0  0.46851  0.00111  0.55640  1.0000
  H   H2283     1.0  0.41272  0.98507  0.50467  1.0000
  H   H2284     1.0  0.60196  0.94412  0.85435  1.0000
  C   C2876     1.0  0.51354  0.98049  0.90636  1.0000
  H   H2285     1.0  0.49559  0.91012  0.81452  1.0000
  H   H2286     1.0  0.64933  0.87924  0.71493  1.0000
  C   C2877     1.0  0.50435  0.88663  0.55814  1.0000
  H   H2287     1.0  0.42868  0.95459  0.49598  1.0000
  H   H2288     1.0  0.48938  0.98501  0.73005  1.0000
  H   H2289     1.0  0.62647  0.89799  0.90909  1.0000
  H   H2290     1.0  0.59384  0.89733  0.90096  1.0000
  H   H2291     1.0  0.57742  0.90655  0.93694  1.0000
  C   C2878     1.0  0.33297  0.86027  0.83820  1.0000
  H   H2292     1.0  0.33947  0.90903  0.59801  1.0000
  H   H2293     1.0  0.63267  0.85908  0.62100  1.0000
  H   H2294     1.0  0.47400  0.96030  0.79425  1.0000
  C   C2879     1.0  0.33469  0.86591  0.81129  1.0000
  C   C2880     1.0  0.65461  0.87550  0.50138  1.0000
  C   C2881     1.0  0.65031  0.82564  0.58077  1.0000
  H   H2295     1.0  0.59486  0.86742  0.61569  1.0000
  H   H2296     1.0  0.65174  0.84154  0.78842  1.0000
  C   C2882     1.0  0.35977  0.88959  0.61802  1.0000
  C   C2883     1.0  0.65492  0.88639  0.54706  1.0000
  H   H2297     1.0  0.53194  0.96262  0.57914  1.0000
  C   C2884     1.0  0.63551  0.76100  0.60141  1.0000
  C   C2885     1.0  0.58120  0.85888  0.60609  1.0000
  H   H2298     1.0  0.45312  0.97191  0.76738  1.0000
  H   H2299     1.0  0.63072  0.76294  0.74833  1.0000
  P   P97       1.0  0.65130  0.77655  0.79990  1.0000
  H   H2300     1.0  0.40793  0.88750  0.86597  1.0000
  C   C2886     1.0  0.52498  0.98330  0.55707  1.0000
  H   H2301     1.0  0.54027  0.95521  0.95592  1.0000
  H   H2302     1.0  0.50996  0.86242  0.98662  1.0000
  H   H2303     1.0  0.57470  0.83596  0.63430  1.0000
  C   C2887     1.0  0.55725  0.93543  0.87623  1.0000
  C   C2888     1.0  0.53511  0.78374  0.74771  1.0000
  C   C2889     1.0  0.63981  0.86374  0.85172  1.0000
  H   H2304     1.0  0.64790  0.80752  0.83124  1.0000
  C   C2890     1.0  0.49956  0.96915  0.88798  1.0000
  C   C2891     1.0  0.57619  0.93690  0.87670  1.0000
  H   H2305     1.0  0.62561  0.80802  0.86618  1.0000
  C   C2892     1.0  0.64991  0.83752  0.90844  1.0000
  C   C2893     1.0  0.54272  0.93405  0.98236  1.0000
  H   H2306     1.0  0.33298  0.84143  0.69150  1.0000
  C   C2894     1.0  0.62118  0.75970  0.83512  1.0000
  H   H2307     1.0  0.34504  0.86598  0.85217  1.0000
  H   H2308     1.0  0.53589  0.88760  0.51057  1.0000
  C   C2895     1.0  0.64342  0.78035  0.59500  1.0000
  S   S383      1.0  0.49707  0.89280  0.98000  1.0000
  H   H2309     1.0  0.65105  0.86919  0.76131  1.0000
  H   H2310     1.0  0.45469  0.98146  0.90856  1.0000
  C   C2896     1.0  0.63538  0.77673  0.82619  1.0000
  C   C2897     1.0  0.62461  0.79453  0.85775  1.0000
  H   H2311     1.0  0.49639  0.98129  0.82856  1.0000
  C   C2898     1.0  0.65264  0.79476  0.77596  1.0000
  H   H2312     1.0  0.57206  0.96272  0.93605  1.0000
  C   C2899     1.0  0.53825  0.98524  0.70020  1.0000
  H   H2313     1.0  0.51167  0.90053  0.52009  1.0000
  H   H2314     1.0  0.53750  0.79634  0.73595  1.0000
  C   C2900     1.0  0.63704  0.79418  0.83775  1.0000
  H   H2315     1.0  0.52691  0.97413  0.62324  1.0000
  H   H2316     1.0  0.64275  0.90829  0.95323  1.0000
  C   C2901     1.0  0.48751  0.98663  0.81671  1.0000
  H   H2317     1.0  0.54187  0.98746  0.92293  1.0000
  C   C2902     1.0  0.65322  0.81624  0.52680  1.0000
  C   C2903     1.0  0.57860  0.94263  0.96032  1.0000
  C   C2904     1.0  0.51914  0.99664  0.60726  1.0000
  H   H2318     1.0  0.61524  0.91802  0.49258  1.0000
  H   H2319     1.0  0.46236  0.97122  0.50329  1.0000
  H   H2320     1.0  0.51050  0.99021  0.91960  1.0000
  H   H2321     1.0  0.55358  0.75371  0.84223  1.0000
  H   H2322     1.0  0.57853  0.85943  0.50401  1.0000
  C   C2905     1.0  0.52776  0.97463  0.58046  1.0000
  C   C2906     1.0  0.65312  0.82081  0.73606  1.0000
  C   C2907     1.0  0.46361  0.99951  0.78672  1.0000
  H   H2323     1.0  0.46920  0.98915  0.86445  1.0000
  S   S384      1.0  0.65768  0.80717  0.66746  1.0000
  P   P98       1.0  0.65835  0.81086  0.56041  1.0000
  C   C2908     1.0  0.61936  0.91356  0.97030  1.0000
  C   C2909     1.0  0.52712  0.84287  0.49536  1.0000
  H   H2324     1.0  0.52865  0.93048  0.99054  1.0000
  H   H2325     1.0  0.52263  0.85462  0.49359  1.0000
  C   C2910     1.0  0.32812  0.85248  0.65371  1.0000
  C   C2911     1.0  0.55412  0.92449  0.99118  1.0000
  H   H2326     1.0  0.62655  0.91741  0.98966  1.0000
  C   C2912     1.0  0.32726  0.90620  0.93452  1.0000
  C   C2913     1.0  0.60896  0.77748  0.99168  1.0000
  Fe  Fe193     1.0  0.74427  0.19414  0.30062  1.0000
  S   S385      1.0  0.76071  0.22586  0.29451  1.0000
  S   S386      1.0  0.71169  0.18515  0.30093  1.0000
  Fe  Fe194     1.0  0.78157  0.18804  0.30924  1.0000
  S   S387      1.0  0.79947  0.21870  0.30347  1.0000
  S   S388      1.0  0.79828  0.16953  0.31672  1.0000
  Fe  Fe195     1.0  0.77886  0.22421  0.32997  1.0000
  C   C2914     1.0  0.86566  0.20719  0.23839  1.0000
  Fe  Fe196     1.0  0.77976  0.21707  0.26848  1.0000
  H   H2327     1.0  0.83843  0.14256  0.02178  1.0000
  S   S389      1.0  0.76154  0.19332  0.33777  1.0000
  S   S390      1.0  0.76260  0.18556  0.27273  1.0000
  Fe  Fe197     1.0  0.90631  0.15631  0.31528  1.0000
  S   S391      1.0  0.92432  0.18786  0.31671  1.0000
  S   S392      1.0  0.88792  0.13801  0.28065  1.0000
  Fe  Fe198     1.0  0.90580  0.15389  0.37795  1.0000
  S   S393      1.0  0.92300  0.18538  0.38316  1.0000
  S   S394      1.0  0.88963  0.13175  0.40861  1.0000
  Fe  Fe199     1.0  0.90435  0.18867  0.34908  1.0000
  S   S395      1.0  0.88747  0.20764  0.34862  1.0000
  Fe  Fe200     1.0  0.94142  0.18149  0.35038  1.0000
  S   S396      1.0  0.97385  0.18847  0.35397  1.0000
  S   S397      1.0  0.88627  0.15767  0.34660  1.0000
  S   S398      1.0  0.92442  0.14952  0.34650  1.0000
  S   S399      1.0  0.81114  0.23669  0.05855  1.0000
  S   S400      1.0  0.86161  0.23882  0.07543  1.0000
  Fe  Fe201     1.0  0.84483  0.09404  0.09216  1.0000
  S   S401      1.0  0.87703  0.10846  0.08735  1.0000
  S   S402      1.0  0.83343  0.06120  0.08803  1.0000
  Fe  Fe202     1.0  0.84211  0.13296  0.10048  1.0000
  S   S403      1.0  0.87363  0.14882  0.09768  1.0000
  S   S404      1.0  0.82432  0.15077  0.10567  1.0000
  Fe  Fe203     1.0  0.87113  0.12998  0.06191  1.0000
  S   S405      1.0  0.88488  0.14918  0.02680  1.0000
  Fe  Fe204     1.0  0.87657  0.12615  0.12336  1.0000
  S   S406      1.0  0.90056  0.13521  0.15529  1.0000
  S   S407      1.0  0.83913  0.11451  0.06395  1.0000
  S   S408      1.0  0.84491  0.11122  0.12926  1.0000
  C   C2915     1.0  0.85002  0.21400  0.08133  1.0000
  C   C2916     1.0  0.83298  0.20656  0.09541  1.0000
  C   C2917     1.0  0.82508  0.18713  0.10224  1.0000
  C   C2918     1.0  0.83400  0.17487  0.09498  1.0000
  C   C2919     1.0  0.85057  0.18215  0.07983  1.0000
  C   C2920     1.0  0.85863  0.20164  0.07327  1.0000
  H   H2328     1.0  0.82618  0.21589  0.10182  1.0000
  H   H2329     1.0  0.81217  0.18167  0.11362  1.0000
  H   H2330     1.0  0.85736  0.17286  0.07339  1.0000
  H   H2331     1.0  0.87174  0.20717  0.06223  1.0000
  H   H2332     1.0  0.84842  0.24836  0.39021  1.0000
  C   C2921     1.0  0.89169  0.13862  0.24572  1.0000
  C   C2922     1.0  0.90953  0.14897  0.23477  1.0000
  C   C2923     1.0  0.91203  0.14783  0.20701  1.0000
  C   C2924     1.0  0.89666  0.13669  0.18993  1.0000
  C   C2925     1.0  0.87875  0.12663  0.20086  1.0000
  C   C2926     1.0  0.87634  0.12754  0.22863  1.0000
  H   H2333     1.0  0.92148  0.15749  0.24773  1.0000
  H   H2334     1.0  0.92595  0.15562  0.19871  1.0000
  H   H2335     1.0  0.86688  0.11794  0.18794  1.0000
  H   H2336     1.0  0.86250  0.11962  0.23696  1.0000
  C   C2927     1.0  0.89201  0.13366  0.44393  1.0000
  C   C2928     1.0  0.90810  0.14729  0.45695  1.0000
  H   H2337     1.0  0.82315  0.17252  0.38181  1.0000
  C   C2929     1.0  0.77402  0.18060  0.08221  1.0000
  H   H2338     1.0  0.79499  0.02070  0.17911  1.0000
  C   C2930     1.0  0.87764  0.12044  0.45928  1.0000
  H   H2339     1.0  0.91925  0.15750  0.44532  1.0000
  C   C2931     1.0  0.79272  0.23495  0.19845  1.0000
  C   C2932     1.0  0.68323  0.20217  0.34835  1.0000
  H   H2340     1.0  0.86523  0.10975  0.44932  1.0000
  C   C2933     1.0  0.67020  0.16310  0.44193  1.0000
  C   C2934     1.0  0.78338  0.00504  0.11181  1.0000
  C   C2935     1.0  0.78697  0.23691  0.45274  1.0000
  C   C2936     1.0  0.74479  0.09635  0.46064  1.0000
  C   C2937     1.0  0.82779  0.20527  0.01158  1.0000
  H   H2341     1.0  0.66986  0.11183  0.15472  1.0000
  C   C2938     1.0  0.77772  0.22516  0.40675  1.0000
  C   C2939     1.0  0.77571  0.22253  0.43455  1.0000
  H   H2342     1.0  0.76879  0.21408  0.39301  1.0000
  H   H2343     1.0  0.76528  0.20933  0.44195  1.0000
  C   C2940     1.0  0.82320  0.18088  0.32434  1.0000
  C   C2941     1.0  0.83119  0.19872  0.33736  1.0000
  C   C2942     1.0  0.85082  0.20668  0.34486  1.0000
  C   C2943     1.0  0.86276  0.19713  0.33894  1.0000
  C   C2944     1.0  0.85481  0.17958  0.32522  1.0000
  C   C2945     1.0  0.83514  0.17138  0.31836  1.0000
  H   H2344     1.0  0.82220  0.20618  0.34229  1.0000
  H   H2345     1.0  0.85672  0.22019  0.35552  1.0000
  H   H2346     1.0  0.86379  0.17234  0.31945  1.0000
  H   H2347     1.0  0.82920  0.15767  0.30817  1.0000
  H   H2348     1.0  0.84849  0.23595  0.31440  1.0000
  C   C2946     1.0  0.81604  0.02236  0.09690  1.0000
  C   C2947     1.0  0.81390  0.03990  0.09780  1.0000
  C   C2948     1.0  0.79632  0.03983  0.10573  1.0000
  C   C2949     1.0  0.78126  0.02259  0.11279  1.0000
  H   H2349     1.0  0.82947  0.02210  0.09063  1.0000
  H   H2350     1.0  0.79413  0.05298  0.10575  1.0000
  C   C2950     1.0  0.91004  0.14723  0.48509  1.0000
  H   H2351     1.0  0.85175  0.01684  0.36063  1.0000
  C   C2951     1.0  0.67845  0.13055  0.27605  1.0000
  C   C2952     1.0  0.69457  0.14725  0.28318  1.0000
  C   C2953     1.0  0.69230  0.16415  0.28921  1.0000
  C   C2954     1.0  0.67381  0.16423  0.28728  1.0000
  H   H2352     1.0  0.78081  0.18976  0.19383  1.0000
  H   H2353     1.0  0.68036  0.11751  0.27174  1.0000
  H   H2354     1.0  0.70868  0.14696  0.28443  1.0000
  H   H2355     1.0  0.67196  0.17732  0.29133  1.0000
  C   C2955     1.0  0.68960  0.07893  0.15453  1.0000
  C   C2956     1.0  0.81765  0.17742  0.17685  1.0000
  C   C2957     1.0  0.89230  0.06788  0.26331  1.0000
  C   C2958     1.0  0.90091  0.08541  0.25067  1.0000
  C   C2959     1.0  0.90775  0.10228  0.26585  1.0000
  C   C2960     1.0  0.90596  0.10170  0.29366  1.0000
  C   C2961     1.0  0.89741  0.08416  0.30662  1.0000
  C   C2962     1.0  0.89058  0.06722  0.29117  1.0000
  P   P99       1.0  0.89465  0.08361  0.34259  1.0000
  C   C2963     1.0  0.88936  0.05977  0.35443  1.0000
  C   C2964     1.0  0.91655  0.09970  0.35911  1.0000
  C   C2965     1.0  0.93424  0.10516  0.34650  1.0000
  C   C2966     1.0  0.95095  0.11824  0.35904  1.0000
  C   C2967     1.0  0.95019  0.12573  0.38438  1.0000
  C   C2968     1.0  0.93277  0.11986  0.39741  1.0000
  C   C2969     1.0  0.91607  0.10680  0.38494  1.0000
  C   C2970     1.0  0.90399  0.05476  0.36502  1.0000
  C   C2971     1.0  0.87050  0.04594  0.35273  1.0000
  C   C2972     1.0  0.87531  0.09063  0.35133  1.0000
  C   C2973     1.0  0.86993  0.10243  0.33447  1.0000
  C   C2974     1.0  0.85540  0.10830  0.34167  1.0000
  C   C2975     1.0  0.84617  0.10252  0.36589  1.0000
  C   C2976     1.0  0.85136  0.09072  0.38282  1.0000
  C   C2977     1.0  0.86587  0.08480  0.37561  1.0000
  H   H2356     1.0  0.88690  0.05480  0.25148  1.0000
  H   H2357     1.0  0.90229  0.08597  0.22911  1.0000
  H   H2358     1.0  0.91427  0.11591  0.25607  1.0000
  H   H2359     1.0  0.91105  0.11500  0.30500  1.0000
  H   H2360     1.0  0.88383  0.05348  0.30043  1.0000
  H   H2361     1.0  0.93517  0.09954  0.32690  1.0000
  H   H2362     1.0  0.96303  0.13623  0.39379  1.0000
  H   H2363     1.0  0.81966  0.23568  0.18465  1.0000
  H   H2364     1.0  0.87190  0.23689  0.13397  1.0000
  H   H2365     1.0  0.90278  0.10258  0.39543  1.0000
  H   H2366     1.0  0.91866  0.06509  0.36639  1.0000
  H   H2367     1.0  0.85902  0.04945  0.34445  1.0000
  H   H2368     1.0  0.87702  0.10739  0.31590  1.0000
  H   H2369     1.0  0.85175  0.11782  0.32873  1.0000
  H   H2370     1.0  0.83531  0.10753  0.37181  1.0000
  H   H2371     1.0  0.84462  0.08668  0.40197  1.0000
  H   H2372     1.0  0.87009  0.07616  0.38941  1.0000
  H   H2373     1.0  0.76512  0.23543  0.20574  1.0000
  C   C2978     1.0  0.68966  0.14638  0.35481  1.0000
  C   C2979     1.0  0.70551  0.14174  0.35122  1.0000
  C   C2980     1.0  0.72133  0.14907  0.36890  1.0000
  C   C2981     1.0  0.72128  0.16100  0.39024  1.0000
  C   C2982     1.0  0.70528  0.16553  0.39411  1.0000
  C   C2983     1.0  0.68961  0.15835  0.37606  1.0000
  P   P100      1.0  0.70615  0.18263  0.41973  1.0000
  C   C2984     1.0  0.68196  0.17942  0.42817  1.0000
  C   C2985     1.0  0.71707  0.17745  0.44966  1.0000
  C   C2986     1.0  0.80955  0.13595  0.44642  1.0000
  H   H2374     1.0  0.71436  0.22097  0.44194  1.0000
  H   H2375     1.0  0.66395  0.17353  0.33893  1.0000
  C   C2987     1.0  0.87934  0.12069  0.48742  1.0000
  C   C2988     1.0  0.67047  0.09792  0.15569  1.0000
  H   H2376     1.0  0.70094  0.10943  0.14996  1.0000
  C   C2989     1.0  0.71955  0.20645  0.40750  1.0000
  H   H2377     1.0  0.87769  0.00828  0.37964  1.0000
  C   C2990     1.0  0.66905  0.22319  0.36540  1.0000
  H   H2378     1.0  0.85410  0.22893  0.02218  1.0000
  H   H2379     1.0  0.73386  0.14595  0.36554  1.0000
  H   H2380     1.0  0.73394  0.16718  0.40315  1.0000
  H   H2381     1.0  0.83103  0.24055  0.45917  1.0000
  C   C2991     1.0  0.83188  0.12865  0.47502  1.0000
  C   C2992     1.0  0.80097  0.00509  0.10395  1.0000
  H   H2382     1.0  0.73351  0.20695  0.46193  1.0000
  C   C2993     1.0  0.91222  0.23621  0.40507  1.0000
  H   H2383     1.0  0.77852  0.15516  0.09201  1.0000
  C   C2994     1.0  0.88467  0.19042  0.27142  1.0000
  C   C2995     1.0  0.87279  0.17988  0.25038  1.0000
  C   C2996     1.0  0.86277  0.18802  0.23419  1.0000
  H   H2384     1.0  0.89617  0.21734  0.29267  1.0000
  P   P101      1.0  0.84808  0.17466  0.20634  1.0000
  C   C2997     1.0  0.82708  0.17988  0.20196  1.0000
  C   C2998     1.0  0.86381  0.18060  0.17833  1.0000
  C   C2999     1.0  0.87809  0.17331  0.17713  1.0000
  C   C3000     1.0  0.89122  0.17859  0.15652  1.0000
  C   C3001     1.0  0.89024  0.19121  0.13698  1.0000
  C   C3002     1.0  0.87641  0.19893  0.13845  1.0000
  C   C3003     1.0  0.86333  0.19384  0.15917  1.0000
  C   C3004     1.0  0.81894  0.18466  0.22433  1.0000
  C   C3005     1.0  0.83852  0.14957  0.21350  1.0000
  C   C3006     1.0  0.83154  0.14333  0.23906  1.0000
  C   C3007     1.0  0.82324  0.12384  0.24450  1.0000
  C   C3008     1.0  0.82156  0.11047  0.22436  1.0000
  C   C3009     1.0  0.82823  0.11659  0.19880  1.0000
  C   C3010     1.0  0.83657  0.13607  0.19327  1.0000
  H   H2385     1.0  0.87144  0.16536  0.24693  1.0000
  H   H2386     1.0  0.87915  0.16365  0.19227  1.0000
  H   H2387     1.0  0.90208  0.17275  0.15552  1.0000
  H   H2388     1.0  0.90009  0.19486  0.12058  1.0000
  H   H2389     1.0  0.87571  0.20869  0.12326  1.0000
  H   H2390     1.0  0.85299  0.20031  0.16010  1.0000
  H   H2391     1.0  0.82527  0.18557  0.24422  1.0000
  H   H2392     1.0  0.82296  0.17248  0.15964  1.0000
  H   H2393     1.0  0.81505  0.09538  0.22854  1.0000
  H   H2394     1.0  0.82698  0.10627  0.18320  1.0000
  H   H2395     1.0  0.84132  0.14056  0.17318  1.0000
  H   H2396     1.0  0.85531  0.23068  0.43907  1.0000
  H   H2397     1.0  0.74639  0.22939  0.35462  1.0000
  C   C3011     1.0  0.76263  0.13065  0.45871  1.0000
  H   H2398     1.0  0.74639  0.14662  0.44422  1.0000
  H   H2399     1.0  0.83458  0.22012  0.27106  1.0000
  H   H2400     1.0  0.81462  0.11000  0.01011  1.0000
  H   H2401     1.0  0.84236  0.12242  0.47779  1.0000
  H   H2402     1.0  0.78877  0.15092  0.04728  1.0000
  H   H2403     1.0  0.69570  0.19986  0.34198  1.0000
  H   H2404     1.0  0.76100  0.24582  0.15964  1.0000
  C   C3012     1.0  0.79089  0.24230  0.39686  1.0000
  H   H2405     1.0  0.76969  0.18256  0.10215  1.0000
  H   H2406     1.0  0.83910  0.23903  0.23002  1.0000
  C   C3013     1.0  0.97236  0.15618  0.03169  1.0000
  C   C3014     1.0  0.87044  0.06389  0.13279  1.0000
  C   C3015     1.0  0.88609  0.07967  0.14274  1.0000
  C   C3016     1.0  0.88609  0.08617  0.16891  1.0000
  C   C3017     1.0  0.87033  0.07715  0.18502  1.0000
  C   C3018     1.0  0.85446  0.06133  0.17512  1.0000
  C   C3019     1.0  0.85473  0.05472  0.14891  1.0000
  P   P102      1.0  0.83325  0.05009  0.19465  1.0000
  C   C3020     1.0  0.82445  0.02467  0.18828  1.0000
  C   C3021     1.0  0.83855  0.05548  0.22998  1.0000
  C   C3022     1.0  0.83726  0.04114  0.24832  1.0000
  C   C3023     1.0  0.84060  0.04550  0.27571  1.0000
  C   C3024     1.0  0.84531  0.06417  0.28496  1.0000
  C   C3025     1.0  0.84667  0.07852  0.26686  1.0000
  C   C3026     1.0  0.84302  0.07414  0.23956  1.0000
  H   H2407     1.0  0.85947  0.16498  0.47884  1.0000
  H   H2408     1.0  0.88931  0.24267  0.47091  1.0000
  H   H2409     1.0  0.67758  0.16238  0.37798  1.0000
  C   C3027     1.0  0.87759  0.24506  0.17574  1.0000
  H   H2410     1.0  0.67766  0.14117  0.34055  1.0000
  C   C3028     1.0  0.81519  0.05892  0.18517  1.0000
  C   C3029     1.0  0.81577  0.06787  0.16055  1.0000
  C   C3030     1.0  0.80174  0.07476  0.15365  1.0000
  C   C3031     1.0  0.78694  0.07257  0.17110  1.0000
  C   C3032     1.0  0.78611  0.06344  0.19551  1.0000
  C   C3033     1.0  0.80018  0.05664  0.20255  1.0000
  H   H2411     1.0  0.87016  0.05907  0.11226  1.0000
  H   H2412     1.0  0.89804  0.08711  0.13001  1.0000
  H   H2413     1.0  0.89814  0.09860  0.17643  1.0000
  H   H2414     1.0  0.87068  0.08284  0.20490  1.0000
  H   H2415     1.0  0.84253  0.04281  0.14055  1.0000
  H   H2416     1.0  0.83340  0.02653  0.24172  1.0000
  H   H2417     1.0  0.83945  0.03434  0.28977  1.0000
  H   H2418     1.0  0.84791  0.06753  0.30614  1.0000
  H   H2419     1.0  0.85059  0.09309  0.27397  1.0000
  H   H2420     1.0  0.84382  0.08534  0.22579  1.0000
  C   C3034     1.0  0.81980  0.15635  0.00933  1.0000
  S   S409      1.0  0.79740  0.22926  0.23155  1.0000
  H   H2421     1.0  0.78088  0.18850  0.47822  1.0000
  C   C3035     1.0  0.97124  0.18660  0.45149  1.0000
  H   H2422     1.0  0.85224  0.02345  0.19454  1.0000
  H   H2423     1.0  0.82690  0.06946  0.14647  1.0000
  H   H2424     1.0  0.80233  0.08170  0.13460  1.0000
  H   H2425     1.0  0.77605  0.07784  0.16556  1.0000
  H   H2426     1.0  0.77450  0.06154  0.20890  1.0000
  H   H2427     1.0  0.79924  0.04942  0.22142  1.0000
  C   C3036     1.0  0.78332  0.17052  0.38760  1.0000
  C   C3037     1.0  0.79444  0.19004  0.39014  1.0000
  C   C3038     1.0  0.80317  0.19773  0.41476  1.0000
  C   C3039     1.0  0.80059  0.18593  0.43693  1.0000
  C   C3040     1.0  0.78840  0.16659  0.43513  1.0000
  C   C3041     1.0  0.78038  0.15879  0.40994  1.0000
  H   H2428     1.0  0.76773  0.02279  0.11868  1.0000
  C   C3042     1.0  0.72925  0.19210  0.46675  1.0000
  H   H2429     1.0  0.98403  0.23002  0.35731  1.0000
  H   H2430     1.0  0.83481  0.14718  0.37220  1.0000
  C   C3043     1.0  0.88708  0.20931  0.27608  1.0000
  C   C3044     1.0  0.77606  0.23759  0.19115  1.0000
  H   H2431     1.0  0.82740  0.12173  0.43295  1.0000
  H   H2432     1.0  0.93202  0.12574  0.41698  1.0000
  C   C3045     1.0  0.74157  0.24335  0.38955  1.0000
  C   C3046     1.0  0.84138  0.15734  0.38838  1.0000
  C   C3047     1.0  0.85097  0.24427  0.29637  1.0000
  H   H2433     1.0  0.77715  0.16450  0.36818  1.0000
  H   H2434     1.0  0.79651  0.19919  0.37294  1.0000
  H   H2435     1.0  0.81195  0.21285  0.41660  1.0000
  C   C3048     1.0  0.74608  0.13261  0.44871  1.0000
  H   H2436     1.0  0.77197  0.14367  0.40732  1.0000
  C   C3049     1.0  0.88134  0.19342  0.48151  1.0000
  C   C3050     1.0  0.77887  0.16516  0.07645  1.0000
  H   H2437     1.0  0.95590  0.17907  0.44830  1.0000
  H   H2438     1.0  0.78293  0.20252  0.02202  1.0000
  C   C3051     1.0  0.80111  0.18118  0.17385  1.0000
  C   C3052     1.0  0.87769  0.21775  0.25945  1.0000
  H   H2439     1.0  0.74425  0.08231  0.46547  1.0000
  C   C3053     1.0  0.79350  0.18663  0.19607  1.0000
  H   H2440     1.0  0.71535  0.08588  0.44670  1.0000
  H   H2441     1.0  0.70360  0.14677  0.44377  1.0000
  H   H2442     1.0  0.67434  0.04876  0.16015  1.0000
  H   H2443     1.0  0.83908  0.19669  0.41687  1.0000
  H   H2444     1.0  0.80799  0.19189  0.45554  1.0000
  C   C3054     1.0  0.84384  0.18528  0.41386  1.0000
  C   C3055     1.0  0.83484  0.17166  0.39378  1.0000
  H   H2445     1.0  0.80273  0.13505  0.42690  1.0000
  H   H2446     1.0  0.69925  0.23174  0.35860  1.0000
  H   H2447     1.0  0.97546  0.20004  0.41295  1.0000
  C   C3056     1.0  0.72832  0.20911  0.38247  1.0000
  H   H2448     1.0  0.87965  0.23241  0.26306  1.0000
  H   H2449     1.0  0.87805  0.16939  0.43431  1.0000
  H   H2450     1.0  0.71611  0.13937  0.48634  1.0000
  C   C3057     1.0  0.77381  0.24356  0.16505  1.0000
  C   C3058     1.0  0.71977  0.15409  0.48079  1.0000
  C   C3059     1.0  0.84837  0.22392  0.45716  1.0000
  C   C3060     1.0  0.85309  0.20970  0.46933  1.0000
  C   C3061     1.0  0.78147  0.19177  0.03687  1.0000
  P   P103      1.0  0.87079  0.20239  0.45488  1.0000
  C   C3062     1.0  0.85917  0.18444  0.42923  1.0000
  C   C3063     1.0  0.88929  0.22268  0.44009  1.0000
  H   H2451     1.0  0.97138  0.17553  0.49102  1.0000
  H   H2452     1.0  0.79411  0.17974  0.15436  1.0000
  S   S410      1.0  0.78261  0.23354  0.48737  1.0000
  H   H2453     1.0  0.82501  0.20076  0.03216  1.0000
  C   C3064     1.0  0.89790  0.22048  0.41647  1.0000
  C   C3065     1.0  0.85680  0.15653  0.40327  1.0000
  C   C3066     1.0  0.86579  0.17006  0.42352  1.0000
  C   C3067     1.0  0.65992  0.13056  0.27459  1.0000
  H   H2454     1.0  0.91108  0.03248  0.38241  1.0000
  H   H2455     1.0  0.70339  0.07800  0.15258  1.0000
  C   C3068     1.0  0.72849  0.09838  0.45014  1.0000
  H   H2456     1.0  0.88741  0.11540  0.00186  1.0000
  C   C3069     1.0  0.80684  0.23791  0.17926  1.0000
  C   C3070     1.0  0.82456  0.14058  0.01296  1.0000
  C   C3071     1.0  0.67322  0.06247  0.15877  1.0000
  C   C3072     1.0  0.78604  0.17612  0.03070  1.0000
  C   C3073     1.0  0.83462  0.22951  0.46835  1.0000
  C   C3074     1.0  0.78806  0.24672  0.14596  1.0000
  H   H2457     1.0  0.89178  0.18375  0.28430  1.0000
  H   H2458     1.0  0.86198  0.14557  0.39873  1.0000
  H   H2459     1.0  0.91864  0.23432  0.38668  1.0000
  C   C3075     1.0  0.86953  0.24500  0.15033  1.0000
  C   C3076     1.0  0.68821  0.09664  0.15301  1.0000
  C   C3077     1.0  0.80223  0.18798  0.22134  1.0000
  H   H2460     1.0  0.79611  0.19176  0.23869  1.0000
  C   C3078     1.0  0.89976  0.03625  0.37408  1.0000
  H   H2461     1.0  0.85854  0.21388  0.22550  1.0000
  H   H2462     1.0  0.83242  0.15352  0.25476  1.0000
  H   H2463     1.0  0.81800  0.11918  0.26431  1.0000
  C   C3079     1.0  0.83720  0.01544  0.18969  1.0000
  C   C3080     1.0  0.86633  0.02744  0.36180  1.0000
  H   H2464     1.0  0.77421  0.11053  0.47338  1.0000
  C   C3081     1.0  0.71270  0.15838  0.45670  1.0000
  C   C3082     1.0  0.78480  0.16286  0.05085  1.0000
  H   H2465     1.0  0.77167  0.20596  0.06694  1.0000
  C   C3083     1.0  0.72913  0.11651  0.44419  1.0000
  C   C3084     1.0  0.73923  0.22748  0.37359  1.0000
  C   C3085     1.0  0.68520  0.22016  0.35761  1.0000
  H   H2466     1.0  0.89360  0.20664  0.40674  1.0000
  H   H2467     1.0  0.72701  0.19716  0.36965  1.0000
  C   C3086     1.0  0.82337  0.12822  0.44980  1.0000
  C   C3087     1.0  0.98000  0.18456  0.47551  1.0000
  C   C3088     1.0  0.77517  0.19381  0.06236  1.0000
  C   C3089     1.0  0.72133  0.22257  0.42289  1.0000
  H   H2468     1.0  0.70571  0.13289  0.33429  1.0000
  C   C3090     1.0  0.76181  0.11242  0.46499  1.0000
  H   H2469     1.0  0.67514  0.15206  0.44713  1.0000
  H   H2470     1.0  0.94925  0.13774  0.05566  1.0000
  C   C3091     1.0  0.80450  0.24366  0.15313  1.0000
  S   S411      1.0  0.79263  0.24708  0.36213  1.0000
  H   H2471     1.0  0.97981  0.21168  0.30057  1.0000
  H   H2472     1.0  0.82999  0.17023  0.01601  1.0000
  C   C3092     1.0  0.84314  0.23535  0.27190  1.0000
  H   H2473     1.0  0.68302  0.20554  0.40998  1.0000
  P   P104      1.0  0.78438  0.15160  0.46431  1.0000
  C   C3093     1.0  0.67459  0.19307  0.42110  1.0000
  C   C3094     1.0  0.81126  0.12229  0.00617  1.0000
  H   H2474     1.0  0.90516  0.22031  0.49043  1.0000
  C   C3095     1.0  0.89543  0.24080  0.45233  1.0000
  C   C3096     1.0  0.88095  0.02260  0.37251  1.0000
  C   C3097     1.0  0.79339  0.11978  0.99502  1.0000
  C   C3098     1.0  0.73248  0.24091  0.41408  1.0000
  C   C3099     1.0  0.80511  0.01400  0.18129  1.0000
  C   C3100     1.0  0.82532  0.22075  0.49144  1.0000
  C   C3101     1.0  0.80432  0.14440  0.46823  1.0000
  H   H2475     1.0  0.96447  0.12285  0.34893  1.0000
  C   C3102     1.0  0.80177  0.15393  0.99839  1.0000
  H   H2476     1.0  0.75752  0.17880  0.99573  1.0000
  C   C3103     1.0  0.98224  0.19844  0.43161  1.0000
  P   P105      1.0  0.79443  0.17372  0.99773  1.0000
  C   C3104     1.0  0.94365  0.15631  0.99587  1.0000
  C   C3105     1.0  0.66515  0.18723  0.34674  1.0000
  H   H2477     1.0  0.71649  0.11806  0.43607  1.0000
  H   H2478     1.0  0.67058  0.23719  0.37243  1.0000
  C   C3106     1.0  0.84436  0.22124  0.00606  1.0000
  C   C3107     1.0  0.84582  0.24612  0.24866  1.0000
  H   H2479     1.0  0.92381  0.13804  0.02395  1.0000
  C   C3108     1.0  0.87222  0.17443  0.48941  1.0000
  H   H2480     1.0  0.81540  0.24576  0.13852  1.0000
  H   H2481     1.0  0.98346  0.15605  0.04560  1.0000
  H   H2482     1.0  0.88618  0.23679  0.17923  1.0000
  C   C3109     1.0  0.73635  0.18776  0.49075  1.0000
  H   H2483     1.0  0.83593  0.07592  0.99985  1.0000
  C   C3110     1.0  0.84315  0.20053  0.49201  1.0000
  C   C3111     1.0  0.95311  0.14582  0.03737  1.0000
  H   H2484     1.0  0.85231  0.11098  0.00537  1.0000
  C   C3112     1.0  0.93877  0.14592  0.01947  1.0000
  C   C3113     1.0  0.89029  0.14412  0.99415  1.0000
  H   H2485     1.0  0.94652  0.19278  0.99877  1.0000
  C   C3114     1.0  0.97730  0.16677  0.00820  1.0000
  H   H2486     1.0  0.99227  0.17484  0.00444  1.0000
  H   H2487     1.0  0.92666  0.21135  0.99397  1.0000
  Fe  Fe205     1.0  0.74039  0.19160  0.79321  1.0000
  S   S412      1.0  0.75637  0.22363  0.79216  1.0000
  S   S413      1.0  0.70822  0.18376  0.78588  1.0000
  Fe  Fe206     1.0  0.77733  0.18618  0.80863  1.0000
  S   S414      1.0  0.79475  0.21752  0.80861  1.0000
  S   S415      1.0  0.79218  0.16605  0.81901  1.0000
  Fe  Fe207     1.0  0.77082  0.22054  0.83061  1.0000
  H   H2488     1.0  0.78070  0.20683  0.94376  1.0000
  Fe  Fe208     1.0  0.77892  0.21771  0.77017  1.0000
  C   C3115     1.0  0.89570  0.13390  0.50044  1.0000
  S   S416      1.0  0.75379  0.18897  0.83317  1.0000
  S   S417      1.0  0.76239  0.18588  0.76878  1.0000
  Fe  Fe209     1.0  0.90823  0.15204  0.81257  1.0000
  S   S418      1.0  0.92083  0.18397  0.80993  1.0000
  S   S419      1.0  0.89785  0.12995  0.77889  1.0000
  Fe  Fe210     1.0  0.91034  0.15324  0.87436  1.0000
  S   S420      1.0  0.92277  0.18527  0.87621  1.0000
  S   S421      1.0  0.90454  0.13253  0.90878  1.0000
  Fe  Fe211     1.0  0.90085  0.18258  0.84330  1.0000
  S   S422      1.0  0.88249  0.19991  0.84214  1.0000
  Fe  Fe212     1.0  0.94172  0.18376  0.84291  1.0000
  S   S423      1.0  0.97431  0.19819  0.83844  1.0000
  S   S424      1.0  0.88724  0.15082  0.84405  1.0000
  S   S425      1.0  0.93030  0.15168  0.84289  1.0000
  S   S426      1.0  0.80333  0.23315  0.55650  1.0000
  S   S427      1.0  0.85484  0.23499  0.56227  1.0000
  Fe  Fe213     1.0  0.84481  0.09232  0.59902  1.0000
  S   S428      1.0  0.87689  0.10891  0.60451  1.0000
  S   S429      1.0  0.83494  0.06156  0.61472  1.0000
  Fe  Fe214     1.0  0.83935  0.12875  0.58182  1.0000
  S   S430      1.0  0.87046  0.14671  0.58662  1.0000
  S   S431      1.0  0.81993  0.14430  0.57151  1.0000
  Fe  Fe215     1.0  0.87496  0.12294  0.56550  1.0000
  S   S432      1.0  0.89909  0.13377  0.53565  1.0000
  Fe  Fe216     1.0  0.86941  0.13123  0.62497  1.0000
  S   S433      1.0  0.88308  0.15156  0.66003  1.0000
  S   S434      1.0  0.84347  0.10521  0.55838  1.0000
  S   S435      1.0  0.83771  0.11438  0.62149  1.0000
  C   C3116     1.0  0.84542  0.20992  0.56691  1.0000
  C   C3117     1.0  0.82664  0.19991  0.57514  1.0000
  C   C3118     1.0  0.81918  0.17991  0.57711  1.0000
  C   C3119     1.0  0.83036  0.16962  0.57089  1.0000
  C   C3120     1.0  0.84926  0.17965  0.56311  1.0000
  C   C3121     1.0  0.85678  0.19969  0.56131  1.0000
  H   H2489     1.0  0.81778  0.20753  0.57983  1.0000
  H   H2490     1.0  0.80468  0.17238  0.58353  1.0000
  H   H2491     1.0  0.85797  0.17199  0.55775  1.0000
  H   H2492     1.0  0.87131  0.20722  0.55487  1.0000
  H   H2493     1.0  0.77263  0.19136  0.64762  1.0000
  C   C3122     1.0  0.89496  0.13634  0.74555  1.0000
  C   C3123     1.0  0.88813  0.12203  0.72560  1.0000
  C   C3124     1.0  0.88453  0.12642  0.69919  1.0000
  C   C3125     1.0  0.88797  0.14524  0.69253  1.0000
  C   C3126     1.0  0.89547  0.15965  0.71226  1.0000
  C   C3127     1.0  0.89895  0.15523  0.73866  1.0000
  H   H2494     1.0  0.88550  0.10747  0.73068  1.0000
  H   H2495     1.0  0.87906  0.11528  0.68401  1.0000
  H   H2496     1.0  0.89839  0.17427  0.70715  1.0000
  H   H2497     1.0  0.90450  0.16640  0.75372  1.0000
  C   C3128     1.0  0.89921  0.13746  0.94147  1.0000
  C   C3129     1.0  0.89493  0.12316  0.96081  1.0000
  H   H2498     1.0  0.86813  0.22868  0.78275  1.0000
  H   H2499     1.0  0.65955  0.18824  0.72391  1.0000
  H   H2500     1.0  0.67022  0.16067  0.71592  1.0000
  C   C3130     1.0  0.89926  0.15521  0.94862  1.0000
  H   H2501     1.0  0.89498  0.10942  0.95543  1.0000
  H   H2502     1.0  0.81356  0.23269  0.86799  1.0000
  C   C3131     1.0  0.80169  0.03036  0.73285  1.0000
  H   H2503     1.0  0.90287  0.16641  0.93401  1.0000
  S   S436      1.0  0.79760  0.23371  0.98612  1.0000
  C   C3132     1.0  0.77425  0.22940  0.69410  1.0000
  C   C3133     1.0  0.84833  0.22741  0.97980  1.0000
  H   H2504     1.0  0.76284  0.22115  0.70712  1.0000
  H   H2505     1.0  0.81474  0.22505  0.50019  1.0000
  C   C3134     1.0  0.94194  0.21415  0.93004  1.0000
  C   C3135     1.0  0.77673  0.15116  0.51855  1.0000
  C   C3136     1.0  0.78620  0.01498  0.59284  1.0000
  P   P106      1.0  0.85539  0.25176  0.87430  1.0000
  C   C3137     1.0  0.81104  0.04710  0.74793  1.0000
  C   C3138     1.0  0.81760  0.17510  0.82270  1.0000
  C   C3139     1.0  0.82891  0.19450  0.81997  1.0000
  C   C3140     1.0  0.84872  0.20169  0.82558  1.0000
  C   C3141     1.0  0.85768  0.18958  0.83347  1.0000
  C   C3142     1.0  0.84656  0.16999  0.83543  1.0000
  C   C3143     1.0  0.82662  0.16279  0.82989  1.0000
  H   H2506     1.0  0.82243  0.20415  0.81422  1.0000
  H   H2507     1.0  0.85704  0.21683  0.82463  1.0000
  H   H2508     1.0  0.85319  0.16047  0.84176  1.0000
  H   H2509     1.0  0.81811  0.14770  0.83155  1.0000
  H   H2510     1.0  0.73958  0.16586  0.91365  1.0000
  C   C3144     1.0  0.80024  0.03386  0.59472  1.0000
  C   C3145     1.0  0.81660  0.03808  0.61117  1.0000
  C   C3146     1.0  0.81857  0.02316  0.62577  1.0000
  C   C3147     1.0  0.89477  0.15850  0.97485  1.0000
  H   H2511     1.0  0.79844  0.04510  0.58336  1.0000
  H   H2512     1.0  0.83118  0.02624  0.63842  1.0000
  H   H2513     1.0  0.82179  0.02796  0.80420  1.0000
  C   C3148     1.0  0.68564  0.18745  0.66006  1.0000
  C   C3149     1.0  0.67254  0.12948  0.76326  1.0000
  C   C3150     1.0  0.68918  0.14560  0.77045  1.0000
  C   C3151     1.0  0.68778  0.16275  0.77753  1.0000
  C   C3152     1.0  0.66958  0.16358  0.77731  1.0000
  C   C3153     1.0  0.68624  0.19294  0.89705  1.0000
  H   H2514     1.0  0.67376  0.11628  0.75779  1.0000
  H   H2515     1.0  0.70308  0.14480  0.77033  1.0000
  H   H2516     1.0  0.66834  0.17681  0.78255  1.0000
  H   H2517     1.0  0.82430  0.01833  0.70176  1.0000
  H   H2518     1.0  0.82906  0.22736  0.62388  1.0000
  H   H2519     1.0  0.77175  0.20975  0.89643  1.0000
  C   C3154     1.0  0.97540  0.17311  0.90734  1.0000
  H   H2520     1.0  0.79071  0.16008  0.94212  1.0000
  H   H2521     1.0  0.70505  0.17347  0.72555  1.0000
  C   C3155     1.0  0.71236  0.18957  0.68924  1.0000
  C   C3156     1.0  0.70539  0.19445  0.66553  1.0000
  H   H2522     1.0  0.68449  0.18432  0.82983  1.0000
  H   H2523     1.0  0.88651  0.24648  0.90408  1.0000
  H   H2524     1.0  0.68488  0.12482  0.83577  1.0000
  C   C3157     1.0  0.95042  0.13475  0.90847  1.0000
  H   H2525     1.0  0.89475  0.17225  0.98021  1.0000
  C   C3158     1.0  0.78373  0.22077  0.93563  1.0000
  H   H2526     1.0  0.86101  0.23999  0.97571  1.0000
  C   C3159     1.0  0.83519  0.08516  0.98378  1.0000
  H   H2527     1.0  0.72765  0.19515  0.69363  1.0000
  H   H2528     1.0  0.71536  0.20369  0.65140  1.0000
  H   H2529     1.0  0.76758  0.15792  0.90533  1.0000
  C   C3160     1.0  0.76531  0.16205  0.92530  1.0000
  H   H2530     1.0  0.95969  0.20059  0.91487  1.0000
  H   H2531     1.0  0.75621  0.11900  0.89379  1.0000
  H   H2532     1.0  0.94082  0.22038  0.91096  1.0000
  C   C3161     1.0  0.82524  0.07735  0.95985  1.0000
  H   H2533     1.0  0.82954  0.24766  0.91915  1.0000
  H   H2534     1.0  0.81834  0.06200  0.95731  1.0000
  C   C3162     1.0  0.84370  0.11695  0.96622  1.0000
  C   C3163     1.0  0.83338  0.10925  0.94233  1.0000
  C   C3164     1.0  0.82440  0.08933  0.93916  1.0000
  P   P107      1.0  0.83219  0.12435  0.91512  1.0000
  C   C3165     1.0  0.84095  0.11653  0.88588  1.0000
  C   C3166     1.0  0.80807  0.12294  0.90948  1.0000
  C   C3167     1.0  0.80475  0.13529  0.89118  1.0000
  C   C3168     1.0  0.78609  0.13360  0.88514  1.0000
  C   C3169     1.0  0.77067  0.12025  0.89843  1.0000
  C   C3170     1.0  0.77392  0.10855  0.91768  1.0000
  C   C3171     1.0  0.79254  0.10981  0.92315  1.0000
  C   C3172     1.0  0.83264  0.11583  0.86023  1.0000
  C   C3173     1.0  0.84002  0.11008  0.83797  1.0000
  C   C3174     1.0  0.85562  0.10485  0.84111  1.0000
  C   C3175     1.0  0.86377  0.10526  0.86657  1.0000
  C   C3176     1.0  0.85650  0.11109  0.88883  1.0000
  C   C3177     1.0  0.84659  0.14915  0.92274  1.0000
  C   C3178     1.0  0.86267  0.15956  0.90771  1.0000
  C   C3179     1.0  0.87332  0.17889  0.91351  1.0000
  C   C3180     1.0  0.86825  0.18784  0.93468  1.0000
  C   C3181     1.0  0.85223  0.17758  0.94972  1.0000
  C   C3182     1.0  0.84127  0.15839  0.94350  1.0000
  C   C3183     1.0  0.79919  0.01253  0.74356  1.0000
  P   P108      1.0  0.96889  0.18102  0.95996  1.0000
  H   H2535     1.0  0.85143  0.13217  0.96905  1.0000
  H   H2536     1.0  0.81685  0.08307  0.92059  1.0000
  H   H2537     1.0  0.81661  0.14594  0.88106  1.0000
  H   H2538     1.0  0.78360  0.14257  0.86995  1.0000
  H   H2539     1.0  0.79465  0.10053  0.93801  1.0000
  H   H2540     1.0  0.82062  0.11979  0.85709  1.0000
  H   H2541     1.0  0.83385  0.10998  0.81819  1.0000
  H   H2542     1.0  0.87623  0.10174  0.86903  1.0000
  H   H2543     1.0  0.86332  0.11169  0.90830  1.0000
  H   H2544     1.0  0.86709  0.15285  0.89160  1.0000
  H   H2545     1.0  0.88561  0.18685  0.90160  1.0000
  H   H2546     1.0  0.87670  0.20272  0.93941  1.0000
  H   H2547     1.0  0.84838  0.18447  0.96629  1.0000
  H   H2548     1.0  0.82882  0.15060  0.95513  1.0000
  C   C3184     1.0  0.89579  0.17968  0.52523  1.0000
  C   C3185     1.0  0.79225  0.23700  0.95224  1.0000
  H   H2549     1.0  0.76197  0.09831  0.92814  1.0000
  C   C3186     1.0  0.84902  0.23051  0.75137  1.0000
  C   C3187     1.0  0.86511  0.18394  0.63296  1.0000
  C   C3188     1.0  0.88467  0.19303  0.62831  1.0000
  C   C3189     1.0  0.89459  0.21210  0.63603  1.0000
  C   C3190     1.0  0.88495  0.22206  0.64848  1.0000
  C   C3191     1.0  0.86524  0.21299  0.65318  1.0000
  C   C3192     1.0  0.85540  0.19382  0.64542  1.0000
  P   P109      1.0  0.85299  0.22571  0.67009  1.0000
  C   C3193     1.0  0.86109  0.24962  0.65712  1.0000
  C   C3194     1.0  0.82716  0.13748  0.49664  1.0000
  H   H2550     1.0  0.87176  0.24914  0.50881  1.0000
  H   H2551     1.0  0.82168  0.19893  0.52038  1.0000
  C   C3195     1.0  0.80770  0.24866  0.68723  1.0000
  C   C3196     1.0  0.86534  0.22832  0.76138  1.0000
  C   C3197     1.0  0.82758  0.21401  0.66249  1.0000
  C   C3198     1.0  0.81525  0.20108  0.68047  1.0000
  C   C3199     1.0  0.79549  0.19307  0.67522  1.0000
  H   H2552     1.0  0.85761  0.16909  0.62718  1.0000
  H   H2553     1.0  0.89215  0.18512  0.61914  1.0000
  H   H2554     1.0  0.90979  0.21904  0.63257  1.0000
  C   C3200     1.0  0.67838  0.18509  0.87182  1.0000
  H   H2555     1.0  0.84029  0.18647  0.64895  1.0000
  H   H2556     1.0  0.73686  0.16546  0.51664  1.0000
  H   H2557     1.0  0.94018  0.12006  0.90856  1.0000
  C   C3201     1.0  0.77841  0.16340  0.94618  1.0000
  H   H2558     1.0  0.98870  0.17858  0.72613  1.0000
  H   H2559     1.0  0.83281  0.23186  0.71639  1.0000
  H   H2560     1.0  0.83764  0.18348  0.89498  1.0000
  H   H2561     1.0  0.82076  0.19742  0.69883  1.0000
  H   H2562     1.0  0.78600  0.18401  0.68991  1.0000
  C   C3202     1.0  0.81824  0.04624  0.77366  1.0000
  H   H2563     1.0  0.84602  0.18921  0.50156  1.0000
  C   C3203     1.0  0.70528  0.20613  0.89957  1.0000
  C   C3204     1.0  0.71667  0.21151  0.87702  1.0000
  C   C3205     1.0  0.70901  0.20371  0.85195  1.0000
  C   C3206     1.0  0.69002  0.19052  0.84936  1.0000
  C   C3207     1.0  0.78491  0.24259  0.64985  1.0000
  C   C3208     1.0  0.84539  0.21323  0.88663  1.0000
  C   C3209     1.0  0.87804  0.22552  0.74378  1.0000
  H   H2564     1.0  0.71789  0.20776  0.83447  1.0000
  H   H2565     1.0  0.87211  0.15296  0.51744  1.0000
  H   H2566     1.0  0.88424  0.22215  0.70297  1.0000
  H   H2567     1.0  0.75924  0.00623  0.73645  1.0000
  H   H2568     1.0  0.79668  0.03136  0.71263  1.0000
  C   C3210     1.0  0.81993  0.21770  0.63833  1.0000
  C   C3211     1.0  0.82932  0.20605  0.50292  1.0000
  C   C3212     1.0  0.69961  0.17736  0.70725  1.0000
  C   C3213     1.0  0.74229  0.00405  0.70065  1.0000
  C   C3214     1.0  0.77545  0.17768  0.54400  1.0000
  C   C3215     1.0  0.77458  0.15907  0.54293  1.0000
  H   H2569     1.0  0.86643  0.24150  0.61747  1.0000
  C   C3216     1.0  0.96518  0.16577  0.93068  1.0000
  H   H2570     1.0  0.82574  0.05925  0.78519  1.0000
  C   C3217     1.0  0.96294  0.16699  0.99012  1.0000
  C   C3218     1.0  0.67269  0.17577  0.67858  1.0000
  H   H2571     1.0  0.77425  0.18403  0.56298  1.0000
  H   H2572     1.0  0.77279  0.15090  0.56111  1.0000
  C   C3219     1.0  0.80629  0.20326  0.87685  1.0000
  H   H2573     1.0  0.79125  0.19921  0.87193  1.0000
  C   C3220     1.0  0.87931  0.16763  0.51127  1.0000
  H   H2574     1.0  0.74564  0.19925  0.50380  1.0000
  C   C3221     1.0  0.67987  0.17028  0.70181  1.0000
  H   H2575     1.0  0.93233  0.15624  0.98224  1.0000
  C   C3222     1.0  0.81893  0.08008  0.67297  1.0000
  C   C3223     1.0  0.83347  0.07567  0.68476  1.0000
  C   C3224     1.0  0.84349  0.08585  0.70743  1.0000
  C   C3225     1.0  0.83925  0.10072  0.71804  1.0000
  C   C3226     1.0  0.82498  0.10557  0.70589  1.0000
  C   C3227     1.0  0.81460  0.09488  0.68353  1.0000
  P   P110      1.0  0.81896  0.12446  0.71957  1.0000
  C   C3228     1.0  0.79993  0.11464  0.74308  1.0000
  C   C3229     1.0  0.83922  0.14208  0.73743  1.0000
  C   C3230     1.0  0.84390  0.13827  0.76351  1.0000
  C   C3231     1.0  0.85852  0.15223  0.77847  1.0000
  C   C3232     1.0  0.86851  0.17017  0.76768  1.0000
  C   C3233     1.0  0.86425  0.17394  0.74153  1.0000
  C   C3234     1.0  0.84970  0.15998  0.72639  1.0000
  C   C3235     1.0  0.79687  0.12663  0.76225  1.0000
  C   C3236     1.0  0.78222  0.11915  0.78059  1.0000
  C   C3237     1.0  0.77051  0.09971  0.77993  1.0000
  C   C3238     1.0  0.77342  0.08769  0.76088  1.0000
  C   C3239     1.0  0.78806  0.09512  0.74247  1.0000
  C   C3240     1.0  0.81144  0.13547  0.69214  1.0000
  C   C3241     1.0  0.79456  0.13883  0.69332  1.0000
  C   C3242     1.0  0.78841  0.14637  0.67125  1.0000
  C   C3243     1.0  0.79905  0.15064  0.64794  1.0000
  C   C3244     1.0  0.81584  0.14737  0.64670  1.0000
  C   C3245     1.0  0.82214  0.14001  0.66876  1.0000
  H   H2576     1.0  0.81144  0.07236  0.65506  1.0000
  H   H2577     1.0  0.83721  0.06461  0.67590  1.0000
  H   H2578     1.0  0.85492  0.08253  0.71635  1.0000
  H   H2579     1.0  0.84753  0.10867  0.73522  1.0000
  H   H2580     1.0  0.80340  0.09818  0.67386  1.0000
  H   H2581     1.0  0.83620  0.12452  0.77233  1.0000
  H   H2582     1.0  0.86222  0.14909  0.79837  1.0000
  H   H2583     1.0  0.87986  0.18095  0.77939  1.0000
  H   H2584     1.0  0.87252  0.18750  0.73269  1.0000
  H   H2585     1.0  0.84684  0.16331  0.70617  1.0000
  H   H2586     1.0  0.80573  0.14180  0.76303  1.0000
  H   H2587     1.0  0.77992  0.12853  0.79522  1.0000
  H   H2588     1.0  0.75912  0.09400  0.79411  1.0000
  H   H2589     1.0  0.76428  0.07263  0.76030  1.0000
  H   H2590     1.0  0.79001  0.08559  0.72781  1.0000
  H   H2591     1.0  0.78603  0.13554  0.71107  1.0000
  H   H2592     1.0  0.77533  0.14881  0.67215  1.0000
  H   H2593     1.0  0.79433  0.15644  0.63077  1.0000
  H   H2594     1.0  0.82394  0.15045  0.62851  1.0000
  H   H2595     1.0  0.83534  0.13774  0.66756  1.0000
  C   C3246     1.0  0.78797  0.19715  0.65141  1.0000
  C   C3247     1.0  0.74952  0.16657  0.92994  1.0000
  H   H2596     1.0  0.86179  0.10103  0.82376  1.0000
  H   H2597     1.0  0.68459  0.15294  0.85971  1.0000
  C   C3248     1.0  0.89057  0.12648  0.98710  1.0000
  C   C3249     1.0  0.97324  0.16132  0.88495  1.0000
  C   C3250     1.0  0.95429  0.19482  0.95694  1.0000
  H   H2598     1.0  0.79435  0.21272  0.61460  1.0000
  H   H2599     1.0  0.77639  0.13682  0.51830  1.0000
  H   H2600     1.0  0.89063  0.22369  0.75163  1.0000
  H   H2601     1.0  0.98502  0.18798  0.90626  1.0000
  C   C3251     1.0  0.80022  0.20922  0.63281  1.0000
  C   C3252     1.0  0.77892  0.22240  0.90865  1.0000
  C   C3253     1.0  0.67146  0.14309  0.85021  1.0000
  C   C3254     1.0  0.77782  0.18811  0.52051  1.0000
  C   C3255     1.0  0.82201  0.00408  0.69513  1.0000
  H   H2602     1.0  0.78304  0.10554  0.99015  1.0000
  H   H2603     1.0  0.77368  0.01192  0.57994  1.0000
  H   H2604     1.0  0.92380  0.22542  0.95020  1.0000
  H   H2605     1.0  0.75560  0.22549  0.65929  1.0000
  C   C3256     1.0  0.95256  0.14648  0.93096  1.0000
  H   H2606     1.0  0.84854  0.01387  0.67401  1.0000
  H   H2607     1.0  0.77801  0.20236  0.52127  1.0000
  C   C3257     1.0  0.83581  0.21750  0.95893  1.0000
  H   H2608     1.0  0.90135  0.17423  0.54200  1.0000
  H   H2609     1.0  0.97883  0.21502  0.78440  1.0000
  C   C3258     1.0  0.81911  0.22219  0.87409  1.0000
  H   H2610     1.0  0.80980  0.19446  0.94765  1.0000
  H   H2611     1.0  0.71131  0.21211  0.91904  1.0000
  Fe  Fe217     1.0  0.83474  0.25047  0.55800  1.0000
  H   H2612     1.0  0.68063  0.19108  0.64130  1.0000
  H   H2613     1.0  0.83897  0.23246  0.76491  1.0000
  C   C3259     1.0  0.96081  0.14213  0.88554  1.0000
  H   H2614     1.0  0.81293  0.06077  0.73950  1.0000
  C   C3260     1.0  0.83243  0.19439  0.88988  1.0000
  C   C3261     1.0  0.94518  0.19835  0.97931  1.0000
  H   H2615     1.0  0.95878  0.13312  0.86794  1.0000
  H   H2616     1.0  0.80296  0.17478  0.88648  1.0000
  C   C3262     1.0  0.93242  0.21705  0.95215  1.0000
  C   C3263     1.0  0.81290  0.18943  0.88499  1.0000
  C   C3264     1.0  0.78304  0.24037  0.89774  1.0000
  C   C3265     1.0  0.93405  0.20916  0.97678  1.0000
  H   H2617     1.0  0.86834  0.11025  0.49902  1.0000
  C   C3266     1.0  0.99233  0.22539  0.87873  1.0000
  C   C3267     1.0  0.81925  0.20152  0.96428  1.0000
  C   C3268     1.0  0.98869  0.21118  0.77276  1.0000
  C   C3269     1.0  0.80657  0.01180  0.76937  1.0000
  C   C3270     1.0  0.83883  0.22733  0.87868  1.0000
  H   H2618     1.0  0.73148  0.22164  0.87893  1.0000
  C   C3271     1.0  0.77609  0.16983  0.97180  1.0000
  C   C3272     1.0  0.79306  0.23783  0.70434  1.0000
  C   C3273     1.0  0.95268  0.20293  0.93233  1.0000
  C   C3274     1.0  0.84545  0.22997  0.72374  1.0000
  H   H2619     1.0  0.97833  0.22501  0.88314  1.0000
  H   H2620     1.0  0.66140  0.19950  0.83108  1.0000
  S   S437      1.0  0.79905  0.23547  0.73832  1.0000
  C   C3275     1.0  0.74672  0.17230  0.95553  1.0000
  C   C3276     1.0  0.90782  0.24816  0.87565  1.0000
  C   C3277     1.0  0.89058  0.24897  0.88337  1.0000
  C   C3278     1.0  0.73148  0.16878  0.49789  1.0000
  H   H2621     1.0  0.83876  0.22229  0.93861  1.0000
  C   C3279     1.0  0.87433  0.22464  0.71612  1.0000
  H   H2622     1.0  0.81100  0.15290  0.51024  1.0000
  H   H2623     1.0  0.89286  0.23679  0.65456  1.0000
  H   H2624     1.0  0.83395  0.13807  0.51619  1.0000
  C   C3280     1.0  0.81601  0.02861  0.78435  1.0000
  C   C3281     1.0  0.85792  0.22676  0.70585  1.0000
  H   H2625     1.0  0.73458  0.17600  0.95909  1.0000
  C   C3282     1.0  0.75992  0.17394  0.97637  1.0000
  H   H2626     1.0  0.67792  0.18879  0.91492  1.0000
  C   C3283     1.0  0.84444  0.10492  0.98689  1.0000
  H   H2627     1.0  0.91784  0.20795  0.52840  1.0000
  C   C3284     1.0  0.98159  0.19603  0.75433  1.0000
  H   H2628     1.0  0.83966  0.24013  0.82002  1.0000
  H   H2629     1.0  0.96624  0.18829  0.75152  1.0000
  H   H2630     1.0  0.86045  0.21641  0.88958  1.0000
  C   C3285     1.0  0.90509  0.19863  0.51747  1.0000
  C   C3286     1.0  0.77019  0.23190  0.66702  1.0000
  C   C3287     1.0  0.67165  0.12697  0.83699  1.0000
  H   H2631     1.0  0.94402  0.14039  0.94814  1.0000
  C   C3288     1.0  0.80459  0.00429  0.62379  1.0000
  H   H2632     1.0  0.92624  0.24969  0.84279  1.0000
  Fe  Fe218     1.0  0.80230  0.25109  0.52150  1.0000
  C   C3289     1.0  0.78014  0.16192  0.49501  1.0000
  H   H2633     1.0  0.77437  0.13321  0.98370  1.0000
  C   C3290     1.0  0.81503  0.19525  0.99071  1.0000
  S   S438      1.0  0.77744  0.24311  0.86376  1.0000
  C   C3291     1.0  0.89786  0.20554  0.49578  1.0000
  H   H2634     1.0  0.98904  0.22304  0.96501  1.0000
  H   H2635     1.0  0.91685  0.24494  0.89022  1.0000
  H   H2636     1.0  0.73328  0.01025  0.70989  1.0000
  S   S439      1.0  0.77914  0.24520  0.61586  1.0000
  H   H2637     1.0  0.98092  0.16720  0.86690  1.0000
  C   C3292     1.0  0.91314  0.25086  0.84891  1.0000
  C   C3293     1.0  0.77978  0.18020  0.49601  1.0000
  C   C3294     1.0  0.78860  0.13552  0.99121  1.0000
  C   C3295     1.0  0.80371  0.25093  0.66009  1.0000
  H   H2638     1.0  0.92271  0.15752  0.49505  1.0000
  C   C3296     1.0  0.81382  0.14575  0.49317  1.0000
  H   H2639     1.0  0.87141  0.44857  0.05056  1.0000
  H   H2640     1.0  0.97857  0.42199  0.38928  1.0000
  H   H2641     1.0  0.86811  0.48317  0.47088  1.0000
  C   C3297     1.0  0.81512  0.35440  0.00830  1.0000
  H   H2642     1.0  0.82226  0.26753  0.24752  1.0000
  H   H2643     1.0  0.83508  0.37842  0.04870  1.0000
  S   S440      1.0  0.93689  0.44455  0.47553  1.0000
  S   S441      1.0  0.90656  0.47362  0.44247  1.0000
  Fe  Fe219     1.0  0.91974  0.46429  0.03878  1.0000
  S   S442      1.0  0.90827  0.47832  0.07008  1.0000
  H   H2644     1.0  0.96649  0.47230  0.36222  1.0000
  S   S443      1.0  0.93758  0.44672  0.04136  1.0000
  C   C3298     1.0  0.97762  0.48033  0.34860  1.0000
  S   S444      1.0  0.92347  0.47323  0.31858  1.0000
  Fe  Fe220     1.0  0.90913  0.48704  0.22525  1.0000
  S   S445      1.0  0.89763  0.46304  0.19439  1.0000
  H   H2645     1.0  0.85189  0.49369  0.14051  1.0000
  S   S446      1.0  0.89314  0.48847  0.26221  1.0000
  Fe  Fe221     1.0  0.83794  0.29135  0.04971  1.0000
  S   S447      1.0  0.80590  0.27582  0.04336  1.0000
  S   S448      1.0  0.84955  0.32412  0.05082  1.0000
  Fe  Fe222     1.0  0.95637  0.46725  0.01139  1.0000
  C   C3299     1.0  0.82985  0.48196  0.31389  1.0000
  C   C3300     1.0  0.85135  0.40304  0.07278  1.0000
  H   H2646     1.0  0.86725  0.27085  0.31677  1.0000
  C   C3301     1.0  0.85497  0.26594  0.16666  1.0000
  S   S449      1.0  0.84488  0.26999  0.02517  1.0000
  S   S450      1.0  0.83831  0.27671  0.08882  1.0000
  S   S451      1.0  0.94006  0.48593  0.01192  1.0000
  H   H2647     1.0  0.67989  0.49543  0.46036  1.0000
  S   S452      1.0  0.90087  0.44734  0.00456  1.0000
  H   H2648     1.0  0.87945  0.32937  0.01119  1.0000
  C   C3302     1.0  0.84014  0.47186  0.30370  1.0000
  H   H2649     1.0  0.88055  0.25527  0.21630  1.0000
  H   H2650     1.0  0.88124  0.49235  0.34087  1.0000
  H   H2651     1.0  0.84989  0.30590  0.40960  1.0000
  C   C3303     1.0  0.95364  0.47888  0.14685  1.0000
  H   H2652     1.0  0.93187  0.38003  0.46300  1.0000
  C   C3304     1.0  0.89375  0.37810  0.01222  1.0000
  H   H2653     1.0  0.84581  0.27342  0.16248  1.0000
  C   C3305     1.0  0.87969  0.34320  0.01667  1.0000
  C   C3306     1.0  0.86673  0.34448  0.03525  1.0000
  C   C3307     1.0  0.86730  0.36263  0.04201  1.0000
  C   C3308     1.0  0.88059  0.37932  0.03050  1.0000
  S   S453      1.0  0.78495  0.25475  0.11357  1.0000
  C   C3309     1.0  0.86339  0.43323  0.05003  1.0000
  H   H2654     1.0  0.85744  0.36376  0.05640  1.0000
  H   H2655     1.0  0.88092  0.39315  0.03618  1.0000
  C   C3310     1.0  0.90734  0.47438  0.10484  1.0000
  C   C3311     1.0  0.90620  0.48853  0.12195  1.0000
  C   C3312     1.0  0.90395  0.48546  0.14960  1.0000
  C   C3313     1.0  0.90221  0.46794  0.16018  1.0000
  C   C3314     1.0  0.90334  0.45376  0.14307  1.0000
  C   C3315     1.0  0.90626  0.45710  0.11550  1.0000
  C   C3316     1.0  0.84292  0.39369  0.04870  1.0000
  C   C3317     1.0  0.87437  0.27301  0.48372  1.0000
  H   H2656     1.0  0.90197  0.44017  0.15120  1.0000
  H   H2657     1.0  0.90706  0.44617  0.10235  1.0000
  C   C3318     1.0  0.91337  0.47461  0.40870  1.0000
  C   C3319     1.0  0.92009  0.46153  0.39795  1.0000
  C   C3320     1.0  0.92350  0.46160  0.37035  1.0000
  C   C3321     1.0  0.92057  0.47493  0.35341  1.0000
  C   C3322     1.0  0.91494  0.48872  0.36445  1.0000
  C   C3323     1.0  0.91107  0.48833  0.39193  1.0000
  H   H2658     1.0  0.92194  0.45091  0.41068  1.0000
  H   H2659     1.0  0.92799  0.45097  0.36197  1.0000
  H   H2660     1.0  0.90166  0.28602  0.13181  1.0000
  C   C3324     1.0  0.82313  0.34140  0.09825  1.0000
  C   C3325     1.0  0.81160  0.32205  0.10099  1.0000
  C   C3326     1.0  0.81905  0.31000  0.11336  1.0000
  C   C3327     1.0  0.83812  0.31719  0.12265  1.0000
  C   C3328     1.0  0.84999  0.33650  0.11934  1.0000
  C   C3329     1.0  0.84220  0.34864  0.10761  1.0000
  P   P111      1.0  0.87449  0.34590  0.13207  1.0000
  C   C3330     1.0  0.88920  0.36505  0.11088  1.0000
  C   C3331     1.0  0.87526  0.35554  0.16541  1.0000
  C   C3332     1.0  0.85860  0.35007  0.18048  1.0000
  C   C3333     1.0  0.85901  0.35865  0.20543  1.0000
  C   C3334     1.0  0.87601  0.37284  0.21543  1.0000
  C   C3335     1.0  0.89274  0.37811  0.20080  1.0000
  C   C3336     1.0  0.89243  0.36940  0.17598  1.0000
  C   C3337     1.0  0.88334  0.32706  0.13226  1.0000
  C   C3338     1.0  0.87436  0.25560  0.19667  1.0000
  C   C3339     1.0  0.91237  0.39517  0.07889  1.0000
  C   C3340     1.0  0.90113  0.39848  0.09842  1.0000
  C   C3341     1.0  0.88963  0.38353  0.11440  1.0000
  H   H2661     1.0  0.81293  0.26959  0.40744  1.0000
  H   H2662     1.0  0.88301  0.29018  0.09288  1.0000
  C   C3342     1.0  0.86440  0.50056  0.18025  1.0000
  C   C3343     1.0  0.97127  0.49845  0.41628  1.0000
  H   H2663     1.0  0.80285  0.30757  0.45389  1.0000
  C   C3344     1.0  0.89398  0.32465  0.15426  1.0000
  H   H2664     1.0  0.81738  0.35069  0.08846  1.0000
  H   H2665     1.0  0.79693  0.31629  0.09334  1.0000
  H   H2666     1.0  0.81009  0.29497  0.11541  1.0000
  H   H2667     1.0  0.84354  0.30752  0.13206  1.0000
  H   H2668     1.0  0.85089  0.36359  0.10513  1.0000
  H   H2669     1.0  0.84517  0.33951  0.17279  1.0000
  H   H2670     1.0  0.84603  0.35459  0.21676  1.0000
  H   H2671     1.0  0.87621  0.37984  0.23447  1.0000
  H   H2672     1.0  0.90590  0.38922  0.20850  1.0000
  H   H2673     1.0  0.90546  0.37383  0.16471  1.0000
  C   C3345     1.0  0.86053  0.27304  0.41634  1.0000
  C   C3346     1.0  0.89309  0.35992  0.00524  1.0000
  H   H2674     1.0  0.85669  0.43230  0.00798  1.0000
  H   H2675     1.0  0.90120  0.41261  0.10096  1.0000
  H   H2676     1.0  0.88100  0.38641  0.12939  1.0000
  Fe  Fe223     1.0  0.91767  0.46062  0.47628  1.0000
  H   H2677     1.0  0.80046  0.32523  0.02063  1.0000
  H   H2678     1.0  0.87155  0.31628  0.09281  1.0000
  C   C3347     1.0  0.88616  0.29987  0.10999  1.0000
  H   H2679     1.0  0.89719  0.33405  0.17159  1.0000
  C   C3348     1.0  0.87810  0.26483  0.38203  1.0000
  C   C3349     1.0  0.85816  0.25530  0.14587  1.0000
  H   H2680     1.0  0.96281  0.48344  0.41244  1.0000
  H   H2681     1.0  0.92931  0.26634  0.40838  1.0000
  C   C3350     1.0  0.84494  0.40405  0.02498  1.0000
  C   C3351     1.0  0.81200  0.33507  0.00907  1.0000
  P   P112      1.0  0.85911  0.27980  0.21979  1.0000
  C   C3352     1.0  0.87972  0.30202  0.22435  1.0000
  C   C3353     1.0  0.83771  0.28447  0.21424  1.0000
  C   C3354     1.0  0.83669  0.29635  0.19335  1.0000
  C   C3355     1.0  0.81974  0.29907  0.18823  1.0000
  C   C3356     1.0  0.80392  0.29039  0.20428  1.0000
  C   C3357     1.0  0.80514  0.27934  0.22586  1.0000
  C   C3358     1.0  0.82197  0.27650  0.23095  1.0000
  C   C3359     1.0  0.87743  0.31895  0.23079  1.0000
  C   C3360     1.0  0.89347  0.33589  0.23564  1.0000
  C   C3361     1.0  0.91189  0.33609  0.23417  1.0000
  C   C3362     1.0  0.91429  0.31928  0.22820  1.0000
  C   C3363     1.0  0.89828  0.30227  0.22351  1.0000
  C   C3364     1.0  0.85644  0.26592  0.24973  1.0000
  C   C3365     1.0  0.86422  0.27480  0.27443  1.0000
  C   C3366     1.0  0.91202  0.37687  0.07520  1.0000
  H   H2682     1.0  0.80569  0.35931  0.01910  1.0000
  C   C3367     1.0  0.86113  0.26089  0.39564  1.0000
  H   H2683     1.0  0.79279  0.27230  0.23812  1.0000
  H   H2684     1.0  0.90010  0.34779  0.08710  1.0000
  H   H2685     1.0  0.91328  0.49943  0.35175  1.0000
  H   H2686     1.0  0.86323  0.47866  0.38546  1.0000
  S   S454      1.0  0.93532  0.48832  0.24811  1.0000
  H   H2687     1.0  0.87364  0.34161  0.44949  1.0000
  H   H2688     1.0  0.84885  0.30315  0.18074  1.0000
  H   H2689     1.0  0.81860  0.30753  0.17150  1.0000
  C   C3368     1.0  0.98836  0.46640  0.43469  1.0000
  C   C3369     1.0  0.90042  0.36184  0.09098  1.0000
  C   C3370     1.0  0.97742  0.43216  0.42926  1.0000
  H   H2690     1.0  0.86331  0.31908  0.23268  1.0000
  H   H2691     1.0  0.89162  0.34881  0.24100  1.0000
  H   H2692     1.0  0.92429  0.34923  0.23806  1.0000
  H   H2693     1.0  0.92857  0.31937  0.22749  1.0000
  H   H2694     1.0  0.90046  0.28936  0.21940  1.0000
  H   H2695     1.0  0.87207  0.29009  0.27595  1.0000
  C   C3371     1.0  0.87959  0.31460  0.11009  1.0000
  C   C3372     1.0  0.98123  0.43439  0.40194  1.0000
  C   C3373     1.0  0.80667  0.40747  0.00102  1.0000
  H   H2696     1.0  0.81670  0.41757  0.01500  1.0000
  H   H2697     1.0  0.81807  0.30741  0.41050  1.0000
  H   H2698     1.0  0.89774  0.37415  0.45616  1.0000
  H   H2699     1.0  0.92090  0.40660  0.06598  1.0000
  H   H2700     1.0  0.81557  0.47917  0.30605  1.0000
  H   H2701     1.0  0.90749  0.28417  0.37814  1.0000
  Fe  Fe224     1.0  0.84234  0.25406  0.06384  1.0000
  C   C3374     1.0  0.86476  0.47881  0.42818  1.0000
  Fe  Fe225     1.0  0.92037  0.49183  0.28483  1.0000
  H   H2702     1.0  0.91438  0.27045  0.45048  1.0000
  H   H2703     1.0  0.94732  0.46526  0.15669  1.0000
  C   C3375     1.0  0.86299  0.26616  0.19236  1.0000
  C   C3376     1.0  0.82637  0.30637  0.47751  1.0000
  C   C3377     1.0  0.86162  0.42279  0.07342  1.0000
  H   H2704     1.0  0.85166  0.25482  0.12621  1.0000
  H   H2705     1.0  0.84996  0.39498  0.09094  1.0000
  H   H2706     1.0  0.86822  0.43010  0.09200  1.0000
  H   H2707     1.0  0.86924  0.48893  0.18069  1.0000
  H   H2708     1.0  0.86699  0.26398  0.46697  1.0000
  C   C3378     1.0  0.88058  0.29289  0.48222  1.0000
  H   H2709     1.0  0.90609  0.49858  0.40028  1.0000
  H   H2710     1.0  0.98239  0.43825  0.07264  1.0000
  C   C3379     1.0  0.92723  0.35030  0.45911  1.0000
  C   C3380     1.0  0.87688  0.28942  0.42348  1.0000
  C   C3381     1.0  0.89380  0.29338  0.40944  1.0000
  P   P113      1.0  0.87626  0.30387  0.45211  1.0000
  C   C3382     1.0  0.89437  0.28113  0.38880  1.0000
  C   C3383     1.0  0.89410  0.32812  0.45167  1.0000
  C   C3384     1.0  0.91360  0.33163  0.45556  1.0000
  C   C3385     1.0  0.89668  0.29753  0.13193  1.0000
  C   C3386     1.0  0.92149  0.36560  0.45913  1.0000
  C   C3387     1.0  0.90220  0.36228  0.45518  1.0000
  C   C3388     1.0  0.88854  0.34368  0.45142  1.0000
  H   H2711     1.0  0.95913  0.46992  0.31368  1.0000
  C   C3389     1.0  0.83802  0.49584  0.33399  1.0000
  H   H2712     1.0  0.83385  0.46116  0.28807  1.0000
  C   C3390     1.0  0.85288  0.30479  0.45276  1.0000
  C   C3391     1.0  0.84342  0.30586  0.42870  1.0000
  C   C3392     1.0  0.82545  0.30690  0.42911  1.0000
  C   C3393     1.0  0.81686  0.30698  0.45351  1.0000
  H   H2713     1.0  0.79060  0.29198  0.19982  1.0000
  C   C3394     1.0  0.84442  0.30550  0.47720  1.0000
  H   H2714     1.0  0.92022  0.37422  0.05936  1.0000
  C   C3395     1.0  0.96415  0.48064  0.12372  1.0000
  H   H2715     1.0  0.80955  0.26485  0.45670  1.0000
  H   H2716     1.0  0.84731  0.26953  0.42695  1.0000
  H   H2717     1.0  0.90659  0.30583  0.41431  1.0000
  H   H2718     1.0  0.91816  0.31989  0.45715  1.0000
  C   C3396     1.0  0.97212  0.49823  0.11095  1.0000
  C   C3397     1.0  0.86426  0.48703  0.40338  1.0000
  H   H2719     1.0  0.90691  0.50189  0.11377  1.0000
  H   H2720     1.0  0.98552  0.47166  0.06935  1.0000
  Fe  Fe226     1.0  0.80698  0.26009  0.08109  1.0000
  C   C3398     1.0  0.97336  0.47895  0.32110  1.0000
  H   H2721     1.0  0.78532  0.41912  0.00641  1.0000
  C   C3399     1.0  0.91815  0.25423  0.41724  1.0000
  C   C3400     1.0  0.85509  0.42393  0.02592  1.0000
  C   C3401     1.0  0.80261  0.25641  0.41503  1.0000
  C   C3402     1.0  0.85862  0.47561  0.31365  1.0000
  H   H2722     1.0  0.86429  0.46443  0.42905  1.0000
  H   H2723     1.0  0.94219  0.49310  0.17455  1.0000
  C   C3403     1.0  0.86691  0.48962  0.33349  1.0000
  H   H2724     1.0  0.90308  0.49645  0.16258  1.0000
  H   H2725     1.0  0.96592  0.46828  0.11554  1.0000
  H   H2726     1.0  0.90915  0.30829  0.17065  1.0000
  C   C3404     1.0  0.86700  0.48943  0.45179  1.0000
  H   H2727     1.0  0.97169  0.41805  0.43781  1.0000
  C   C3405     1.0  0.98856  0.45264  0.39095  1.0000
  H   H2728     1.0  0.97849  0.44657  0.46692  1.0000
  S   S455      1.0  0.91146  0.39873  0.99789  1.0000
  C   C3406     1.0  0.90071  0.30999  0.15394  1.0000
  H   H2729     1.0  0.75065  0.25750  0.38298  1.0000
  H   H2730     1.0  0.86661  0.46770  0.30598  1.0000
  C   C3407     1.0  0.78885  0.40842  0.99618  1.0000
  C   C3408     1.0  0.98117  0.44818  0.44565  1.0000
  C   C3409     1.0  0.80076  0.25372  0.44289  1.0000
  Fe  Fe227     1.0  0.91987  0.43084  0.00527  1.0000
  C   C3410     1.0  0.86151  0.26396  0.29765  1.0000
  H   H2731     1.0  0.87866  0.25522  0.36629  1.0000
  S   S456      1.0  0.98886  0.47871  0.01405  1.0000
  H   H2732     1.0  0.97995  0.49921  0.09288  1.0000
  C   C3411     1.0  0.95071  0.49459  0.15690  1.0000
  H   H2733     1.0  0.94216  0.35290  0.46276  1.0000
  H   H2734     1.0  0.82185  0.31352  0.99647  1.0000
  C   C3412     1.0  0.85666  0.49980  0.34394  1.0000
  C   C3413     1.0  0.98736  0.48934  0.30315  1.0000
  C   C3414     1.0  0.90974  0.25653  0.44089  1.0000
  H   H2735     1.0  0.98396  0.48831  0.28187  1.0000
  C   C3415     1.0  0.82399  0.32842  0.99531  1.0000
  H   H2736     1.0  0.97587  0.50196  0.23187  1.0000
  H   H2737     1.0  0.73438  0.25325  0.42650  1.0000
  H   H2738     1.0  0.99179  0.45414  0.36988  1.0000
  H   H2739     1.0  0.99132  0.47869  0.44770  1.0000
  Fe  Fe228     1.0  0.81288  0.25365  0.02118  1.0000
  C   C3416     1.0  0.99167  0.46874  0.40717  1.0000
  C   C3417     1.0  0.83045  0.36730  0.99398  1.0000
  P   P114      1.0  0.83433  0.39229  0.99356  1.0000
  H   H2740     1.0  0.96567  0.41794  0.96272  1.0000
  C   C3418     1.0  0.81134  0.39363  0.98783  1.0000
  H   H2741     1.0  0.89978  0.30452  0.54552  1.0000
  Fe  Fe229     1.0  0.91968  0.42784  0.51030  1.0000
  H   H2742     1.0  0.97571  0.48968  0.95308  1.0000
  H   H2743     1.0  0.90818  0.35725  0.52620  1.0000
  H   H2744     1.0  0.87651  0.27373  0.59923  1.0000
  S   S457      1.0  0.91558  0.48582  0.94608  1.0000
  Fe  Fe230     1.0  0.91972  0.46391  0.53759  1.0000
  S   S458      1.0  0.91017  0.47962  0.56910  1.0000
  C   C3419     1.0  0.78021  0.38187  0.96483  1.0000
  S   S459      1.0  0.93948  0.44847  0.54132  1.0000
  C   C3420     1.0  0.98713  0.47447  0.81249  1.0000
  S   S460      1.0  0.92245  0.47924  0.82023  1.0000
  C   C3421     1.0  0.98635  0.44699  0.96200  1.0000
  S   S461      1.0  0.91649  0.47216  0.69497  1.0000
  C   C3422     1.0  0.79800  0.38088  0.96961  1.0000
  H   H2745     1.0  0.96473  0.44854  0.89153  1.0000
  Fe  Fe231     1.0  0.82981  0.28823  0.54986  1.0000
  S   S462      1.0  0.79748  0.27262  0.54797  1.0000
  S   S463      1.0  0.83966  0.32092  0.54597  1.0000
  C   C3423     1.0  0.84337  0.27989  0.85525  1.0000
  H   H2746     1.0  0.69018  0.49907  0.57961  1.0000
  C   C3424     1.0  0.91502  0.41337  0.63411  1.0000
  H   H2747     1.0  0.97438  0.49893  0.54756  1.0000
  H   H2748     1.0  0.87652  0.30053  0.62775  1.0000
  S   S464      1.0  0.83419  0.26733  0.52111  1.0000
  S   S465      1.0  0.83301  0.27259  0.58693  1.0000
  H   H2749     1.0  0.92214  0.41468  0.65350  1.0000
  C   C3425     1.0  0.81590  0.35793  0.59071  1.0000
  H   H2750     1.0  0.90315  0.35878  0.99104  1.0000
  H   H2751     1.0  0.95698  0.46638  0.81916  1.0000
  C   C3426     1.0  0.96397  0.43155  0.92562  1.0000
  H   H2752     1.0  0.98515  0.47149  0.79113  1.0000
  C   C3427     1.0  0.89286  0.29572  0.52816  1.0000
  H   H2753     1.0  0.83167  0.48896  0.80425  1.0000
  H   H2754     1.0  0.90329  0.50014  0.61254  1.0000
  S   S466      1.0  0.98731  0.48063  0.50437  1.0000
  C   C3428     1.0  0.89228  0.37518  0.52316  1.0000
  C   C3429     1.0  0.89425  0.35782  0.52793  1.0000
  C   C3430     1.0  0.87842  0.34124  0.53520  1.0000
  C   C3431     1.0  0.86025  0.34158  0.53729  1.0000
  C   C3432     1.0  0.85828  0.35896  0.53271  1.0000
  C   C3433     1.0  0.87414  0.37562  0.52567  1.0000
  H   H2755     1.0  0.86687  0.46457  0.55263  1.0000
  H   H2756     1.0  0.88027  0.32825  0.53971  1.0000
  H   H2757     1.0  0.85106  0.42645  0.90734  1.0000
  H   H2758     1.0  0.80233  0.26761  0.95415  1.0000
  C   C3434     1.0  0.91318  0.47794  0.60399  1.0000
  C   C3435     1.0  0.90862  0.49014  0.62104  1.0000
  C   C3436     1.0  0.91050  0.48919  0.64899  1.0000
  C   C3437     1.0  0.91650  0.47564  0.66011  1.0000
  C   C3438     1.0  0.92115  0.46347  0.64309  1.0000
  C   C3439     1.0  0.91956  0.46462  0.61508  1.0000
  H   H2759     1.0  0.88886  0.41214  0.65082  1.0000
  C   C3440     1.0  0.97935  0.49660  0.56719  1.0000
  H   H2760     1.0  0.92569  0.45289  0.65165  1.0000
  H   H2761     1.0  0.92288  0.45499  0.60214  1.0000
  C   C3441     1.0  0.91945  0.48457  0.91144  1.0000
  C   C3442     1.0  0.92092  0.46850  0.89986  1.0000
  C   C3443     1.0  0.92203  0.46720  0.87187  1.0000
  C   C3444     1.0  0.92228  0.48216  0.85533  1.0000
  S   S467      1.0  0.93653  0.48299  0.50521  1.0000
  H   H2762     1.0  0.82860  0.40894  0.94205  1.0000
  H   H2763     1.0  0.92058  0.45685  0.91238  1.0000
  H   H2764     1.0  0.92246  0.45443  0.86293  1.0000
  C   C3445     1.0  0.77563  0.39562  0.97812  1.0000
  H   H2765     1.0  0.86648  0.29471  0.67496  1.0000
  H   H2766     1.0  0.84873  0.33597  0.97076  1.0000
  H   H2767     1.0  0.88980  0.40887  0.56448  1.0000
  C   C3446     1.0  0.85490  0.43875  0.52875  1.0000
  H   H2768     1.0  0.96142  0.47400  0.86741  1.0000
  C   C3447     1.0  0.85632  0.41826  0.63482  1.0000
  C   C3448     1.0  0.86974  0.40795  0.96939  1.0000
  C   C3449     1.0  0.89616  0.41213  0.63247  1.0000
  H   H2769     1.0  0.82152  0.38782  0.59122  1.0000
  C   C3450     1.0  0.84700  0.38298  0.60192  1.0000
  H   H2770     1.0  0.80100  0.35358  0.58459  1.0000
  C   C3451     1.0  0.87562  0.42442  0.92711  1.0000
  C   C3452     1.0  0.83558  0.41613  0.67219  1.0000
  C   C3453     1.0  0.92465  0.41293  0.61079  1.0000
  Fe  Fe232     1.0  0.92390  0.50001  0.78684  1.0000
  C   C3454     1.0  0.86504  0.44396  0.66801  1.0000
  C   C3455     1.0  0.98597  0.46475  0.92179  1.0000
  C   C3456     1.0  0.88234  0.41769  0.94940  1.0000
  C   C3457     1.0  0.86423  0.43992  0.57565  1.0000
  C   C3458     1.0  0.89667  0.41027  0.58405  1.0000
  C   C3459     1.0  0.84529  0.26267  0.84958  1.0000
  C   C3460     1.0  0.69864  0.49510  0.49287  1.0000
  C   C3461     1.0  0.97127  0.47153  0.82827  1.0000
  H   H2771     1.0  0.84488  0.41106  0.50963  1.0000
  C   C3462     1.0  0.88693  0.41082  0.60738  1.0000
  C   C3463     1.0  0.84993  0.41907  0.52820  1.0000
  P   P115      1.0  0.86222  0.40808  0.60517  1.0000
  C   C3464     1.0  0.87724  0.26456  0.50731  1.0000
  C   C3465     1.0  0.84283  0.34971  0.60183  1.0000
  H   H2772     1.0  0.86951  0.37290  0.61090  1.0000
  C   C3466     1.0  0.85455  0.36902  0.60563  1.0000
  C   C3467     1.0  0.91541  0.41118  0.58583  1.0000
  H   H2773     1.0  0.87512  0.45768  0.67562  1.0000
  H   H2774     1.0  0.71963  0.49891  0.52440  1.0000
  C   C3468     1.0  0.97157  0.43084  0.95112  1.0000
  H   H2775     1.0  0.84538  0.44001  0.69995  1.0000
  S   S468      1.0  0.94369  0.49740  0.75596  1.0000
  H   H2776     1.0  0.80140  0.37023  0.95899  1.0000
  C   C3469     1.0  0.82852  0.27874  0.81144  1.0000
  H   H2777     1.0  0.85524  0.47411  0.79892  1.0000
  C   C3470     1.0  0.85842  0.48620  0.81241  1.0000
  C   C3471     1.0  0.83916  0.34109  0.98087  1.0000
  H   H2778     1.0  0.79453  0.27062  0.90615  1.0000
  H   H2779     1.0  0.76997  0.37198  0.95076  1.0000
  C   C3472     1.0  0.85831  0.26432  0.90594  1.0000
  C   C3473     1.0  0.84832  0.43398  0.68175  1.0000
  H   H2780     1.0  0.84434  0.35951  0.53447  1.0000
  C   C3474     1.0  0.88650  0.27591  0.52950  1.0000
  H   H2781     1.0  0.82221  0.25545  0.69504  1.0000
  C   C3475     1.0  0.86901  0.43616  0.64469  1.0000
  H   H2782     1.0  0.82522  0.25459  0.78642  1.0000
  C   C3476     1.0  0.87551  0.27988  0.91236  1.0000
  C   C3477     1.0  0.87779  0.28964  0.93684  1.0000
  C   C3478     1.0  0.86291  0.28399  0.95500  1.0000
  C   C3479     1.0  0.84566  0.26873  0.94855  1.0000
  C   C3480     1.0  0.84323  0.25912  0.92395  1.0000
  H   H2783     1.0  0.90545  0.25660  0.80919  1.0000
  C   C3481     1.0  0.96615  0.48871  0.58720  1.0000
  H   H2784     1.0  0.95668  0.49233  0.68387  1.0000
  Fe  Fe233     1.0  0.92254  0.46793  0.97766  1.0000
  S   S469      1.0  0.90007  0.49625  0.75653  1.0000
  C   C3482     1.0  0.97242  0.48543  0.61243  1.0000
  H   H2785     1.0  0.98998  0.49542  0.69278  1.0000
  H   H2786     1.0  0.82167  0.28467  0.79689  1.0000
  C   C3483     1.0  0.83956  0.40825  0.64889  1.0000
  H   H2787     1.0  0.82961  0.39429  0.64230  1.0000
  H   H2788     1.0  0.88711  0.28459  0.89840  1.0000
  C   C3484     1.0  0.97111  0.44841  0.91099  1.0000
  C   C3485     1.0  0.85885  0.42007  0.57549  1.0000
  C   C3486     1.0  0.88410  0.25549  0.83759  1.0000
  H   H2789     1.0  0.87044  0.44849  0.59335  1.0000
  C   C3487     1.0  0.88990  0.30418  0.50465  1.0000
  Fe  Fe234     1.0  0.95479  0.46621  0.50648  1.0000
  H   H2790     1.0  0.89107  0.30164  0.94172  1.0000
  H   H2791     1.0  0.86466  0.29153  0.97398  1.0000
  H   H2792     1.0  0.83411  0.26432  0.96265  1.0000
  H   H2793     1.0  0.95226  0.41912  0.91741  1.0000
  C   C3488     1.0  0.98160  0.50089  0.91290  1.0000
  C   C3489     1.0  0.84248  0.36046  0.98029  1.0000
  H   H2794     1.0  0.90667  0.49847  0.66194  1.0000
  H   H2795     1.0  0.83308  0.30085  0.84094  1.0000
  H   H2796     1.0  0.89471  0.31954  0.50418  1.0000
  C   C3490     1.0  0.85621  0.42113  0.92461  1.0000
  H   H2797     1.0  0.81472  0.32919  0.59067  1.0000
  H   H2798     1.0  0.76184  0.39640  0.97437  1.0000
  H   H2799     1.0  0.84881  0.33899  0.60384  1.0000
  H   H2800     1.0  0.89740  0.42022  0.95145  1.0000
  H   H2801     1.0  0.84797  0.28708  0.87442  1.0000
  H   H2802     1.0  0.82269  0.40831  0.68300  1.0000
  S   S470      1.0  0.94017  0.45034  0.97537  1.0000
  H   H2803     1.0  0.88547  0.43229  0.91188  1.0000
  H   H2804     1.0  0.84866  0.39463  0.55018  1.0000
  H   H2805     1.0  0.85376  0.44604  0.51064  1.0000
  C   C3491     1.0  0.87249  0.28642  0.63606  1.0000
  C   C3492     1.0  0.85021  0.40449  0.96703  1.0000
  C   C3493     1.0  0.86118  0.26482  0.67317  1.0000
  H   H2806     1.0  0.87524  0.25828  0.82242  1.0000
  C   C3494     1.0  0.82756  0.37727  0.59447  1.0000
  H   H2807     1.0  0.85455  0.36991  0.96934  1.0000
  H   H2808     1.0  0.93924  0.41384  0.61200  1.0000
  H   H2809     1.0  0.88840  0.26927  0.54788  1.0000
  C   C3495     1.0  0.85205  0.40978  0.55136  1.0000
  H   H2810     1.0  0.88219  0.44399  0.63463  1.0000
  H   H2811     1.0  0.92274  0.41044  0.56777  1.0000
  H   H2812     1.0  0.87230  0.38872  0.52177  1.0000
  H   H2813     1.0  0.85665  0.26258  0.69368  1.0000
  C   C3496     1.0  0.86680  0.28313  0.66262  1.0000
  C   C3497     1.0  0.84351  0.41117  0.94442  1.0000
  C   C3498     1.0  0.92013  0.49970  0.89490  1.0000
  C   C3499     1.0  0.82356  0.34417  0.59431  1.0000
  C   C3500     1.0  0.97411  0.49950  0.93861  1.0000
  C   C3501     1.0  0.83055  0.26174  0.80555  1.0000
  H   H2814     1.0  0.81978  0.30666  0.49644  1.0000
  C   C3502     1.0  0.86218  0.44918  0.55241  1.0000
  S   S471      1.0  0.89906  0.44251  0.50861  1.0000
  C   C3503     1.0  0.90137  0.25467  0.82995  1.0000
  C   C3504     1.0  0.83495  0.28782  0.83625  1.0000
  C   C3505     1.0  0.87255  0.27139  0.62002  1.0000
  H   H2815     1.0  0.87528  0.40317  0.98679  1.0000
  C   C3506     1.0  0.97384  0.47588  0.85566  1.0000
  Fe  Fe235     1.0  0.80118  0.25587  0.58313  1.0000
  C   C3507     1.0  0.92188  0.49865  0.86701  1.0000
  S   S472      1.0  0.91283  0.39558  0.51353  1.0000
  H   H2816     1.0  0.96212  0.47933  0.62797  1.0000
  C   C3508     1.0  0.84516  0.49455  0.81547  1.0000
  H   H2817     1.0  0.88626  0.48715  0.82420  1.0000
  C   C3509     1.0  0.87592  0.49357  0.82661  1.0000
  H   H2818     1.0  0.88322  0.49973  0.94069  1.0000
  C   C3510     1.0  0.79151  0.25665  0.91435  1.0000
  H   H2819     1.0  0.95107  0.48515  0.58303  1.0000
  H   H2820     1.0  0.85175  0.30557  0.49606  1.0000
  H   H2821     1.0  0.81516  0.25923  0.64716  1.0000
  Fe  Fe236     1.0  0.92104  0.49578  0.72552  1.0000
  H   H2822     1.0  0.69277  0.47967  0.49376  1.0000
  H   H2823     1.0  0.69246  0.49428  0.98564  1.0000
  C   C3511     1.0  0.79601  0.25500  0.94153  1.0000
  C   C3512     1.0  0.99190  0.48995  0.61760  1.0000
  C   C3513     1.0  0.83874  0.25363  0.82460  1.0000
  C   C3514     1.0  0.87839  0.25233  0.86432  1.0000
  C   C3515     1.0  0.86678  0.25306  0.63045  1.0000
  C   C3516     1.0  0.99221  0.48255  0.86778  1.0000
  H   H2824     1.0  0.99189  0.44666  0.98209  1.0000
  S   S473      1.0  0.93302  0.52377  0.28253  1.0000
  C   C3517     1.0  0.67779  0.56326  0.46489  1.0000
  H   H2825     1.0  0.82980  0.50356  0.34137  1.0000
  S   S474      1.0  0.97556  0.54021  0.23395  1.0000
  C   C3518     1.0  0.71089  0.52285  0.20906  1.0000
  S   S475      1.0  0.89693  0.54483  0.26113  1.0000
  S   S476      1.0  0.82649  0.71806  0.32382  1.0000
  Fe  Fe237     1.0  0.82327  0.61708  0.30298  1.0000
  S   S477      1.0  0.79304  0.61444  0.29889  1.0000
  S   S478      1.0  0.84769  0.64605  0.30770  1.0000
  Fe  Fe238     1.0  0.81169  0.57418  0.29769  1.0000
  S   S479      1.0  0.78025  0.56856  0.29338  1.0000
  S   S480      1.0  0.81839  0.54763  0.29764  1.0000
  Fe  Fe239     1.0  0.78996  0.59348  0.26577  1.0000
  S   S481      1.0  0.77333  0.59792  0.23025  1.0000
  Fe  Fe240     1.0  0.78618  0.58999  0.32694  1.0000
  S   S482      1.0  0.76465  0.58824  0.35855  1.0000
  S   S483      1.0  0.82094  0.59776  0.26754  1.0000
  S   S484      1.0  0.81683  0.59388  0.33346  1.0000
  S   S485      1.0  0.88786  0.70009  0.09051  1.0000
  Fe  Fe241     1.0  0.77305  0.59126  0.01566  1.0000
  S   S486      1.0  0.76199  0.61460  0.01487  1.0000
  H   H2826     1.0  0.73924  0.54606  0.35801  1.0000
  Fe  Fe242     1.0  0.77208  0.58893  0.07666  1.0000
  S   S487      1.0  0.76106  0.61208  0.08039  1.0000
  S   S488      1.0  0.77859  0.57281  0.11081  1.0000
  Fe  Fe243     1.0  0.74122  0.59721  0.04565  1.0000
  S   S489      1.0  0.71014  0.59402  0.04846  1.0000
  Fe  Fe244     1.0  0.78278  0.62726  0.04965  1.0000
  S   S490      1.0  0.80002  0.65928  0.05261  1.0000
  S   S491      1.0  0.75088  0.57298  0.04408  1.0000
  S   S492      1.0  0.79522  0.60509  0.04829  1.0000
  C   C3519     1.0  0.86344  0.68885  0.07980  1.0000
  C   C3520     1.0  0.85345  0.69931  0.06916  1.0000
  C   C3521     1.0  0.83400  0.69006  0.06132  1.0000
  C   C3522     1.0  0.82437  0.67022  0.06357  1.0000
  C   C3523     1.0  0.83432  0.65970  0.07414  1.0000
  C   C3524     1.0  0.85373  0.66900  0.08237  1.0000
  H   H2827     1.0  0.86068  0.71454  0.06691  1.0000
  H   H2828     1.0  0.82648  0.69834  0.05310  1.0000
  H   H2829     1.0  0.82711  0.64442  0.07582  1.0000
  H   H2830     1.0  0.86128  0.66075  0.09061  1.0000
  C   C3525     1.0  0.77759  0.58033  0.14393  1.0000
  C   C3526     1.0  0.77027  0.59407  0.14957  1.0000
  C   C3527     1.0  0.76926  0.59945  0.17619  1.0000
  C   C3528     1.0  0.77600  0.59149  0.19727  1.0000
  C   C3529     1.0  0.78346  0.57784  0.19172  1.0000
  C   C3530     1.0  0.78398  0.57209  0.16507  1.0000
  H   H2831     1.0  0.76517  0.60039  0.13353  1.0000
  H   H2832     1.0  0.76320  0.60981  0.18047  1.0000
  H   H2833     1.0  0.78836  0.57138  0.20794  1.0000
  H   H2834     1.0  0.78920  0.56114  0.16079  1.0000
  C   C3531     1.0  0.77164  0.58897  0.39265  1.0000
  C   C3532     1.0  0.78748  0.58503  0.40041  1.0000
  C   C3533     1.0  0.79251  0.58522  0.42769  1.0000
  C   C3534     1.0  0.78209  0.58981  0.44740  1.0000
  C   C3535     1.0  0.76637  0.59398  0.43968  1.0000
  C   C3536     1.0  0.76103  0.59334  0.41237  1.0000
  H   H2835     1.0  0.79563  0.58147  0.38544  1.0000
  H   H2836     1.0  0.80454  0.58179  0.43361  1.0000
  H   H2837     1.0  0.75831  0.59755  0.45477  1.0000
  H   H2838     1.0  0.74873  0.59635  0.40650  1.0000
  C   C3537     1.0  0.83291  0.69827  0.32097  1.0000
  C   C3538     1.0  0.81877  0.67984  0.32342  1.0000
  C   C3539     1.0  0.82324  0.66375  0.32020  1.0000
  C   C3540     1.0  0.84181  0.66593  0.31384  1.0000
  C   C3541     1.0  0.85606  0.68436  0.31214  1.0000
  C   C3542     1.0  0.85166  0.70047  0.31576  1.0000
  H   H2839     1.0  0.80426  0.67799  0.32765  1.0000
  H   H2840     1.0  0.81229  0.64972  0.32276  1.0000
  H   H2841     1.0  0.87049  0.68620  0.30768  1.0000
  H   H2842     1.0  0.86272  0.71453  0.31374  1.0000
  C   C3543     1.0  0.87511  0.54505  0.27242  1.0000
  C   C3544     1.0  0.85914  0.52830  0.27717  1.0000
  C   C3545     1.0  0.84185  0.52935  0.28490  1.0000
  C   C3546     1.0  0.84040  0.54706  0.28797  1.0000
  C   C3547     1.0  0.85640  0.56377  0.28338  1.0000
  C   C3548     1.0  0.87369  0.56273  0.27580  1.0000
  C   C3549     1.0  0.67570  0.57885  0.24289  1.0000
  H   H2843     1.0  0.82945  0.51639  0.28819  1.0000
  H   H2844     1.0  0.85548  0.57748  0.28578  1.0000
  H   H2845     1.0  0.88606  0.57571  0.27245  1.0000
  H   H2846     1.0  0.99148  0.54624  0.48999  1.0000
  C   C3550     1.0  0.83150  0.57559  0.11348  1.0000
  C   C3551     1.0  0.67140  0.57307  0.04151  1.0000
  C   C3552     1.0  0.68990  0.57361  0.03758  1.0000
  C   C3553     1.0  0.69180  0.55795  0.02534  1.0000
  C   C3554     1.0  0.67537  0.54202  0.01700  1.0000
  H   H2847     1.0  0.66978  0.58510  0.05100  1.0000
  H   H2848     1.0  0.70591  0.55814  0.02213  1.0000
  C   C3555     1.0  0.85466  0.50329  0.15761  1.0000
  C   C3556     1.0  0.79807  0.69038  0.48422  1.0000
  C   C3557     1.0  0.71041  0.53417  0.13349  1.0000
  C   C3558     1.0  0.71946  0.54556  0.11198  1.0000
  C   C3559     1.0  0.70854  0.54998  0.09235  1.0000
  C   C3560     1.0  0.94746  0.52492  0.07213  1.0000
  C   C3561     1.0  0.83649  0.62291  0.41298  1.0000
  H   H2849     1.0  0.80465  0.68766  0.46656  1.0000
  C   C3562     1.0  0.99044  0.51239  0.23372  1.0000
  C   C3563     1.0  0.90483  0.71057  0.20364  1.0000
  H   H2850     1.0  0.82107  0.58151  0.10801  1.0000
  H   H2851     1.0  0.73494  0.55102  0.11052  1.0000
  H   H2852     1.0  0.71546  0.55893  0.07573  1.0000
  C   C3564     1.0  0.96268  0.50938  0.42880  1.0000
  H   H2853     1.0  0.82683  0.61927  0.42961  1.0000
  C   C3565     1.0  0.71172  0.57416  0.45650  1.0000
  C   C3566     1.0  0.89852  0.70862  0.26191  1.0000
  H   H2854     1.0  0.90338  0.53001  0.40308  1.0000
  H   H2855     1.0  0.73639  0.52105  0.39113  1.0000
  C   C3567     1.0  0.80418  0.53217  0.17386  1.0000
  C   C3568     1.0  0.66258  0.74367  0.48902  1.0000
  C   C3569     1.0  0.69861  0.59655  0.47180  1.0000
  H   H2856     1.0  0.71280  0.50952  0.21026  1.0000
  C   C3570     1.0  0.72688  0.54014  0.20883  1.0000
  C   C3571     1.0  0.89241  0.53061  0.36270  1.0000
  H   H2857     1.0  0.66282  0.59089  0.11200  1.0000
  C   C3572     1.0  0.68037  0.58188  0.47199  1.0000
  C   C3573     1.0  0.69044  0.52716  0.13533  1.0000
  H   H2858     1.0  0.97070  0.52028  0.28874  1.0000
  H   H2859     1.0  0.87508  0.51054  0.22023  1.0000
  C   C3574     1.0  0.81516  0.65381  0.46325  1.0000
  C   C3575     1.0  0.89765  0.53650  0.33645  1.0000
  C   C3576     1.0  0.91689  0.54642  0.33039  1.0000
  C   C3577     1.0  0.93116  0.54990  0.35022  1.0000
  C   C3578     1.0  0.92613  0.54392  0.37637  1.0000
  C   C3579     1.0  0.90683  0.53451  0.38269  1.0000
  C   C3580     1.0  0.85465  0.53313  0.37113  1.0000
  C   C3581     1.0  0.83843  0.52849  0.38703  1.0000
  C   C3582     1.0  0.82788  0.53995  0.38689  1.0000
  C   C3583     1.0  0.83328  0.55598  0.37065  1.0000
  C   C3584     1.0  0.84931  0.56064  0.35470  1.0000
  C   C3585     1.0  0.85146  0.74047  0.22279  1.0000
  H   H2860     1.0  0.93857  0.53429  0.00782  1.0000
  H   H2861     1.0  0.72372  0.50992  0.01005  1.0000
  C   C3586     1.0  0.81173  0.68431  0.23946  1.0000
  H   H2862     1.0  0.94001  0.51621  0.08867  1.0000
  H   H2863     1.0  0.91579  0.74498  0.30787  1.0000
  H   H2864     1.0  0.85353  0.73508  0.39522  1.0000
  C   C3587     1.0  0.69246  0.52279  0.20792  1.0000
  H   H2865     1.0  0.67703  0.52998  0.00762  1.0000
  H   H2866     1.0  0.85875  0.74430  0.12792  1.0000
  C   C3588     1.0  0.78560  0.52449  0.18366  1.0000
  H   H2867     1.0  0.88686  0.53337  0.32059  1.0000
  H   H2868     1.0  0.92071  0.55118  0.31012  1.0000
  H   H2869     1.0  0.94609  0.55711  0.34522  1.0000
  C   C3589     1.0  0.88080  0.71106  0.43124  1.0000
  C   C3590     1.0  0.86773  0.51272  0.20249  1.0000
  S   S493      1.0  0.92064  0.51857  0.21827  1.0000
  H   H2870     1.0  0.81525  0.53618  0.39891  1.0000
  H   H2871     1.0  0.82474  0.56449  0.36987  1.0000
  H   H2872     1.0  0.84690  0.67312  0.01474  1.0000
  C   C3591     1.0  0.71551  0.52648  0.41452  1.0000
  C   C3592     1.0  0.93755  0.72839  0.19009  1.0000
  C   C3593     1.0  0.96776  0.52226  0.33133  1.0000
  C   C3594     1.0  0.96600  0.54679  0.02854  1.0000
  C   C3595     1.0  0.72775  0.52937  0.39298  1.0000
  H   H2873     1.0  0.84287  0.73117  0.26288  1.0000
  C   C3596     1.0  0.85990  0.56993  0.19946  1.0000
  C   C3597     1.0  0.85276  0.58114  0.21459  1.0000
  C   C3598     1.0  0.86523  0.59624  0.23057  1.0000
  C   C3599     1.0  0.88490  0.60065  0.23089  1.0000
  C   C3600     1.0  0.89216  0.58988  0.21536  1.0000
  C   C3601     1.0  0.87974  0.57464  0.19959  1.0000
  H   H2874     1.0  0.92203  0.72000  0.33336  1.0000
  H   H2875     1.0  0.92761  0.72997  0.22944  1.0000
  C   C3602     1.0  0.84447  0.55999  0.14610  1.0000
  C   C3603     1.0  0.85801  0.55988  0.12749  1.0000
  C   C3604     1.0  0.85801  0.56725  0.10187  1.0000
  C   C3605     1.0  0.84461  0.57491  0.09477  1.0000
  H   H2876     1.0  0.82914  0.54414  0.23339  1.0000
  C   C3606     1.0  0.97321  0.52877  0.43401  1.0000
  C   C3607     1.0  0.81487  0.68518  0.21189  1.0000
  H   H2877     1.0  0.85725  0.73337  0.44401  1.0000
  H   H2878     1.0  0.83758  0.57811  0.21442  1.0000
  H   H2879     1.0  0.85962  0.60427  0.24324  1.0000
  H   H2880     1.0  0.89448  0.61216  0.24362  1.0000
  H   H2881     1.0  0.90737  0.59301  0.21602  1.0000
  C   C3608     1.0  0.94650  0.53515  0.02644  1.0000
  C   C3609     1.0  0.67939  0.53165  0.11573  1.0000
  C   C3610     1.0  0.69346  0.55926  0.45701  1.0000
  H   H2882     1.0  0.70070  0.61078  0.47849  1.0000
  H   H2883     1.0  0.75974  0.63108  0.27788  1.0000
  H   H2884     1.0  0.84443  0.58042  0.07483  1.0000
  H   H2885     1.0  0.86976  0.53134  0.42533  1.0000
  C   C3611     1.0  0.97661  0.53137  0.35523  1.0000
  H   H2886     1.0  0.79720  0.72196  0.45214  1.0000
  C   C3612     1.0  0.97378  0.58459  0.13386  1.0000
  C   C3613     1.0  0.78731  0.66789  0.11763  1.0000
  H   H2887     1.0  0.73919  0.64622  0.10630  1.0000
  C   C3614     1.0  0.86158  0.52774  0.20198  1.0000
  H   H2888     1.0  0.72847  0.60400  0.46442  1.0000
  H   H2889     1.0  0.93718  0.54644  0.39175  1.0000
  C   C3615     1.0  0.80760  0.72552  0.41219  1.0000
  H   H2890     1.0  0.72404  0.57142  0.45054  1.0000
  C   C3616     1.0  0.87244  0.72744  0.20236  1.0000
  H   H2891     1.0  0.81571  0.69729  0.25136  1.0000
  H   H2892     1.0  0.88547  0.69359  0.17205  1.0000
  H   H2893     1.0  0.86857  0.55413  0.13272  1.0000
  H   H2894     1.0  0.79206  0.63624  0.24649  1.0000
  H   H2895     1.0  0.66371  0.51393  0.06389  1.0000
  C   C3617     1.0  0.82734  0.72697  0.45181  1.0000
  H   H2896     1.0  0.89507  0.73327  0.40326  1.0000
  H   H2897     1.0  0.69810  0.56043  0.40018  1.0000
  C   C3618     1.0  0.84332  0.64133  0.40223  1.0000
  Fe  Fe245     1.0  0.94569  0.51987  0.24401  1.0000
  H   H2898     1.0  0.85304  0.57265  0.34136  1.0000
  C   C3619     1.0  0.83117  0.72566  0.14227  1.0000
  H   H2899     1.0  0.79635  0.53076  0.25042  1.0000
  P   P116      1.0  0.81171  0.66894  0.16045  1.0000
  C   C3620     1.0  0.78844  0.66276  0.14436  1.0000
  C   C3621     1.0  0.82691  0.69275  0.14997  1.0000
  C   C3622     1.0  0.91567  0.71686  0.31336  1.0000
  H   H2900     1.0  0.89537  0.67156  0.20840  1.0000
  H   H2901     1.0  0.88563  0.56637  0.18787  1.0000
  C   C3623     1.0  0.86848  0.50825  0.45068  1.0000
  C   C3624     1.0  0.81975  0.70717  0.15023  1.0000
  C   C3625     1.0  0.77151  0.65169  0.15736  1.0000
  C   C3626     1.0  0.75379  0.64585  0.14374  1.0000
  C   C3627     1.0  0.75283  0.65100  0.11709  1.0000
  C   C3628     1.0  0.86098  0.71812  0.24701  1.0000
  H   H2902     1.0  0.82138  0.69904  0.20288  1.0000
  C   C3629     1.0  0.82115  0.65156  0.15073  1.0000
  C   C3630     1.0  0.83863  0.65252  0.16189  1.0000
  C   C3631     1.0  0.84637  0.63955  0.15370  1.0000
  C   C3632     1.0  0.83631  0.62501  0.13531  1.0000
  C   C3633     1.0  0.81857  0.62350  0.12488  1.0000
  C   C3634     1.0  0.81107  0.63680  0.13231  1.0000
  H   H2903     1.0  0.68379  0.51834  0.15204  1.0000
  C   C3635     1.0  0.85702  0.71571  0.13353  1.0000
  H   H2904     1.0  0.85802  0.60215  0.37178  1.0000
  C   C3636     1.0  0.91212  0.73089  0.29911  1.0000
  H   H2905     1.0  0.83078  0.64412  0.24678  1.0000
  C   C3637     1.0  0.93721  0.52441  0.04831  1.0000
  C   C3638     1.0  0.84194  0.60890  0.40222  1.0000
  H   H2906     1.0  0.80532  0.70409  0.15659  1.0000
  H   H2907     1.0  0.77186  0.64721  0.17776  1.0000
  H   H2908     1.0  0.74086  0.63707  0.15372  1.0000
  H   H2909     1.0  0.84385  0.62318  0.22437  1.0000
  C   C3639     1.0  0.88096  0.66590  0.21586  1.0000
  H   H2910     1.0  0.84648  0.66361  0.17639  1.0000
  H   H2911     1.0  0.86026  0.64087  0.16133  1.0000
  H   H2912     1.0  0.84235  0.61502  0.12897  1.0000
  H   H2913     1.0  0.81070  0.61220  0.11063  1.0000
  H   H2914     1.0  0.79750  0.63549  0.12338  1.0000
  C   C3640     1.0  0.90002  0.70309  0.17748  1.0000
  C   C3641     1.0  0.91403  0.70784  0.15804  1.0000
  C   C3642     1.0  0.98446  0.57075  0.17109  1.0000
  C   C3643     1.0  0.71845  0.55440  0.37679  1.0000
  C   C3644     1.0  0.93280  0.72036  0.16437  1.0000
  C   C3645     1.0  0.70473  0.53767  0.41745  1.0000
  C   C3646     1.0  0.87199  0.71686  0.22547  1.0000
  H   H2915     1.0  0.67271  0.56478  0.12414  1.0000
  H   H2916     1.0  0.98806  0.57069  0.19224  1.0000
  C   C3647     1.0  0.97436  0.57023  0.11677  1.0000
  H   H2917     1.0  0.80432  0.65637  0.45148  1.0000
  C   C3648     1.0  0.72930  0.54340  0.37423  1.0000
  C   C3649     1.0  0.96958  0.51422  0.12120  1.0000
  P   P117      1.0  0.98043  0.53711  0.10502  1.0000
  H   H2918     1.0  0.84862  0.67887  0.24773  1.0000
  H   H2919     1.0  0.86003  0.51459  0.27460  1.0000
  H   H2920     1.0  0.88960  0.71882  0.44822  1.0000
  C   C3650     1.0  0.97625  0.54756  0.05244  1.0000
  H   H2921     1.0  0.91028  0.70202  0.13786  1.0000
  H   H2922     1.0  0.82180  0.72979  0.37463  1.0000
  C   C3651     1.0  0.71428  0.59269  0.46407  1.0000
  C   C3652     1.0  0.97983  0.55590  0.12681  1.0000
  C   C3653     1.0  0.85495  0.64518  0.37974  1.0000
  P   P118      1.0  0.88697  0.70347  0.22913  1.0000
  C   C3654     1.0  0.80957  0.72457  0.43994  1.0000
  C   C3655     1.0  0.83193  0.65421  0.45152  1.0000
  C   C3656     1.0  0.86638  0.69294  0.43467  1.0000
  P   P119      1.0  0.83618  0.65933  0.41643  1.0000
  C   C3657     1.0  0.85995  0.54927  0.35484  1.0000
  C   C3658     1.0  0.85488  0.68287  0.41269  1.0000
  H   H2923     1.0  0.92209  0.51531  0.04662  1.0000
  H   H2924     1.0  0.87671  0.63685  0.20656  1.0000
  C   C3659     1.0  0.79833  0.64989  0.23677  1.0000
  C   C3660     1.0  0.68865  0.54311  0.09425  1.0000
  C   C3661     1.0  0.85775  0.69150  0.38749  1.0000
  C   C3662     1.0  0.83172  0.56857  0.13923  1.0000
  C   C3663     1.0  0.85083  0.72990  0.24575  1.0000
  C   C3664     1.0  0.90241  0.69465  0.27612  1.0000
  C   C3665     1.0  0.81469  0.65859  0.39944  1.0000
  C   C3666     1.0  0.80168  0.64158  0.38752  1.0000
  C   C3667     1.0  0.78507  0.64118  0.37438  1.0000
  C   C3668     1.0  0.78131  0.65766  0.37310  1.0000
  C   C3669     1.0  0.79413  0.67461  0.38507  1.0000
  C   C3670     1.0  0.81071  0.67507  0.39835  1.0000
  S   S494      1.0  0.78923  0.58998  0.48131  1.0000
  H   H2925     1.0  0.91351  0.68783  0.31292  1.0000
  H   H2926     1.0  0.84871  0.68428  0.37040  1.0000
  C   C3671     1.0  0.84843  0.51831  0.15710  1.0000
  H   H2927     1.0  0.68044  0.54682  0.07897  1.0000
  H   H2928     1.0  0.80428  0.62861  0.38822  1.0000
  H   H2929     1.0  0.77517  0.62806  0.36501  1.0000
  H   H2930     1.0  0.76855  0.65732  0.36259  1.0000
  H   H2931     1.0  0.79140  0.68748  0.38362  1.0000
  H   H2932     1.0  0.82049  0.68834  0.40750  1.0000
  H   H2933     1.0  0.76900  0.66568  0.08321  1.0000
  C   C3672     1.0  0.76959  0.66205  0.10409  1.0000
  H   H2934     1.0  0.80095  0.66602  0.27315  1.0000
  C   C3673     1.0  0.81710  0.53897  0.21928  1.0000
  C   C3674     1.0  0.79852  0.53125  0.22901  1.0000
  C   C3675     1.0  0.99232  0.53730  0.42648  1.0000
  C   C3676     1.0  0.67939  0.57636  0.21602  1.0000
  C   C3677     1.0  0.85241  0.53102  0.17902  1.0000
  P   P120      1.0  0.70326  0.57992  0.20587  1.0000
  C   C3678     1.0  0.72096  0.59640  0.22876  1.0000
  C   C3679     1.0  0.70601  0.55745  0.20649  1.0000
  C   C3680     1.0  0.72444  0.55734  0.20761  1.0000
  C   C3681     1.0  0.69867  0.52413  0.47286  1.0000
  H   H2935     1.0  0.83365  0.51579  0.39910  1.0000
  H   H2936     1.0  0.97801  0.59572  0.17435  1.0000
  C   C3682     1.0  0.68999  0.54001  0.20648  1.0000
  C   C3683     1.0  0.72504  0.58994  0.25352  1.0000
  C   C3684     1.0  0.73881  0.60249  0.27127  1.0000
  C   C3685     1.0  0.74871  0.62154  0.26439  1.0000
  C   C3686     1.0  0.74483  0.62809  0.23978  1.0000
  C   C3687     1.0  0.73099  0.61561  0.22202  1.0000
  C   C3688     1.0  0.70688  0.58964  0.17254  1.0000
  C   C3689     1.0  0.69885  0.60267  0.16483  1.0000
  C   C3690     1.0  0.70132  0.61003  0.13895  1.0000
  C   C3691     1.0  0.71194  0.60458  0.12068  1.0000
  C   C3692     1.0  0.72028  0.59197  0.12836  1.0000
  C   C3693     1.0  0.71781  0.58451  0.15417  1.0000
  C   C3694     1.0  0.97730  0.52765  0.30725  1.0000
  H   H2937     1.0  0.90098  0.73781  0.26269  1.0000
  C   C3695     1.0  0.78277  0.52419  0.21123  1.0000
  C   C3696     1.0  0.97873  0.58479  0.16103  1.0000
  H   H2938     1.0  0.68709  0.58336  0.25798  1.0000
  H   H2939     1.0  0.73697  0.57062  0.20773  1.0000
  C   C3697     1.0  0.86582  0.50598  0.40203  1.0000
  H   H2940     1.0  0.74468  0.54349  0.00037  1.0000
  H   H2941     1.0  0.96927  0.52688  0.37388  1.0000
  H   H2942     1.0  0.97035  0.57030  0.09586  1.0000
  H   H2943     1.0  0.71781  0.57514  0.25899  1.0000
  H   H2944     1.0  0.74225  0.59731  0.29004  1.0000
  H   H2945     1.0  0.95483  0.52361  0.15140  1.0000
  H   H2946     1.0  0.85975  0.65885  0.37011  1.0000
  H   H2947     1.0  0.72844  0.62098  0.20299  1.0000
  H   H2948     1.0  0.69072  0.60718  0.17883  1.0000
  H   H2949     1.0  0.69507  0.62001  0.13301  1.0000
  H   H2950     1.0  0.71386  0.61025  0.10060  1.0000
  H   H2951     1.0  0.72869  0.58797  0.11420  1.0000
  H   H2952     1.0  0.72453  0.57484  0.15956  1.0000
  H   H2953     1.0  0.86321  0.74786  0.18367  1.0000
  H   H2954     1.0  0.85826  0.65005  0.45845  1.0000
  H   H2955     1.0  0.86407  0.53683  0.21954  1.0000
  C   C3698     1.0  0.88386  0.71926  0.40593  1.0000
  Fe  Fe246     1.0  0.90696  0.52044  0.25722  1.0000
  C   C3699     1.0  0.82005  0.54001  0.19160  1.0000
  H   H2956     1.0  0.83663  0.59476  0.41066  1.0000
  H   H2957     1.0  0.88119  0.72735  0.18563  1.0000
  C   C3700     1.0  0.91092  0.69878  0.30181  1.0000
  H   H2958     1.0  0.89854  0.68048  0.26775  1.0000
  H   H2959     1.0  0.86079  0.71049  0.26518  1.0000
  H   H2960     1.0  0.86429  0.68704  0.45452  1.0000
  H   H2961     1.0  0.72010  0.56558  0.36255  1.0000
  H   H2962     1.0  0.82560  0.73673  0.14251  1.0000
  H   H2963     1.0  0.87189  0.55288  0.34161  1.0000
  H   H2964     1.0  0.75285  0.64277  0.23428  1.0000
  H   H2965     1.0  0.82287  0.64056  0.02255  1.0000
  H   H2966     1.0  0.80020  0.67596  0.10690  1.0000
  Fe  Fe247     1.0  0.90428  0.73232  0.08697  1.0000
  H   H2967     1.0  0.80607  0.53206  0.15245  1.0000
  H   H2968     1.0  0.86904  0.63414  0.35136  1.0000
  P   P121      1.0  0.86744  0.51753  0.37011  1.0000
  C   C3701     1.0  0.85398  0.61305  0.38035  1.0000
  H   H2969     1.0  0.98946  0.54563  0.16231  1.0000
  H   H2970     1.0  0.74124  0.54034  0.20984  1.0000
  H   H2971     1.0  0.86834  0.56697  0.08745  1.0000
  P   P122      1.0  0.69039  0.53548  0.44661  1.0000
  H   H2972     1.0  0.94790  0.50271  0.43484  1.0000
  H   H2973     1.0  0.95198  0.73849  0.19480  1.0000
  C   C3702     1.0  0.87053  0.64615  0.21508  1.0000
  C   C3703     1.0  0.85214  0.63841  0.22531  1.0000
  C   C3704     1.0  0.84449  0.65030  0.23726  1.0000
  C   C3705     1.0  0.85476  0.67006  0.23786  1.0000
  C   C3706     1.0  0.87292  0.67809  0.22655  1.0000
  C   C3707     1.0  0.80339  0.66668  0.25184  1.0000
  C   C3708     1.0  0.66530  0.52132  0.43937  1.0000
  C   C3709     1.0  0.87229  0.70952  0.38409  1.0000
  C   C3710     1.0  0.86032  0.63111  0.36898  1.0000
  C   C3711     1.0  0.82338  0.72906  0.39613  1.0000
  H   H2974     1.0  0.66645  0.56750  0.17648  1.0000
  H   H2975     1.0  0.87143  0.71902  0.12679  1.0000
  C   C3712     1.0  0.84559  0.69714  0.14116  1.0000
  C   C3713     1.0  0.92363  0.72352  0.20969  1.0000
  H   H2976     1.0  0.87449  0.71601  0.36454  1.0000
  H   H2977     1.0  0.67558  0.53957  0.20562  1.0000
  H   H2978     1.0  0.99134  0.55677  0.05368  1.0000
  H   H2979     1.0  0.97323  0.55513  0.01159  1.0000
  H   H2980     1.0  0.96667  0.53710  0.44432  1.0000
  C   C3714     1.0  0.86217  0.73914  0.20109  1.0000
  H   H2981     1.0  0.79387  0.72354  0.40303  1.0000
  C   C3715     1.0  0.80963  0.66831  0.19650  1.0000
  P   P123      1.0  0.84404  0.55016  0.17903  1.0000
  H   H2982     1.0  0.71893  0.53080  0.14870  1.0000
  H   H2983     1.0  0.79770  0.63740  0.19800  1.0000
  C   C3716     1.0  0.84981  0.72993  0.13396  1.0000
  H   H2984     1.0  0.82183  0.56974  0.15367  1.0000
  C   C3717     1.0  0.83944  0.66402  0.99787  1.0000
  H   H2985     1.0  0.85143  0.68638  0.13949  1.0000
  C   C3718     1.0  0.80166  0.65064  0.20930  1.0000
  H   H2986     1.0  0.95366  0.51079  0.33149  1.0000
  C   C3719     1.0  0.70613  0.55151  0.39823  1.0000
  C   C3720     1.0  0.84536  0.65008  0.46722  1.0000
  C   C3721     1.0  0.84325  0.73094  0.43552  1.0000
  C   C3722     1.0  0.96710  0.53637  0.07430  1.0000
  S   S495      1.0  0.92444  0.74677  0.05400  1.0000
  C   C3723     1.0  0.90365  0.72680  0.27348  1.0000
  H   H2987     1.0  0.94353  0.72413  0.14908  1.0000
  C   C3724     1.0  0.84121  0.73193  0.40777  1.0000
  H   H2988     1.0  0.96933  0.59548  0.12607  1.0000
  H   H2989     1.0  0.66831  0.58481  0.47860  1.0000
  H   H2990     1.0  0.77404  0.66319  0.48145  1.0000
  C   C3725     1.0  0.82585  0.64566  0.00231  1.0000
  H   H2991     1.0  0.71487  0.51581  0.42907  1.0000
  H   H2992     1.0  0.66711  0.52431  0.39626  1.0000
  H   H2993     1.0  0.66360  0.55211  0.46595  1.0000
  Fe  Fe248     1.0  0.84980  0.74786  0.32731  1.0000
  C   C3726     1.0  0.86798  0.51654  0.42590  1.0000
  H   H2994     1.0  0.76840  0.51834  0.21888  1.0000
  H   H2995     1.0  0.97925  0.51167  0.00552  1.0000
  H   H2996     1.0  0.77341  0.51888  0.16983  1.0000
  P   P124      1.0  0.82938  0.72519  0.48768  1.0000
  H   H2997     1.0  0.72336  0.75130  0.40928  1.0000
  H   H2998     1.0  0.68005  0.50940  0.20821  1.0000
  H   H2999     1.0  0.87049  0.51654  0.46901  1.0000
  C   C3727     1.0  0.66407  0.57004  0.19718  1.0000
  C   C3728     1.0  0.98518  0.55649  0.15405  1.0000
  C   C3729     1.0  0.69125  0.50412  0.47410  1.0000
  H   H3000     1.0  0.87063  0.74693  0.49039  1.0000
  C   C3730     1.0  0.95820  0.51204  0.14380  1.0000
  C   C3731     1.0  0.99061  0.50681  0.40922  1.0000
  H   H3001     1.0  0.84055  0.51999  0.13965  1.0000
  H   H3002     1.0  0.84411  0.75008  0.22207  1.0000
  S   S496      1.0  0.92475  0.74984  0.11961  1.0000
  C   C3732     1.0  0.78070  0.67656  0.49247  1.0000
  C   C3733     1.0  0.81215  0.64980  0.49046  1.0000
  S   S497      1.0  0.88884  0.75178  0.08465  1.0000
  C   C3734     1.0  0.71905  0.51783  0.99557  1.0000
  H   H3003     1.0  0.66178  0.75181  0.44804  1.0000
  C   C3735     1.0  0.71380  0.53493  0.49045  1.0000
  H   H3004     1.0  0.72001  0.55034  0.48987  1.0000
  C   C3736     1.0  0.82245  0.54063  0.72302  1.0000
  S   S498      1.0  0.93326  0.52740  0.71951  1.0000
  C   C3737     1.0  0.88333  0.72798  0.50454  1.0000
  H   H3005     1.0  0.91110  0.52605  0.96110  1.0000
  Fe  Fe249     1.0  0.91397  0.52839  0.75277  1.0000
  S   S499      1.0  0.90232  0.55170  0.74823  1.0000
  S   S500      1.0  0.83143  0.72018  0.84126  1.0000
  Fe  Fe250     1.0  0.82670  0.62400  0.78897  1.0000
  S   S501      1.0  0.79604  0.61952  0.79196  1.0000
  S   S502      1.0  0.84877  0.65407  0.78405  1.0000
  Fe  Fe251     1.0  0.81757  0.58144  0.79191  1.0000
  S   S503      1.0  0.78583  0.57411  0.79576  1.0000
  S   S504      1.0  0.82596  0.55584  0.79249  1.0000
  Fe  Fe252     1.0  0.78988  0.59530  0.76297  1.0000
  S   S505      1.0  0.76788  0.59349  0.73058  1.0000
  Fe  Fe253     1.0  0.79488  0.59902  0.82458  1.0000
  S   S506      1.0  0.77880  0.60311  0.86019  1.0000
  S   S507      1.0  0.82089  0.60115  0.75720  1.0000
  S   S508      1.0  0.82623  0.60487  0.82340  1.0000
  S   S509      1.0  0.88532  0.70809  0.58386  1.0000
  Fe  Fe254     1.0  0.77487  0.59789  0.51592  1.0000
  S   S510      1.0  0.76194  0.61976  0.51620  1.0000
  C   C3738     1.0  0.73698  0.54596  0.87907  1.0000
  Fe  Fe255     1.0  0.76998  0.59144  0.57607  1.0000
  S   S511      1.0  0.75681  0.61286  0.58085  1.0000
  S   S512      1.0  0.77740  0.57528  0.60919  1.0000
  Fe  Fe256     1.0  0.73991  0.59933  0.54313  1.0000
  S   S513      1.0  0.70847  0.59495  0.53888  1.0000
  Fe  Fe257     1.0  0.77998  0.63115  0.55382  1.0000
  S   S514      1.0  0.79568  0.66315  0.56088  1.0000
  S   S515      1.0  0.75166  0.57658  0.54010  1.0000
  S   S516      1.0  0.79428  0.61062  0.55176  1.0000
  C   C3739     1.0  0.86020  0.69571  0.57915  1.0000
  C   C3740     1.0  0.84830  0.70541  0.57386  1.0000
  C   C3741     1.0  0.82859  0.69519  0.56858  1.0000
  C   C3742     1.0  0.82049  0.67517  0.56861  1.0000
  C   C3743     1.0  0.83227  0.66542  0.57463  1.0000
  C   C3744     1.0  0.85205  0.67566  0.57978  1.0000
  H   H3006     1.0  0.85431  0.72077  0.57335  1.0000
  H   H3007     1.0  0.81960  0.70287  0.56426  1.0000
  H   H3008     1.0  0.82617  0.65001  0.57531  1.0000
  H   H3009     1.0  0.86112  0.66802  0.58404  1.0000
  C   C3745     1.0  0.77564  0.58148  0.64276  1.0000
  C   C3746     1.0  0.78474  0.57524  0.66313  1.0000
  C   C3747     1.0  0.78297  0.57938  0.69016  1.0000
  C   C3748     1.0  0.77186  0.58954  0.69694  1.0000
  C   C3749     1.0  0.76287  0.59587  0.67657  1.0000
  C   C3750     1.0  0.76488  0.59201  0.64954  1.0000
  H   H3010     1.0  0.79304  0.56704  0.65800  1.0000
  H   H3011     1.0  0.78972  0.57428  0.70580  1.0000
  H   H3012     1.0  0.75420  0.60368  0.68175  1.0000
  H   H3013     1.0  0.75768  0.59675  0.63408  1.0000
  C   C3751     1.0  0.78099  0.59676  0.89369  1.0000
  C   C3752     1.0  0.78924  0.58385  0.90035  1.0000
  C   C3753     1.0  0.78942  0.57815  0.92711  1.0000
  C   C3754     1.0  0.78166  0.58554  0.94739  1.0000
  C   C3755     1.0  0.77393  0.59887  0.94081  1.0000
  C   C3756     1.0  0.77341  0.60429  0.91402  1.0000
  H   H3014     1.0  0.79506  0.57798  0.88478  1.0000
  H   H3015     1.0  0.79547  0.56788  0.93216  1.0000
  H   H3016     1.0  0.76811  0.60480  0.95630  1.0000
  H   H3017     1.0  0.76706  0.61434  0.90899  1.0000
  C   C3757     1.0  0.83664  0.70199  0.82549  1.0000
  C   C3758     1.0  0.85280  0.70621  0.80977  1.0000
  C   C3759     1.0  0.85635  0.69146  0.79708  1.0000
  C   C3760     1.0  0.84391  0.67234  0.80020  1.0000
  C   C3761     1.0  0.82789  0.66814  0.81620  1.0000
  C   C3762     1.0  0.82419  0.68292  0.82850  1.0000
  H   H3018     1.0  0.86234  0.72084  0.80676  1.0000
  H   H3019     1.0  0.86876  0.69492  0.78474  1.0000
  H   H3020     1.0  0.81840  0.65352  0.81935  1.0000
  H   H3021     1.0  0.81162  0.67961  0.84039  1.0000
  C   C3763     1.0  0.88132  0.55262  0.76185  1.0000
  C   C3764     1.0  0.87959  0.57030  0.76344  1.0000
  C   C3765     1.0  0.86280  0.57159  0.77286  1.0000
  C   C3766     1.0  0.84750  0.55515  0.78064  1.0000
  C   C3767     1.0  0.84929  0.53751  0.77928  1.0000
  C   C3768     1.0  0.86616  0.53623  0.77013  1.0000
  H   H3022     1.0  0.89138  0.58312  0.75757  1.0000
  H   H3023     1.0  0.86168  0.58526  0.77420  1.0000
  H   H3024     1.0  0.83738  0.52473  0.78490  1.0000
  H   H3025     1.0  0.86726  0.52254  0.76895  1.0000
  C   C3769     1.0  0.84893  0.58996  0.64309  1.0000
  H   H3026     1.0  0.86246  0.73450  0.88666  1.0000
  C   C3770     1.0  0.67008  0.57185  0.53476  1.0000
  C   C3771     1.0  0.68883  0.57245  0.53678  1.0000
  C   C3772     1.0  0.69141  0.55529  0.53683  1.0000
  C   C3773     1.0  0.67544  0.53776  0.53443  1.0000
  C   C3774     1.0  0.91158  0.57424  0.81526  1.0000
  H   H3027     1.0  0.70570  0.55550  0.53869  1.0000
  C   C3775     1.0  0.83787  0.53940  0.70960  1.0000
  C   C3776     1.0  0.83043  0.57242  0.70592  1.0000
  C   C3777     1.0  0.82755  0.58570  0.59514  1.0000
  C   C3778     1.0  0.82602  0.59742  0.61573  1.0000
  C   C3779     1.0  0.66678  0.54503  0.63333  1.0000
  H   H3028     1.0  0.81621  0.60450  0.61335  1.0000
  P   P125      1.0  0.86178  0.59184  0.67452  1.0000
  C   C3780     1.0  0.84318  0.67078  0.97176  1.0000
  H   H3029     1.0  0.90309  0.60813  0.85073  1.0000
  H   H3030     1.0  0.74946  0.56363  0.84528  1.0000
  C   C3781     1.0  0.83638  0.59929  0.63978  1.0000
  C   C3782     1.0  0.73007  0.57309  0.86574  1.0000
  C   C3783     1.0  0.86205  0.64939  0.85501  1.0000
  C   C3784     1.0  0.86279  0.63252  0.86462  1.0000
  C   C3785     1.0  0.85570  0.62591  0.88983  1.0000
  H   H3031     1.0  0.66092  0.54852  0.67481  1.0000
  H   H3032     1.0  0.86853  0.62442  0.85227  1.0000
  H   H3033     1.0  0.85600  0.61268  0.89713  1.0000
  C   C3786     1.0  0.86963  0.63086  0.67771  1.0000
  C   C3787     1.0  0.77218  0.67972  0.51547  1.0000
  C   C3788     1.0  0.67105  0.74920  0.51447  1.0000
  H   H3034     1.0  0.68038  0.54333  0.88015  1.0000
  H   H3035     1.0  0.86264  0.60173  0.73152  1.0000
  H   H3036     1.0  0.85334  0.68524  0.96905  1.0000
  C   C3789     1.0  0.90226  0.59415  0.84475  1.0000
  C   C3790     1.0  0.81580  0.63409  0.98072  1.0000
  C   C3791     1.0  0.88523  0.53518  0.89783  1.0000
  C   C3792     1.0  0.86745  0.63135  0.73348  1.0000
  C   C3793     1.0  0.91204  0.53987  0.62481  1.0000
  C   C3794     1.0  0.88901  0.55973  0.85042  1.0000
  H   H3037     1.0  0.85899  0.56983  0.62514  1.0000
  H   H3038     1.0  0.72149  0.61740  0.67709  1.0000
  H   H3039     1.0  0.84090  0.52671  0.71140  1.0000
  H   H3040     1.0  0.88894  0.60373  0.63046  1.0000
  C   C3795     1.0  0.78093  0.69677  0.53008  1.0000
  C   C3796     1.0  0.86558  0.72386  0.89777  1.0000
  H   H3041     1.0  0.92570  0.71311  0.68053  1.0000
  H   H3042     1.0  0.82325  0.64277  0.52694  1.0000
  C   C3797     1.0  0.91209  0.58493  0.68748  1.0000
  C   C3798     1.0  0.98262  0.59163  0.65198  1.0000
  C   C3799     1.0  0.97939  0.51400  0.89485  1.0000
  Fe  Fe258     1.0  0.89909  0.74057  0.58488  1.0000
  H   H3043     1.0  0.96485  0.74702  0.53977  1.0000
  C   C3800     1.0  0.89993  0.70927  0.65791  1.0000
  C   C3801     1.0  0.91053  0.70999  0.68145  1.0000
  C   C3802     1.0  0.90150  0.70654  0.70610  1.0000
  C   C3803     1.0  0.88193  0.70259  0.70727  1.0000
  C   C3804     1.0  0.87138  0.70254  0.68380  1.0000
  C   C3805     1.0  0.88040  0.70541  0.65904  1.0000
  P   P126      1.0  0.84607  0.69694  0.68510  1.0000
  C   C3806     1.0  0.83450  0.67130  0.68172  1.0000
  C   C3807     1.0  0.84053  0.70610  0.71574  1.0000
  H   H3044     1.0  0.68216  0.51194  0.95201  1.0000
  C   C3808     1.0  0.66068  0.53219  0.94165  1.0000
  H   H3045     1.0  0.81123  0.68635  0.65063  1.0000
  C   C3809     1.0  0.73078  0.53677  0.99033  1.0000
  H   H3046     1.0  0.94372  0.74953  0.50267  1.0000
  C   C3810     1.0  0.83039  0.66263  0.65617  1.0000
  C   C3811     1.0  0.82078  0.64284  0.65349  1.0000
  C   C3812     1.0  0.81571  0.63156  0.67628  1.0000
  C   C3813     1.0  0.82069  0.63998  0.70174  1.0000
  C   C3814     1.0  0.83029  0.65976  0.70450  1.0000
  C   C3815     1.0  0.83893  0.70922  0.65892  1.0000
  C   C3816     1.0  0.82105  0.70057  0.64558  1.0000
  C   C3817     1.0  0.81566  0.71028  0.62545  1.0000
  C   C3818     1.0  0.82781  0.72888  0.61904  1.0000
  C   C3819     1.0  0.84530  0.73784  0.63293  1.0000
  C   C3820     1.0  0.85086  0.72807  0.65280  1.0000
  H   H3047     1.0  0.90679  0.71170  0.63868  1.0000
  C   C3821     1.0  0.98733  0.50627  0.68151  1.0000
  P   P127      1.0  0.87337  0.53891  0.86793  1.0000
  H   H3048     1.0  0.87507  0.69969  0.72651  1.0000
  H   H3049     1.0  0.87238  0.70471  0.64055  1.0000
  S   S517      1.0  0.78140  0.57742  0.98053  1.0000
  H   H3050     1.0  0.91626  0.53505  0.58333  1.0000
  H   H3051     1.0  0.89188  0.70627  0.52058  1.0000
  H   H3052     1.0  0.70150  0.57784  0.59392  1.0000
  C   C3822     1.0  0.89049  0.57797  0.85843  1.0000
  H   H3053     1.0  0.83436  0.67115  0.63826  1.0000
  H   H3054     1.0  0.81700  0.63629  0.63374  1.0000
  H   H3055     1.0  0.80795  0.61628  0.67422  1.0000
  H   H3056     1.0  0.81691  0.63118  0.71941  1.0000
  H   H3057     1.0  0.83426  0.66595  0.72445  1.0000
  H   H3058     1.0  0.66794  0.58505  0.53484  1.0000
  C   C3823     1.0  0.88020  0.50936  0.84369  1.0000
  H   H3059     1.0  0.89389  0.51507  0.85431  1.0000
  H   H3060     1.0  0.73303  0.53432  0.52238  1.0000
  H   H3061     1.0  0.86445  0.73531  0.66341  1.0000
  C   C3824     1.0  0.84383  0.55123  0.85863  1.0000
  H   H3062     1.0  0.86137  0.55333  0.68401  1.0000
  C   C3825     1.0  0.84638  0.57159  0.69320  1.0000
  C   C3826     1.0  0.92064  0.54476  0.65028  1.0000
  C   C3827     1.0  0.95140  0.54868  0.63209  1.0000
  C   C3828     1.0  0.94024  0.54920  0.65388  1.0000
  P   P128      1.0  0.97666  0.55434  0.63774  1.0000
  H   H3063     1.0  0.80505  0.61995  0.98424  1.0000
  H   H3064     1.0  0.83063  0.73485  0.90361  1.0000
  H   H3065     1.0  0.93562  0.59065  0.66101  1.0000
  H   H3066     1.0  0.72440  0.51499  0.56774  1.0000
  H   H3067     1.0  0.75912  0.66870  0.52248  1.0000
  H   H3068     1.0  0.66643  0.73944  0.53105  1.0000
  C   C3829     1.0  0.96507  0.51875  0.66251  1.0000
  H   H3069     1.0  0.86662  0.50524  0.90058  1.0000
  H   H3070     1.0  0.81364  0.52902  0.73545  1.0000
  H   H3071     1.0  0.70596  0.58247  0.68025  1.0000
  C   C3830     1.0  0.83192  0.72102  0.76278  1.0000
  H   H3072     1.0  0.89473  0.74271  0.90730  1.0000
  C   C3831     1.0  0.98168  0.51782  0.81281  1.0000
  H   H3073     1.0  0.88694  0.58073  0.70958  1.0000
  C   C3832     1.0  0.98046  0.53486  0.65360  1.0000
  H   H3074     1.0  0.74096  0.61830  0.95999  1.0000
  C   C3833     1.0  0.94262  0.54364  0.60656  1.0000
  C   C3834     1.0  0.86144  0.69563  0.51292  1.0000
  C   C3835     1.0  0.71371  0.50595  0.51021  1.0000
  H   H3075     1.0  0.97521  0.50411  0.80275  1.0000
  C   C3836     1.0  0.92302  0.53932  0.60298  1.0000
  H   H3076     1.0  0.95066  0.54293  0.58935  1.0000
  H   H3077     1.0  0.97591  0.52971  0.59261  1.0000
  C   C3837     1.0  0.85219  0.54269  0.87697  1.0000
  H   H3078     1.0  0.66779  0.54249  0.59019  1.0000
  H   H3079     1.0  0.91211  0.54488  0.66735  1.0000
  H   H3080     1.0  0.67075  0.52005  0.67453  1.0000
  C   C3838     1.0  0.96438  0.51090  0.94596  1.0000
  H   H3081     1.0  0.98517  0.51547  0.87499  1.0000
  C   C3839     1.0  0.91026  0.54691  0.93251  1.0000
  C   C3840     1.0  0.85354  0.72345  0.72680  1.0000
  H   H3082     1.0  0.80211  0.70327  0.61466  1.0000
  C   C3841     1.0  0.84599  0.70007  0.50466  1.0000
  C   C3842     1.0  0.96208  0.52376  0.92786  1.0000
  C   C3843     1.0  0.89510  0.59813  0.64633  1.0000
  H   H3083     1.0  0.67637  0.56653  0.96608  1.0000
  C   C3844     1.0  0.90103  0.55014  0.90963  1.0000
  H   H3084     1.0  0.77988  0.64108  0.85676  1.0000
  C   C3845     1.0  0.71789  0.57021  0.88733  1.0000
  H   H3085     1.0  0.80719  0.55211  0.89575  1.0000
  C   C3846     1.0  0.97797  0.54436  0.83476  1.0000
  C   C3847     1.0  0.81974  0.54951  0.89059  1.0000
  H   H3086     1.0  0.89864  0.54422  0.82157  1.0000
  H   H3087     1.0  0.84036  0.56646  0.58278  1.0000
  H   H3088     1.0  0.74463  0.53680  0.87602  1.0000
  C   C3848     1.0  0.84966  0.55472  0.69444  1.0000
  H   H3089     1.0  0.81141  0.64334  0.87327  1.0000
  C   C3849     1.0  0.86513  0.61444  0.72001  1.0000
  C   C3850     1.0  0.81866  0.55706  0.72103  1.0000
  C   C3851     1.0  0.81950  0.64078  0.95459  1.0000
  C   C3852     1.0  0.90375  0.52877  0.94376  1.0000
  H   H3090     1.0  0.73261  0.58503  0.85251  1.0000
  C   C3853     1.0  0.87183  0.64775  0.69125  1.0000
  H   H3091     1.0  0.81228  0.68358  0.71933  1.0000
  C   C3854     1.0  0.85546  0.69148  0.91410  1.0000
  C   C3855     1.0  0.70846  0.53067  0.71846  1.0000
  H   H3092     1.0  0.87430  0.66065  0.68016  1.0000
  H   H3093     1.0  0.67762  0.52457  0.53451  1.0000
  H   H3094     1.0  0.72306  0.53133  0.91402  1.0000
  C   C3856     1.0  0.83355  0.65901  0.94985  1.0000
  H   H3095     1.0  0.83425  0.60769  0.65591  1.0000
  C   C3857     1.0  0.71540  0.55531  0.90523  1.0000
  P   P129      1.0  0.69995  0.55187  0.93344  1.0000
  C   C3858     1.0  0.70698  0.53849  0.95823  1.0000
  C   C3859     1.0  0.77860  0.66238  0.88424  1.0000
  H   H3096     1.0  0.88240  0.57968  0.87510  1.0000
  H   H3097     1.0  0.71615  0.61293  0.59125  1.0000
  H   H3098     1.0  0.80486  0.72362  0.53363  1.0000
  H   H3099     1.0  0.86732  0.65443  0.83533  1.0000
  C   C3860     1.0  0.70147  0.50904  0.98182  1.0000
  C   C3861     1.0  0.70446  0.57482  0.94890  1.0000
  C   C3862     1.0  0.72268  0.58969  0.94749  1.0000
  C   C3863     1.0  0.69455  0.59506  0.97737  1.0000
  H   H3100     1.0  0.66429  0.53331  0.96281  1.0000
  H   H3101     1.0  0.80683  0.55802  0.73177  1.0000
  C   C3864     1.0  0.69039  0.57771  0.96391  1.0000
  H   H3102     1.0  0.91860  0.57983  0.70358  1.0000
  H   H3103     1.0  0.87757  0.68536  0.93517  1.0000
  C   C3865     1.0  0.80653  0.74197  0.89407  1.0000
  C   C3866     1.0  0.72126  0.52585  0.50904  1.0000
  C   C3867     1.0  0.98956  0.55895  0.60675  1.0000
  H   H3104     1.0  0.83908  0.51679  0.83424  1.0000
  C   C3868     1.0  0.86794  0.73248  0.49628  1.0000
  C   C3869     1.0  0.99214  0.57416  0.68576  1.0000
  H   H3105     1.0  0.84978  0.55525  0.83900  1.0000
  H   H3106     1.0  0.91950  0.57273  0.79822  1.0000
  C   C3870     1.0  0.85149  0.70544  0.89999  1.0000
  P   P130      1.0  0.69222  0.55184  0.63900  1.0000
  C   C3871     1.0  0.70183  0.54092  0.61439  1.0000
  C   C3872     1.0  0.70311  0.57749  0.63723  1.0000
  C   C3873     1.0  0.70575  0.58632  0.61223  1.0000
  C   C3874     1.0  0.71403  0.60621  0.61065  1.0000
  C   C3875     1.0  0.71988  0.61741  0.63396  1.0000
  H   H3107     1.0  0.85023  0.53105  0.91689  1.0000
  C   C3876     1.0  0.70836  0.58886  0.66065  1.0000
  C   C3877     1.0  0.72106  0.54989  0.60718  1.0000
  C   C3878     1.0  0.72904  0.54055  0.59020  1.0000
  C   C3879     1.0  0.84931  0.73077  0.75035  1.0000
  C   C3880     1.0  0.88510  0.59131  0.66993  1.0000
  H   H3108     1.0  0.85245  0.64251  0.50634  1.0000
  C   C3881     1.0  0.69825  0.54358  0.67035  1.0000
  C   C3882     1.0  0.71699  0.55226  0.68112  1.0000
  C   C3883     1.0  0.83438  0.74815  0.50318  1.0000
  H   H3109     1.0  0.80005  0.73001  0.88024  1.0000
  C   C3884     1.0  0.89403  0.58533  0.69080  1.0000
  H   H3110     1.0  0.92076  0.60280  0.62465  1.0000
  C   C3885     1.0  0.82285  0.69664  0.72793  1.0000
  C   C3886     1.0  0.85015  0.57792  0.62251  1.0000
  H   H3111     1.0  0.82369  0.73637  0.60336  1.0000
  C   C3887     1.0  0.87872  0.51703  0.90938  1.0000
  H   H3112     1.0  0.73010  0.56387  0.61520  1.0000
  H   H3113     1.0  0.74399  0.54737  0.58513  1.0000
  C   C3888     1.0  0.79825  0.71067  0.52179  1.0000
  H   H3114     1.0  0.76469  0.66126  0.87682  1.0000
  H   H3115     1.0  0.90636  0.56425  0.90116  1.0000
  H   H3116     1.0  0.72781  0.56388  0.67088  1.0000
  C   C3889     1.0  0.92164  0.59104  0.66354  1.0000
  H   H3117     1.0  0.89772  0.73890  0.50505  1.0000
  H   H3118     1.0  0.82127  0.56111  0.85101  1.0000
  H   H3119     1.0  0.89680  0.53615  0.62207  1.0000
  C   C3890     1.0  0.96960  0.52532  0.90233  1.0000
  H   H3120     1.0  0.77456  0.69891  0.54833  1.0000
  C   C3891     1.0  0.88379  0.72846  0.90929  1.0000
  H   H3121     1.0  0.94669  0.55292  0.67378  1.0000
  C   C3892     1.0  0.67503  0.53980  0.92271  1.0000
  C   C3893     1.0  0.98618  0.54393  0.58833  1.0000
  H   H3122     1.0  0.71071  0.57980  0.89034  1.0000
  C   C3894     1.0  0.80599  0.67658  0.91456  1.0000
  H   H3123     1.0  0.81309  0.68641  0.93090  1.0000
  H   H3124     1.0  0.84289  0.63094  0.92510  1.0000
  H   H3125     1.0  0.80537  0.69631  0.76153  1.0000
  C   C3895     1.0  0.81484  0.66548  0.90287  1.0000
  H   H3126     1.0  0.91938  0.51234  0.90368  1.0000
  H   H3127     1.0  0.81141  0.63171  0.93805  1.0000
  H   H3128     1.0  0.86702  0.73134  0.71738  1.0000
  C   C3896     1.0  0.69081  0.52244  0.60452  1.0000
  C   C3897     1.0  0.84719  0.65322  0.89598  1.0000
  H   H3129     1.0  0.92171  0.60475  0.81226  1.0000
  C   C3898     1.0  0.72198  0.54602  0.70527  1.0000
  H   H3130     1.0  0.90962  0.70693  0.72437  1.0000
  C   C3899     1.0  0.91278  0.59227  0.82313  1.0000
  H   H3131     1.0  0.86650  0.63155  0.75510  1.0000
  H   H3132     1.0  0.78136  0.68391  0.91401  1.0000
  C   C3900     1.0  0.72482  0.54302  0.90070  1.0000
  C   C3901     1.0  0.84804  0.63627  0.90557  1.0000
  C   C3902     1.0  0.85423  0.65967  0.87055  1.0000
  H   H3133     1.0  0.85367  0.67267  0.86267  1.0000
  C   C3903     1.0  0.83957  0.57590  0.59854  1.0000
  H   H3134     1.0  0.82179  0.53716  0.92856  1.0000
  C   C3904     1.0  0.96856  0.50455  0.67649  1.0000
  H   H3135     1.0  0.73640  0.55314  0.71370  1.0000
  H   H3136     1.0  0.73425  0.56170  0.96798  1.0000
  S   S518      1.0  0.98581  0.54841  0.74899  1.0000
  C   C3905     1.0  0.82564  0.64586  0.50593  1.0000
  C   C3906     1.0  0.82768  0.55461  0.86542  1.0000
  C   C3907     1.0  0.80517  0.65244  0.88226  1.0000
  C   C3908     1.0  0.86570  0.61394  0.69196  1.0000
  H   H3137     1.0  0.83773  0.70211  0.89006  1.0000
  C   C3909     1.0  0.73963  0.56100  0.86164  1.0000
  C   C3910     1.0  0.69556  0.51923  0.96293  1.0000
  C   C3911     1.0  0.84412  0.53759  0.90227  1.0000
  H   H3138     1.0  0.85889  0.68163  0.52062  1.0000
  H   H3139     1.0  0.96753  0.53509  0.88824  1.0000
  H   H3140     1.0  0.92261  0.51042  0.85450  1.0000
  Fe  Fe259     1.0  0.95443  0.52896  0.75241  1.0000
  H   H3141     1.0  0.87068  0.63097  0.65612  1.0000
  H   H3142     1.0  0.82722  0.58502  0.70446  1.0000
  H   H3143     1.0  0.96875  0.55097  0.84221  1.0000
  P   P131      1.0  0.83783  0.66727  0.91584  1.0000
  C   C3912     1.0  0.78715  0.65101  0.87292  1.0000
  C   C3913     1.0  0.88799  0.71459  0.92294  1.0000
  H   H3144     1.0  0.87188  0.66086  0.72971  1.0000
  S   S519      1.0  0.93620  0.53216  0.78539  1.0000
  C   C3914     1.0  0.81871  0.70396  0.75160  1.0000
  H   H3145     1.0  0.81894  0.58383  0.57688  1.0000
  C   C3915     1.0  0.87057  0.64793  0.71912  1.0000
  C   C3916     1.0  0.78800  0.67514  0.90512  1.0000
  H   H3146     1.0  0.95039  0.51716  0.65919  1.0000
  C   C3917     1.0  0.87398  0.69609  0.92504  1.0000
  H   H3147     1.0  0.67964  0.50926  0.71730  1.0000
  C   C3918     1.0  0.72476  0.54710  0.97186  1.0000
  C   C3919     1.0  0.91322  0.59778  0.64305  1.0000
  C   C3920     1.0  0.98502  0.57502  0.65980  1.0000
  C   C3921     1.0  0.89966  0.55800  0.82868  1.0000
  H   H3148     1.0  0.82882  0.72650  0.78137  1.0000
  H   H3149     1.0  0.95459  0.51794  0.82362  1.0000
  H   H3150     1.0  0.72668  0.63280  0.63261  1.0000
  H   H3151     1.0  0.95405  0.53214  0.93346  1.0000
  H   H3152     1.0  0.71239  0.52586  0.73718  1.0000
  C   C3922     1.0  0.96994  0.52593  0.82388  1.0000
  H   H3153     1.0  0.98328  0.50936  0.75317  1.0000
  C   C3923     1.0  0.82796  0.54103  0.90901  1.0000
  H   H3154     1.0  0.90218  0.71819  0.93173  1.0000
  C   C3924     1.0  0.71698  0.60873  0.65897  1.0000
  C   C3925     1.0  0.86702  0.51791  0.84678  1.0000
  C   C3926     1.0  0.69000  0.52140  0.70731  1.0000
  H   H3155     1.0  0.71610  0.62287  0.98715  1.0000
  C   C3927     1.0  0.68494  0.52771  0.68319  1.0000
  C   C3928     1.0  0.71797  0.52227  0.58034  1.0000
  C   C3929     1.0  0.71275  0.60968  0.97599  1.0000
  C   C3930     1.0  0.69879  0.51327  0.58725  1.0000
  C   C3931     1.0  0.66975  0.53778  0.89534  1.0000
  H   H3156     1.0  0.73394  0.58777  0.93657  1.0000
  C   C3932     1.0  0.88007  0.70957  0.51300  1.0000
  H   H3157     1.0  0.97655  0.59234  0.63237  1.0000
  H   H3158     1.0  0.95821  0.50947  0.96554  1.0000
  C   C3933     1.0  0.84914  0.71859  0.49632  1.0000
  H   H3159     1.0  0.84408  0.74073  0.54092  1.0000
  H   H3160     1.0  0.67613  0.51495  0.61047  1.0000
  H   H3161     1.0  0.85968  0.74387  0.75915  1.0000
  H   H3162     1.0  0.92256  0.55842  0.94140  1.0000
  C   C3934     1.0  0.72676  0.60705  0.96085  1.0000
  Fe  Fe260     1.0  0.85431  0.74985  0.83824  1.0000
  C   C3935     1.0  0.84943  0.51037  0.83256  1.0000
  C   C3936     1.0  0.82382  0.74471  0.90727  1.0000
  H   H3163     1.0  0.83166  0.68923  0.50597  1.0000
  H   H3164     1.0  0.98602  0.62011  0.66337  1.0000
  C   C3937     1.0  0.98784  0.60732  0.66953  1.0000
  C   C3938     1.0  0.84216  0.64583  0.49430  1.0000
  C   C3939     1.0  0.98927  0.51746  0.49623  1.0000
  H   H3165     1.0  0.79934  0.64963  0.49972  1.0000
  C   C3940     1.0  0.80701  0.70751  0.49887  1.0000
  H   H3166     1.0  0.97403  0.51185  0.49904  1.0000
  C   C3941     1.0  0.88795  0.51388  0.93225  1.0000
  C   C3942     1.0  0.84144  0.75164  0.52975  1.0000
  H   H3167     1.0  0.68383  0.59693  0.98968  1.0000
  Fe  Fe261     1.0  0.85908  0.79048  0.32902  1.0000
  S   S520      1.0  0.89090  0.79795  0.33451  1.0000
  S   S521      1.0  0.84903  0.81484  0.32426  1.0000
  C   C3943     1.0  0.90835  0.77677  0.48045  1.0000
  C   C3944     1.0  0.69846  0.90832  0.48798  1.0000
  Fe  Fe262     1.0  0.88224  0.77411  0.36413  1.0000
  S   S522      1.0  0.90039  0.77210  0.39984  1.0000
  Fe  Fe263     1.0  0.88653  0.77552  0.30276  1.0000
  S   S523      1.0  0.90891  0.77597  0.27315  1.0000
  C   C3945     1.0  0.84742  0.78186  0.03677  1.0000
  C   C3946     1.0  0.66117  0.83789  0.16774  1.0000
  Fe  Fe264     1.0  0.94391  0.76630  0.08645  1.0000
  S   S524      1.0  0.93047  0.78790  0.08348  1.0000
  S   S525      1.0  0.97597  0.77168  0.09044  1.0000
  H   H3168     1.0  0.71519  0.81250  0.40204  1.0000
  C   C3947     1.0  0.68248  0.84864  0.99816  1.0000
  Fe  Fe265     1.0  0.90986  0.76738  0.05340  1.0000
  S   S526      1.0  0.89367  0.77424  0.01897  1.0000
  Fe  Fe266     1.0  0.91043  0.77031  0.11484  1.0000
  S   S527      1.0  0.89802  0.78251  0.14749  1.0000
  C   C3948     1.0  0.95382  0.82034  0.45118  1.0000
  H   H3169     1.0  0.66841  0.88132  0.06487  1.0000
  Fe  Fe267     1.0  0.72916  0.85211  0.37726  1.0000
  S   S528      1.0  0.74128  0.88376  0.37923  1.0000
  S   S529      1.0  0.69729  0.83457  0.37347  1.0000
  Fe  Fe268     1.0  0.76888  0.85100  0.37582  1.0000
  S   S530      1.0  0.78391  0.88329  0.37719  1.0000
  S   S531      1.0  0.78024  0.82744  0.38073  1.0000
  Fe  Fe269     1.0  0.76284  0.88189  0.40920  1.0000
  S   S532      1.0  0.76806  0.90254  0.44467  1.0000
  Fe  Fe270     1.0  0.76092  0.88265  0.34687  1.0000
  S   S533      1.0  0.75991  0.90332  0.31437  1.0000
  S   S534      1.0  0.74915  0.84995  0.40958  1.0000
  S   S535      1.0  0.74747  0.85060  0.34344  1.0000
  Fe  Fe271     1.0  0.76292  0.92048  0.15605  1.0000
  S   S536      1.0  0.74274  0.93545  0.15864  1.0000
  S   S537      1.0  0.77863  0.91215  0.18998  1.0000
  Fe  Fe272     1.0  0.75735  0.91527  0.09449  1.0000
  S   S538      1.0  0.73702  0.93014  0.09335  1.0000
  S   S539      1.0  0.76029  0.89615  0.06094  1.0000
  Fe  Fe273     1.0  0.75798  0.95168  0.12228  1.0000
  S   S540      1.0  0.76351  0.98369  0.12040  1.0000
  Fe  Fe274     1.0  0.72377  0.91280  0.12946  1.0000
  S   S541      1.0  0.69118  0.89683  0.12946  1.0000
  S   S542      1.0  0.77927  0.93770  0.12128  1.0000
  S   S543      1.0  0.74299  0.89699  0.12932  1.0000
  H   H3170     1.0  0.92587  0.76530  0.22834  1.0000
  C   C3949     1.0  0.68309  0.77455  0.47157  1.0000
  C   C3950     1.0  0.70607  0.78545  0.42232  1.0000
  C   C3951     1.0  0.68102  0.84812  0.17120  1.0000
  C   C3952     1.0  0.69044  0.86584  0.15889  1.0000
  C   C3953     1.0  0.68004  0.87374  0.14319  1.0000
  C   C3954     1.0  0.68921  0.84819  0.27222  1.0000
  C   C3955     1.0  0.83388  0.81580  0.43827  1.0000
  H   H3171     1.0  0.68911  0.84252  0.18396  1.0000
  H   H3172     1.0  0.70565  0.87369  0.16207  1.0000
  H   H3173     1.0  0.80621  0.97003  0.17394  1.0000
  H   H3174     1.0  0.70150  0.85912  0.45522  1.0000
  H   H3175     1.0  0.66773  0.88881  0.36382  1.0000
  C   C3956     1.0  0.75741  0.88293  0.00920  1.0000
  C   C3957     1.0  0.76398  0.89922  0.02600  1.0000
  C   C3958     1.0  0.77434  0.91703  0.01489  1.0000
  C   C3959     1.0  0.73236  0.77844  0.38983  1.0000
  H   H3176     1.0  0.68430  0.91887  0.42697  1.0000
  H   H3177     1.0  0.74960  0.86908  0.01764  1.0000
  H   H3178     1.0  0.77970  0.92964  0.02763  1.0000
  H   H3179     1.0  0.76048  0.78224  0.21204  1.0000
  C   C3960     1.0  0.76470  0.90477  0.27964  1.0000
  C   C3961     1.0  0.77561  0.89583  0.26794  1.0000
  C   C3962     1.0  0.77968  0.89816  0.24043  1.0000
  C   C3963     1.0  0.77255  0.90908  0.22424  1.0000
  C   C3964     1.0  0.76142  0.91778  0.23587  1.0000
  C   C3965     1.0  0.75771  0.91580  0.26347  1.0000
  H   H3180     1.0  0.78120  0.88743  0.28015  1.0000
  H   H3181     1.0  0.78837  0.89144  0.23164  1.0000
  H   H3182     1.0  0.75619  0.92649  0.22373  1.0000
  H   H3183     1.0  0.74950  0.92300  0.27241  1.0000
  C   C3966     1.0  0.68170  0.84407  0.38729  1.0000
  H   H3184     1.0  0.66506  0.81660  0.03774  1.0000
  C   C3967     1.0  0.89565  0.78477  0.48859  1.0000
  H   H3185     1.0  0.93271  0.81890  0.42064  1.0000
  C   C3968     1.0  0.67566  0.86661  0.41641  1.0000
  C   C3969     1.0  0.68857  0.86048  0.40356  1.0000
  H   H3186     1.0  0.88310  0.83285  0.45846  1.0000
  H   H3187     1.0  0.88738  0.87051  0.44844  1.0000
  H   H3188     1.0  0.68105  0.87891  0.42962  1.0000
  H   H3189     1.0  0.70382  0.86814  0.40683  1.0000
  C   C3970     1.0  0.82947  0.81774  0.33962  1.0000
  C   C3971     1.0  0.81772  0.80446  0.35754  1.0000
  C   C3972     1.0  0.80266  0.80764  0.36975  1.0000
  C   C3973     1.0  0.79916  0.82407  0.36422  1.0000
  C   C3974     1.0  0.81093  0.83738  0.34638  1.0000
  C   C3975     1.0  0.82599  0.83420  0.33416  1.0000
  H   H3190     1.0  0.82027  0.79179  0.36202  1.0000
  H   H3191     1.0  0.79362  0.79728  0.38350  1.0000
  H   H3192     1.0  0.80849  0.85013  0.34205  1.0000
  H   H3193     1.0  0.83506  0.84460  0.32043  1.0000
  C   C3976     1.0  0.90512  0.77694  0.23821  1.0000
  C   C3977     1.0  0.89234  0.78442  0.22787  1.0000
  C   C3978     1.0  0.89052  0.78616  0.20003  1.0000
  C   C3979     1.0  0.90109  0.78006  0.18226  1.0000
  C   C3980     1.0  0.91371  0.77232  0.19255  1.0000
  C   C3981     1.0  0.91584  0.77094  0.22047  1.0000
  H   H3194     1.0  0.88416  0.78923  0.24135  1.0000
  H   H3195     1.0  0.88078  0.79221  0.19221  1.0000
  H   H3196     1.0  0.98458  0.79782  0.44694  1.0000
  H   H3197     1.0  0.66972  0.88930  0.18629  1.0000
  C   C3982     1.0  0.89767  0.77654  0.43389  1.0000
  C   C3983     1.0  0.88461  0.78412  0.44208  1.0000
  C   C3984     1.0  0.88369  0.78831  0.46938  1.0000
  H   H3198     1.0  0.85381  0.81155  0.04444  1.0000
  C   C3985     1.0  0.97085  0.84361  0.10815  1.0000
  C   C3986     1.0  0.90940  0.77274  0.45318  1.0000
  H   H3199     1.0  0.87548  0.78700  0.42736  1.0000
  C   C3987     1.0  0.71683  0.79907  0.40388  1.0000
  H   H3200     1.0  0.67966  0.78968  0.38597  1.0000
  H   H3201     1.0  0.95985  0.78922  0.14955  1.0000
  H   H3202     1.0  0.73924  0.92011  0.45218  1.0000
  C   C3988     1.0  0.66913  0.80509  0.04375  1.0000
  H   H3203     1.0  0.82611  0.76040  0.46851  1.0000
  C   C3989     1.0  0.95363  0.80806  0.25097  1.0000
  C   C3990     1.0  0.81433  0.80797  0.44420  1.0000
  H   H3204     1.0  0.83354  0.79168  0.49011  1.0000
  H   H3205     1.0  0.98487  0.81290  0.08735  1.0000
  C   C3991     1.0  0.66725  0.78789  0.39760  1.0000
  H   H3206     1.0  0.97900  0.85203  0.09185  1.0000
  C   C3992     1.0  0.98036  0.84015  0.13051  1.0000
  H   H3207     1.0  0.68473  0.76397  0.06270  1.0000
  H   H3208     1.0  0.94211  0.79901  0.38959  1.0000
  C   C3993     1.0  0.97155  0.78736  0.16020  1.0000
  H   H3209     1.0  0.70021  0.75727  0.43794  1.0000
  C   C3994     1.0  0.97373  0.77011  0.15716  1.0000
  C   C3995     1.0  0.96533  0.80937  0.22924  1.0000
  C   C3996     1.0  0.83134  0.76263  0.48905  1.0000
  C   C3997     1.0  0.71767  0.91219  0.48229  1.0000
  H   H3210     1.0  0.87364  0.79424  0.47562  1.0000
  C   C3998     1.0  0.69361  0.91696  0.44241  1.0000
  C   C3999     1.0  0.94974  0.80358  0.40867  1.0000
  C   C4000     1.0  0.96440  0.79772  0.41607  1.0000
  H   H3211     1.0  0.94906  0.82866  0.46460  1.0000
  C   C4001     1.0  0.72165  0.82033  0.46667  1.0000
  H   H3212     1.0  0.70633  0.80657  0.26575  1.0000
  C   C4002     1.0  0.71142  0.89711  0.33869  1.0000
  C   C4003     1.0  0.80307  0.78886  0.43791  1.0000
  H   H3213     1.0  0.81620  0.84121  0.41539  1.0000
  C   C4004     1.0  0.69430  0.82417  0.24502  1.0000
  H   H3214     1.0  0.73772  0.93231  0.03251  1.0000
  H   H3215     1.0  0.78370  0.98620  0.17081  1.0000
  C   C4005     1.0  0.72992  0.79559  0.38777  1.0000
  H   H3216     1.0  0.74670  0.84315  0.48316  1.0000
  H   H3217     1.0  0.78789  0.78309  0.44178  1.0000
  C   C4006     1.0  0.66094  0.77169  0.05301  1.0000
  C   C4007     1.0  0.66191  0.83444  0.38290  1.0000
  H   H3218     1.0  0.94969  0.78060  0.48238  1.0000
  C   C4008     1.0  0.70314  0.81509  0.45540  1.0000
  C   C4009     1.0  0.83090  0.78485  0.42112  1.0000
  C   C4010     1.0  0.70680  0.84811  0.45902  1.0000
  C   C4011     1.0  0.69583  0.82918  0.45138  1.0000
  H   H3219     1.0  0.73838  0.80636  0.37388  1.0000
  C   C4012     1.0  0.65994  0.88008  0.04664  1.0000
  H   H3220     1.0  0.66233  0.84575  0.06417  1.0000
  H   H3221     1.0  0.68201  0.82580  0.44153  1.0000
  C   C4013     1.0  0.72451  0.91758  0.45659  1.0000
  C   C4014     1.0  0.83514  0.85507  0.44910  1.0000
  P   P132      1.0  0.84872  0.84029  0.44697  1.0000
  C   C4015     1.0  0.68611  0.88185  0.24760  1.0000
  C   C4016     1.0  0.70368  0.89778  0.24841  1.0000
  C   C4017     1.0  0.70897  0.91034  0.22691  1.0000
  C   C4018     1.0  0.69673  0.90729  0.20456  1.0000
  C   C4019     1.0  0.67921  0.89163  0.20363  1.0000
  C   C4020     1.0  0.67414  0.87867  0.22461  1.0000
  H   H3222     1.0  0.71351  0.90065  0.26529  1.0000
  H   H3223     1.0  0.72262  0.92246  0.22755  1.0000
  H   H3224     1.0  0.70086  0.91691  0.18775  1.0000
  H   H3225     1.0  0.97216  0.79938  0.22768  1.0000
  C   C4021     1.0  0.81133  0.98525  0.17805  1.0000
  H   H3226     1.0  0.67069  0.83494  0.10728  1.0000
  C   C4022     1.0  0.87419  0.85403  0.37445  1.0000
  C   C4023     1.0  0.89206  0.86830  0.38114  1.0000
  C   C4024     1.0  0.89677  0.87414  0.40786  1.0000
  C   C4025     1.0  0.69607  0.84173  0.29488  1.0000
  C   C4026     1.0  0.86596  0.85077  0.42138  1.0000
  C   C4027     1.0  0.86111  0.84541  0.39444  1.0000
  C   C4028     1.0  0.88369  0.86556  0.42791  1.0000
  H   H3227     1.0  0.91955  0.76690  0.44692  1.0000
  P   P133      1.0  0.68586  0.86835  0.02074  1.0000
  C   C4029     1.0  0.79861  0.99436  0.17640  1.0000
  H   H3228     1.0  0.80769  0.81660  0.45348  1.0000
  C   C4030     1.0  0.80957  0.86381  0.43183  1.0000
  H   H3229     1.0  0.68206  0.84328  0.22994  1.0000
  C   C4031     1.0  0.73237  0.83918  0.47473  1.0000
  H   H3230     1.0  0.87040  0.84970  0.35368  1.0000
  H   H3231     1.0  0.90212  0.87493  0.36553  1.0000
  H   H3232     1.0  0.71792  0.92420  0.41681  1.0000
  H   H3233     1.0  0.77423  0.87294  0.47597  1.0000
  H   H3234     1.0  0.84720  0.83465  0.38879  1.0000
  C   C4032     1.0  0.84215  0.80400  0.42708  1.0000
  H   H3235     1.0  0.79776  0.86137  0.41772  1.0000
  C   C4033     1.0  0.70242  0.82692  0.29245  1.0000
  C   C4034     1.0  0.83003  0.88196  0.46854  1.0000
  C   C4035     1.0  0.72993  0.92087  0.01846  1.0000
  H   H3236     1.0  0.76453  0.92391  0.49005  1.0000
  C   C4036     1.0  0.76895  0.89852  0.47955  1.0000
  C   C4037     1.0  0.69777  0.89777  0.35646  1.0000
  C   C4038     1.0  0.86067  0.83864  0.47793  1.0000
  C   C4039     1.0  0.84131  0.76708  0.01771  1.0000
  H   H3237     1.0  0.70916  0.79706  0.05897  1.0000
  C   C4040     1.0  0.68816  0.83913  0.24735  1.0000
  H   H3238     1.0  0.71099  0.90362  0.04807  1.0000
  S   S544      1.0  0.85082  0.76815  0.36092  1.0000
  H   H3239     1.0  0.93447  0.81877  0.26951  1.0000
  P   P134      1.0  0.67869  0.86554  0.27542  1.0000
  C   C4041     1.0  0.71489  0.90453  0.02723  1.0000
  H   H3240     1.0  0.80652  0.88768  0.45136  1.0000
  H   H3241     1.0  0.91050  0.88544  0.41297  1.0000
  C   C4042     1.0  0.81132  0.77734  0.42619  1.0000
  C   C4043     1.0  0.84047  0.87038  0.46753  1.0000
  H   H3242     1.0  0.71654  0.88562  0.30200  1.0000
  C   C4044     1.0  0.81997  0.85226  0.43074  1.0000
  C   C4045     1.0  0.94409  0.82034  0.25313  1.0000
  H   H3243     1.0  0.95134  0.79706  0.26574  1.0000
  C   C4046     1.0  0.66829  0.78851  0.42572  1.0000
  C   C4047     1.0  0.67830  0.88867  0.34972  1.0000
  C   C4048     1.0  0.73045  0.87173  0.21105  1.0000
  C   C4049     1.0  0.73290  0.86791  0.23787  1.0000
  C   C4050     1.0  0.74038  0.85440  0.24447  1.0000
  C   C4051     1.0  0.74525  0.84450  0.22424  1.0000
  C   C4052     1.0  0.74298  0.84837  0.19720  1.0000
  C   C4053     1.0  0.73556  0.86208  0.19078  1.0000
  P   P135      1.0  0.74910  0.83579  0.17062  1.0000
  C   C4054     1.0  0.76259  0.85331  0.14652  1.0000
  C   C4055     1.0  0.76399  0.82435  0.18450  1.0000
  C   C4056     1.0  0.78383  0.83457  0.18823  1.0000
  C   C4057     1.0  0.79512  0.82592  0.20022  1.0000
  C   C4058     1.0  0.78673  0.80705  0.20866  1.0000
  C   C4059     1.0  0.76699  0.79681  0.20519  1.0000
  C   C4060     1.0  0.75563  0.80543  0.19329  1.0000
  C   C4061     1.0  0.75992  0.84950  0.11882  1.0000
  C   C4062     1.0  0.77035  0.86339  0.10061  1.0000
  C   C4063     1.0  0.78343  0.88117  0.10984  1.0000
  C   C4064     1.0  0.78610  0.88510  0.13729  1.0000
  C   C4065     1.0  0.77573  0.87127  0.15554  1.0000
  C   C4066     1.0  0.72766  0.81801  0.15520  1.0000
  C   C4067     1.0  0.72899  0.80442  0.13715  1.0000
  C   C4068     1.0  0.71245  0.79100  0.12466  1.0000
  C   C4069     1.0  0.69448  0.79097  0.13026  1.0000
  C   C4070     1.0  0.69302  0.80417  0.14862  1.0000
  C   C4071     1.0  0.70952  0.81752  0.16116  1.0000
  H   H3244     1.0  0.72512  0.88257  0.20597  1.0000
  H   H3245     1.0  0.72941  0.87571  0.25361  1.0000
  H   H3246     1.0  0.74260  0.85181  0.26535  1.0000
  H   H3247     1.0  0.75102  0.83412  0.22989  1.0000
  H   H3248     1.0  0.73393  0.86545  0.17009  1.0000
  H   H3249     1.0  0.79065  0.84929  0.18232  1.0000
  H   H3250     1.0  0.81040  0.83395  0.20324  1.0000
  H   H3251     1.0  0.79552  0.80046  0.21816  1.0000
  H   H3252     1.0  0.74030  0.79741  0.19139  1.0000
  H   H3253     1.0  0.74967  0.83607  0.11101  1.0000
  H   H3254     1.0  0.76801  0.86069  0.07922  1.0000
  H   H3255     1.0  0.79111  0.89208  0.09566  1.0000
  H   H3256     1.0  0.79588  0.89907  0.14447  1.0000
  H   H3257     1.0  0.77784  0.87476  0.17675  1.0000
  H   H3258     1.0  0.74284  0.80434  0.13262  1.0000
  H   H3259     1.0  0.71358  0.78064  0.11065  1.0000
  H   H3260     1.0  0.68165  0.78065  0.12057  1.0000
  H   H3261     1.0  0.67908  0.80409  0.15326  1.0000
  H   H3262     1.0  0.70804  0.82737  0.17554  1.0000
  H   H3263     1.0  0.83735  0.77586  0.41238  1.0000
  H   H3264     1.0  0.84050  0.98871  0.18560  1.0000
  H   H3265     1.0  0.67220  0.84894  0.47801  1.0000
  C   C4072     1.0  0.96854  0.81444  0.45886  1.0000
  C   C4073     1.0  0.81453  0.87861  0.45077  1.0000
  H   H3266     1.0  0.92197  0.76763  0.17906  1.0000
  C   C4074     1.0  0.94448  0.81488  0.42619  1.0000
  C   C4075     1.0  0.68663  0.91128  0.46802  1.0000
  C   C4076     1.0  0.70834  0.76807  0.42402  1.0000
  C   C4077     1.0  0.95834  0.83568  0.21213  1.0000
  C   C4078     1.0  0.94650  0.83419  0.23377  1.0000
  C   C4079     1.0  0.77201  0.88286  0.48966  1.0000
  C   C4080     1.0  0.94978  0.82102  0.14953  1.0000
  C   C4081     1.0  0.94033  0.82480  0.12738  1.0000
  C   C4082     1.0  0.95084  0.83601  0.10663  1.0000
  P   P136      1.0  0.98196  0.82438  0.18062  1.0000
  C   C4083     1.0  0.72499  0.85310  0.47066  1.0000
  H   H3267     1.0  0.93886  0.84350  0.23529  1.0000
  C   C4084     1.0  0.66012  0.86362  0.13985  1.0000
  H   H3268     1.0  0.96397  0.75910  0.14397  1.0000
  H   H3269     1.0  0.73352  0.86788  0.47582  1.0000
  H   H3270     1.0  0.99090  0.75422  0.16675  1.0000
  H   H3271     1.0  0.84644  0.81794  0.99799  1.0000
  H   H3272     1.0  0.80292  0.99180  0.10308  1.0000
  H   H3273     1.0  0.72655  0.90420  0.34377  1.0000
  C   C4085     1.0  0.96769  0.82313  0.20955  1.0000
  C   C4086     1.0  0.96990  0.82885  0.15144  1.0000
  H   H3274     1.0  0.85153  0.77928  0.05683  1.0000
  H   H3275     1.0  0.95989  0.84636  0.19713  1.0000
  H   H3276     1.0  0.72797  0.80990  0.46871  1.0000
  H   H3277     1.0  0.94128  0.81185  0.16502  1.0000
  H   H3278     1.0  0.92481  0.81861  0.12601  1.0000
  H   H3279     1.0  0.94344  0.83847  0.08916  1.0000
  C   C4087     1.0  0.97370  0.80302  0.44111  1.0000
  H   H3280     1.0  0.66088  0.86617  0.22261  1.0000
  C   C4088     1.0  0.71248  0.91991  0.43664  1.0000
  C   C4089     1.0  0.69412  0.79409  0.05548  1.0000
  H   H3281     1.0  0.96824  0.78872  0.40257  1.0000
  C   C4090     1.0  0.87718  0.83462  0.47734  1.0000
  C   C4091     1.0  0.98468  0.80208  0.17622  1.0000
  C   C4092     1.0  0.69177  0.86079  0.05268  1.0000
  C   C4093     1.0  0.71093  0.86491  0.05993  1.0000
  C   C4094     1.0  0.71559  0.85865  0.08429  1.0000
  C   C4095     1.0  0.70111  0.84791  0.10138  1.0000
  C   C4096     1.0  0.68192  0.84320  0.09394  1.0000
  C   C4097     1.0  0.67725  0.84958  0.06966  1.0000
  H   H3282     1.0  0.72231  0.87305  0.04682  1.0000
  H   H3283     1.0  0.73051  0.86252  0.09002  1.0000
  H   H3284     1.0  0.70476  0.84349  0.12055  1.0000
  H   H3285     1.0  0.74277  0.77599  0.37751  1.0000
  H   H3286     1.0  0.70773  0.82213  0.31009  1.0000
  S   S545      1.0  0.85548  0.76965  0.29492  1.0000
  H   H3287     1.0  0.69918  0.82323  0.04632  1.0000
  H   H3288     1.0  0.85728  0.80961  0.42281  1.0000
  C   C4098     1.0  0.83064  0.99579  0.18464  1.0000
  P   P137      1.0  0.69000  0.79085  0.44379  1.0000
  C   C4099     1.0  0.68850  0.80885  0.04840  1.0000
  H   H3289     1.0  0.69620  0.84775  0.31462  1.0000
  C   C4100     1.0  0.66530  0.87458  0.02227  1.0000
  C   C4101     1.0  0.68615  0.87832  0.30708  1.0000
  H   H3290     1.0  0.70229  0.90501  0.37562  1.0000
  C   C4102     1.0  0.68035  0.77549  0.05766  1.0000
  C   C4103     1.0  0.98897  0.76739  0.16996  1.0000
  H   H3291     1.0  0.69326  0.81719  0.22575  1.0000
  S   S546      1.0  0.88043  0.75230  0.33282  1.0000
  C   C4104     1.0  0.70154  0.81813  0.26753  1.0000
  C   C4105     1.0  0.70566  0.88695  0.31453  1.0000
  H   H3292     1.0  0.80257  0.76262  0.42098  1.0000
  C   C4106     1.0  0.70532  0.88933  0.00933  1.0000
  H   H3293     1.0  0.67204  0.90929  0.47216  1.0000
  C   C4107     1.0  0.67252  0.87916  0.32502  1.0000
  H   H3294     1.0  0.71269  0.85401  0.99802  1.0000
  C   C4108     1.0  0.66855  0.75628  0.46765  1.0000
  H   H3295     1.0  0.85277  0.87357  0.48090  1.0000
  C   C4109     1.0  0.84880  0.80004  0.02971  1.0000
  H   H3296     1.0  0.84073  0.75311  0.02309  1.0000
  H   H3297     1.0  0.83405  0.89367  0.48290  1.0000
  C   C4110     1.0  0.84453  0.80357  0.00341  1.0000
  H   H3298     1.0  0.66173  0.87541  0.48289  1.0000
  C   C4111     1.0  0.66226  0.83655  0.48792  1.0000
  C   C4112     1.0  0.72149  0.76462  0.40782  1.0000
  P   P138      1.0  0.97894  0.81909  0.49244  1.0000
  Fe  Fe275     1.0  0.86353  0.79227  0.83352  1.0000
  S   S547      1.0  0.89522  0.79928  0.83052  1.0000
  S   S548      1.0  0.85477  0.81762  0.83128  1.0000
  H   H3299     1.0  0.70298  0.87981  0.96786  1.0000
  H   H3300     1.0  0.67026  0.79100  0.85293  1.0000
  Fe  Fe276     1.0  0.89101  0.77888  0.86444  1.0000
  S   S549      1.0  0.91458  0.78523  0.89625  1.0000
  Fe  Fe277     1.0  0.88643  0.77358  0.80335  1.0000
  S   S550      1.0  0.90249  0.76851  0.76880  1.0000
  S   S551      1.0  0.85989  0.77325  0.86902  1.0000
  S   S552      1.0  0.85522  0.76831  0.80298  1.0000
  Fe  Fe278     1.0  0.93770  0.77522  0.59250  1.0000
  S   S553      1.0  0.92345  0.79607  0.59088  1.0000
  S   S554      1.0  0.96916  0.78128  0.60283  1.0000
  H   H3301     1.0  0.76638  0.79891  0.81730  1.0000
  C   C4113     1.0  0.80719  0.80558  0.96385  1.0000
  Fe  Fe279     1.0  0.90567  0.77788  0.55648  1.0000
  S   S555      1.0  0.89472  0.79089  0.52248  1.0000
  Fe  Fe280     1.0  0.90118  0.77549  0.61693  1.0000
  S   S556      1.0  0.88720  0.78606  0.64919  1.0000
  C   C4114     1.0  0.83273  0.76056  0.92422  1.0000
  C   C4115     1.0  0.96995  0.89889  0.72411  1.0000
  Fe  Fe281     1.0  0.72937  0.84710  0.88913  1.0000
  S   S557      1.0  0.74076  0.87823  0.88060  1.0000
  S   S558      1.0  0.69819  0.82861  0.89598  1.0000
  Fe  Fe282     1.0  0.76821  0.84457  0.87926  1.0000
  S   S559      1.0  0.78263  0.87599  0.87020  1.0000
  S   S560      1.0  0.77804  0.81989  0.87759  1.0000
  Fe  Fe283     1.0  0.76625  0.87986  0.90581  1.0000
  S   S561      1.0  0.77785  0.90442  0.93617  1.0000
  Fe  Fe284     1.0  0.75579  0.87179  0.84587  1.0000
  S   S562      1.0  0.74885  0.88067  0.80461  1.0000
  S   S563      1.0  0.75387  0.84882  0.91646  1.0000
  S   S564      1.0  0.74250  0.84033  0.85305  1.0000
  Fe  Fe285     1.0  0.77408  0.92064  0.66138  1.0000
  S   S565      1.0  0.75396  0.93582  0.66096  1.0000
  S   S566      1.0  0.79144  0.91888  0.69838  1.0000
  Fe  Fe286     1.0  0.76549  0.90829  0.60227  1.0000
  S   S567      1.0  0.74463  0.92234  0.59817  1.0000
  S   S568      1.0  0.77060  0.88924  0.57053  1.0000
  Fe  Fe287     1.0  0.76662  0.94733  0.62101  1.0000
  S   S569      1.0  0.77007  0.97647  0.60397  1.0000
  Fe  Fe288     1.0  0.73393  0.90971  0.63822  1.0000
  S   S570      1.0  0.70209  0.89616  0.64726  1.0000
  S   S571      1.0  0.78824  0.93382  0.62284  1.0000
  S   S572      1.0  0.75335  0.89403  0.64100  1.0000
  C   C4116     1.0  0.94749  0.85021  0.53836  1.0000
  C   C4117     1.0  0.77789  0.97038  0.74441  1.0000
  H   H3302     1.0  0.71018  0.91133  0.71654  1.0000
  C   C4118     1.0  0.68984  0.83960  0.65902  1.0000
  C   C4119     1.0  0.69993  0.85920  0.65436  1.0000
  C   C4120     1.0  0.69039  0.87159  0.65478  1.0000
  C   C4121     1.0  0.66408  0.87849  0.75204  1.0000
  C   C4122     1.0  0.84548  0.76938  0.54193  1.0000
  H   H3303     1.0  0.69732  0.83012  0.65861  1.0000
  H   H3304     1.0  0.71502  0.86465  0.65025  1.0000
  H   H3305     1.0  0.72694  0.86111  0.52725  1.0000
  C   C4123     1.0  0.71974  0.86852  0.53819  1.0000
  C   C4124     1.0  0.76111  0.88436  0.98159  1.0000
  C   C4125     1.0  0.77242  0.88017  0.51756  1.0000
  C   C4126     1.0  0.76986  0.89315  0.53561  1.0000
  C   C4127     1.0  0.76680  0.90881  0.52549  1.0000
  H   H3306     1.0  0.69641  0.89691  0.57847  1.0000
  H   H3307     1.0  0.85555  0.83841  0.54565  1.0000
  H   H3308     1.0  0.77493  0.86810  0.52523  1.0000
  H   H3309     1.0  0.76493  0.91896  0.53914  1.0000
  H   H3310     1.0  0.68034  0.79823  0.76096  1.0000
  C   C4128     1.0  0.76129  0.89014  0.77497  1.0000
  C   C4129     1.0  0.78121  0.89657  0.77334  1.0000
  C   C4130     1.0  0.79031  0.90512  0.74962  1.0000
  C   C4131     1.0  0.77959  0.90723  0.72742  1.0000
  C   C4132     1.0  0.75968  0.90042  0.72895  1.0000
  C   C4133     1.0  0.75063  0.89195  0.75258  1.0000
  H   H3311     1.0  0.78960  0.89531  0.79045  1.0000
  H   H3312     1.0  0.80574  0.91035  0.74860  1.0000
  H   H3313     1.0  0.75125  0.90193  0.71203  1.0000
  H   H3314     1.0  0.73526  0.88700  0.75361  1.0000
  C   C4134     1.0  0.68260  0.83996  0.90331  1.0000
  C   C4135     1.0  0.72134  0.86954  0.56609  1.0000
  H   H3315     1.0  0.71620  0.82735  0.61846  1.0000
  H   H3316     1.0  0.66240  0.89492  0.56435  1.0000
  C   C4136     1.0  0.67654  0.86723  0.91907  1.0000
  C   C4137     1.0  0.68948  0.85904  0.91188  1.0000
  H   H3317     1.0  0.87589  0.80780  0.97359  1.0000
  H   H3318     1.0  0.72551  0.92815  0.54705  1.0000
  H   H3319     1.0  0.68193  0.88191  0.92604  1.0000
  H   H3320     1.0  0.70474  0.86733  0.91361  1.0000
  C   C4138     1.0  0.83358  0.81807  0.84501  1.0000
  C   C4139     1.0  0.83084  0.83526  0.84506  1.0000
  C   C4140     1.0  0.81391  0.83611  0.85480  1.0000
  C   C4141     1.0  0.79956  0.81972  0.86472  1.0000
  C   C4142     1.0  0.80230  0.80253  0.86467  1.0000
  C   C4143     1.0  0.81922  0.80167  0.85493  1.0000
  H   H3321     1.0  0.84189  0.84800  0.83752  1.0000
  H   H3322     1.0  0.81200  0.84943  0.85476  1.0000
  H   H3323     1.0  0.79121  0.78977  0.87214  1.0000
  H   H3324     1.0  0.82108  0.78832  0.85494  1.0000
  C   C4144     1.0  0.89636  0.77213  0.73586  1.0000
  C   C4145     1.0  0.88586  0.78322  0.73014  1.0000
  C   C4146     1.0  0.88253  0.78692  0.70335  1.0000
  C   C4147     1.0  0.88966  0.77954  0.68235  1.0000
  C   C4148     1.0  0.89951  0.76789  0.68820  1.0000
  C   C4149     1.0  0.90293  0.76429  0.71487  1.0000
  H   H3325     1.0  0.88078  0.78933  0.74631  1.0000
  C   C4150     1.0  0.70957  0.87767  0.52453  1.0000
  H   H3326     1.0  0.98504  0.84753  0.76029  1.0000
  C   C4151     1.0  0.66280  0.82929  0.90149  1.0000
  C   C4152     1.0  0.90860  0.78051  0.93018  1.0000
  C   C4153     1.0  0.88961  0.77427  0.93800  1.0000
  C   C4154     1.0  0.88523  0.77180  0.96527  1.0000
  C   C4155     1.0  0.69618  0.83009  0.97267  1.0000
  C   C4156     1.0  0.79794  0.75490  0.89826  1.0000
  C   C4157     1.0  0.92312  0.78345  0.94973  1.0000
  H   H3327     1.0  0.70281  0.79376  0.50096  1.0000
  C   C4158     1.0  0.77836  0.91841  0.98733  1.0000
  H   H3328     1.0  0.89854  0.82889  0.50060  1.0000
  H   H3329     1.0  0.90479  0.76188  0.67226  1.0000
  C   C4159     1.0  0.82182  0.87831  0.72696  1.0000
  H   H3330     1.0  0.72434  0.82137  0.53460  1.0000
  H   H3331     1.0  0.93987  0.85750  0.54868  1.0000
  C   C4160     1.0  0.66199  0.82181  0.97038  1.0000
  H   H3332     1.0  0.95810  0.79042  0.74257  1.0000
  H   H3333     1.0  0.75603  0.87170  0.96899  1.0000
  C   C4161     1.0  0.79605  0.81642  0.96204  1.0000
  H   H3334     1.0  0.83976  0.78868  0.72934  1.0000
  C   C4162     1.0  0.81813  0.88832  0.70565  1.0000
  C   C4163     1.0  0.79429  0.85005  0.71295  1.0000
  H   H3335     1.0  0.70841  0.87664  0.50293  1.0000
  C   C4164     1.0  0.76654  0.91155  0.49762  1.0000
  H   H3336     1.0  0.97035  0.87612  0.52632  1.0000
  C   C4165     1.0  0.71245  0.87934  0.58043  1.0000
  H   H3337     1.0  0.87059  0.76757  0.97127  1.0000
  C   C4166     1.0  0.97618  0.89491  0.77095  1.0000
  C   C4167     1.0  0.69605  0.92432  0.53898  1.0000
  C   C4168     1.0  0.69843  0.84498  0.99063  1.0000
  C   C4169     1.0  0.69105  0.82026  0.59291  1.0000
  H   H3338     1.0  0.72749  0.91123  0.49770  1.0000
  H   H3339     1.0  0.79674  0.81259  0.79423  1.0000
  H   H3340     1.0  0.98490  0.92214  0.75165  1.0000
  C   C4170     1.0  0.70545  0.77774  0.81047  1.0000
  C   C4171     1.0  0.97462  0.83522  0.76987  1.0000
  C   C4172     1.0  0.66628  0.83222  0.51389  1.0000
  C   C4173     1.0  0.80669  0.77064  0.91550  1.0000
  H   H3341     1.0  0.70863  0.82790  0.96590  1.0000
  C   C4174     1.0  0.80257  0.87925  0.68806  1.0000
  H   H3342     1.0  0.66324  0.87359  0.66081  1.0000
  C   C4175     1.0  0.67975  0.78709  0.84072  1.0000
  H   H3343     1.0  0.70154  0.79476  0.87211  1.0000
  H   H3344     1.0  0.68047  0.82092  0.72588  1.0000
  C   C4176     1.0  0.80090  0.83159  0.94426  1.0000
  H   H3345     1.0  0.67639  0.80748  0.94783  1.0000
  H   H3346     1.0  0.78348  0.81292  0.97408  1.0000
  H   H3347     1.0  0.81487  0.95359  0.66950  1.0000
  C   C4177     1.0  0.66069  0.84458  0.66484  1.0000
  H   H3348     1.0  0.87482  0.79587  0.69890  1.0000
  C   C4178     1.0  0.89974  0.77518  0.98492  1.0000
  C   C4179     1.0  0.78989  0.96208  0.75555  1.0000
  H   H3349     1.0  0.67884  0.90058  0.69259  1.0000
  C   C4180     1.0  0.67798  0.81853  0.96253  1.0000
  C   C4181     1.0  0.94977  0.82076  0.52413  1.0000
  C   C4182     1.0  0.76881  0.99378  0.70369  1.0000
  C   C4183     1.0  0.75820  0.96221  0.74967  1.0000
  P   P139      1.0  0.83662  0.79472  0.94924  1.0000
  C   C4184     1.0  0.86033  0.80642  0.93596  1.0000
  C   C4185     1.0  0.82423  0.77363  0.92863  1.0000
  C   C4186     1.0  0.72561  0.90732  0.97368  1.0000
  H   H3350     1.0  0.66694  0.88697  0.84720  1.0000
  H   H3351     1.0  0.69203  0.77164  0.53836  1.0000
  H   H3352     1.0  0.94353  0.80531  0.52326  1.0000
  H   H3353     1.0  0.79202  0.83973  0.94231  1.0000
  C   C4187     1.0  0.86246  0.81009  0.90844  1.0000
  C   C4188     1.0  0.88071  0.81838  0.89770  1.0000
  C   C4189     1.0  0.89698  0.82267  0.91421  1.0000
  C   C4190     1.0  0.89504  0.81910  0.94160  1.0000
  C   C4191     1.0  0.87683  0.81105  0.95249  1.0000
  C   C4192     1.0  0.82332  0.80985  0.94789  1.0000
  H   H3354     1.0  0.84603  0.79756  0.53709  1.0000
  H   H3355     1.0  0.72991  0.86322  0.57667  1.0000
  C   C4193     1.0  0.69756  0.78921  0.85183  1.0000
  H   H3356     1.0  0.82047  0.84757  0.91433  1.0000
  C   C4194     1.0  0.82816  0.82525  0.93023  1.0000
  C   C4195     1.0  0.96779  0.76063  0.53038  1.0000
  C   C4196     1.0  0.66836  0.80242  0.75917  1.0000
  C   C4197     1.0  0.80294  0.97009  0.69233  1.0000
  C   C4198     1.0  0.66300  0.88425  0.72570  1.0000
  C   C4199     1.0  0.68763  0.77555  0.79927  1.0000
  H   H3357     1.0  0.83255  0.75886  0.97713  1.0000
  H   H3358     1.0  0.77842  0.85327  0.67826  1.0000
  C   C4200     1.0  0.68806  0.95067  0.55353  1.0000
  C   C4201     1.0  0.91870  0.78066  0.97705  1.0000
  H   H3359     1.0  0.85002  0.80622  0.89513  1.0000
  H   H3360     1.0  0.88219  0.82098  0.87640  1.0000
  H   H3361     1.0  0.91109  0.82824  0.90566  1.0000
  C   C4202     1.0  0.68282  0.93293  0.54063  1.0000
  C   C4203     1.0  0.75076  0.94621  0.76600  1.0000
  H   H3362     1.0  0.99226  0.77578  0.55611  1.0000
  H   H3363     1.0  0.84048  0.79816  0.77711  1.0000
  S   S573      1.0  0.88498  0.75385  0.83699  1.0000
  S   S574      1.0  0.88240  0.75899  0.58264  1.0000
  H   H3364     1.0  0.91749  0.77395  0.49517  1.0000
  C   C4204     1.0  0.70028  0.83406  0.82122  1.0000
  C   C4205     1.0  0.70813  0.83030  0.79798  1.0000
  C   C4206     1.0  0.70884  0.84085  0.77497  1.0000
  C   C4207     1.0  0.70146  0.85500  0.77510  1.0000
  C   C4208     1.0  0.69369  0.85893  0.79853  1.0000
  C   C4209     1.0  0.69318  0.84835  0.82161  1.0000
  P   P140      1.0  0.68403  0.87705  0.79951  1.0000
  C   C4210     1.0  0.78830  0.00003  0.60723  1.0000
  C   C4211     1.0  0.69975  0.89799  0.81794  1.0000
  C   C4212     1.0  0.71581  0.89804  0.83239  1.0000
  C   C4213     1.0  0.72836  0.91469  0.84543  1.0000
  C   C4214     1.0  0.72488  0.93134  0.84434  1.0000
  C   C4215     1.0  0.70884  0.93138  0.83010  1.0000
  C   C4216     1.0  0.69634  0.91478  0.81687  1.0000
  H   H3365     1.0  0.73447  0.95917  0.57015  1.0000
  H   H3366     1.0  0.88498  0.83167  0.54418  1.0000
  H   H3367     1.0  0.65948  0.87165  0.97952  1.0000
  H   H3368     1.0  0.72423  0.78635  0.84551  1.0000
  S   S575      1.0  0.92140  0.75826  0.55605  1.0000
  C   C4217     1.0  0.67010  0.83212  0.66368  1.0000
  H   H3369     1.0  0.68403  0.91501  0.80572  1.0000
  C   C4218     1.0  0.96067  0.87910  0.72085  1.0000
  C   C4219     1.0  0.70264  0.88887  0.56688  1.0000
  H   H3370     1.0  0.68999  0.81370  0.52526  1.0000
  H   H3371     1.0  0.90765  0.82179  0.95426  1.0000
  H   H3372     1.0  0.70017  0.82631  0.83929  1.0000
  H   H3373     1.0  0.71391  0.81943  0.79798  1.0000
  H   H3374     1.0  0.71525  0.83823  0.75705  1.0000
  H   H3375     1.0  0.70200  0.86278  0.75693  1.0000
  H   H3376     1.0  0.68750  0.85125  0.84006  1.0000
  H   H3377     1.0  0.71885  0.88536  0.83342  1.0000
  H   H3378     1.0  0.74086  0.91464  0.85630  1.0000
  H   H3379     1.0  0.73463  0.94416  0.85457  1.0000
  H   H3380     1.0  0.70613  0.94428  0.82929  1.0000
  C   C4220     1.0  0.84255  0.78376  0.52770  1.0000
  C   C4221     1.0  0.71497  0.82085  0.55087  1.0000
  C   C4222     1.0  0.95930  0.77979  0.49819  1.0000
  C   C4223     1.0  0.83522  0.80502  0.76174  1.0000
  H   H3381     1.0  0.85136  0.77217  0.56222  1.0000
  H   H3382     1.0  0.67779  0.95723  0.55500  1.0000
  C   C4224     1.0  0.71481  0.93412  0.54912  1.0000
  C   C4225     1.0  0.97482  0.79625  0.50735  1.0000
  H   H3383     1.0  0.71229  0.90156  0.76323  1.0000
  H   H3384     1.0  0.91524  0.83806  0.70057  1.0000
  C   C4226     1.0  0.69841  0.89682  0.75304  1.0000
  C   C4227     1.0  0.76286  0.93820  0.77715  1.0000
  H   H3385     1.0  0.73557  0.93984  0.76981  1.0000
  C   C4228     1.0  0.72240  0.82462  0.57711  1.0000
  H   H3386     1.0  0.88210  0.83474  0.70741  1.0000
  H   H3387     1.0  0.87005  0.83356  0.75340  1.0000
  C   C4229     1.0  0.76559  0.98805  0.67666  1.0000
  C   C4230     1.0  0.87828  0.83383  0.52578  1.0000
  C   C4231     1.0  0.70153  0.88848  0.53876  1.0000
  C   C4232     1.0  0.71043  0.82430  0.59812  1.0000
  C   C4233     1.0  0.69556  0.81675  0.54563  1.0000
  H   H3388     1.0  0.78470  0.83534  0.71584  1.0000
  H   H3389     1.0  0.84643  0.76279  0.93358  1.0000
  C   C4234     1.0  0.82212  0.82840  0.74942  1.0000
  C   C4235     1.0  0.82916  0.81945  0.76891  1.0000
  P   P141      1.0  0.81334  0.84630  0.75949  1.0000
  P   P142      1.0  0.68988  0.90188  0.52146  1.0000
  C   C4236     1.0  0.79059  0.83534  0.77565  1.0000
  C   C4237     1.0  0.78650  0.81903  0.79135  1.0000
  C   C4238     1.0  0.76914  0.81109  0.80447  1.0000
  C   C4239     1.0  0.75575  0.81934  0.80206  1.0000
  C   C4240     1.0  0.75984  0.83582  0.78706  1.0000
  C   C4241     1.0  0.77720  0.84383  0.77396  1.0000
  C   C4242     1.0  0.80549  0.98828  0.70196  1.0000
  H   H3390     1.0  0.79990  0.78061  0.91793  1.0000
  C   C4243     1.0  0.68183  0.88468  0.76587  1.0000
  H   H3391     1.0  0.98733  0.85956  0.50205  1.0000
  H   H3392     1.0  0.82796  0.80469  0.69433  1.0000
  C   C4244     1.0  0.83013  0.86290  0.78305  1.0000
  C   C4245     1.0  0.84977  0.86677  0.78200  1.0000
  C   C4246     1.0  0.86272  0.87957  0.80039  1.0000
  C   C4247     1.0  0.85619  0.88870  0.81974  1.0000
  C   C4248     1.0  0.83670  0.88512  0.82066  1.0000
  C   C4249     1.0  0.82371  0.87232  0.80236  1.0000
  H   H3393     1.0  0.81667  0.82971  0.70678  1.0000
  H   H3394     1.0  0.73009  0.90823  0.95309  1.0000
  H   H3395     1.0  0.82994  0.82362  0.78977  1.0000
  H   H3396     1.0  0.83947  0.84179  0.50364  1.0000
  P   P143      1.0  0.78784  0.99110  0.72331  1.0000
  H   H3397     1.0  0.74251  0.81334  0.81265  1.0000
  H   H3398     1.0  0.74987  0.84280  0.78623  1.0000
  H   H3399     1.0  0.78026  0.85694  0.76312  1.0000
  H   H3400     1.0  0.96162  0.77809  0.65948  1.0000
  C   C4250     1.0  0.67461  0.78022  0.81430  1.0000
  H   H3401     1.0  0.97704  0.82076  0.58698  1.0000
  H   H3402     1.0  0.71073  0.97378  0.57437  1.0000
  H   H3403     1.0  0.71543  0.77412  0.79879  1.0000
  H   H3404     1.0  0.85509  0.85983  0.76716  1.0000
  H   H3405     1.0  0.87780  0.88223  0.79983  1.0000
  H   H3406     1.0  0.86618  0.89845  0.83417  1.0000
  H   H3407     1.0  0.83158  0.89210  0.83576  1.0000
  H   H3408     1.0  0.80868  0.86973  0.80356  1.0000
  H   H3409     1.0  0.68189  0.81988  0.60943  1.0000
  C   C4251     1.0  0.80987  0.85909  0.73082  1.0000
  C   C4252     1.0  0.96464  0.86067  0.52580  1.0000
  H   H3410     1.0  0.96533  0.86617  0.78506  1.0000
  H   H3411     1.0  0.79167  0.93959  0.78002  1.0000
  C   C4253     1.0  0.78239  0.94610  0.77185  1.0000
  C   C4254     1.0  0.79067  0.86012  0.69167  1.0000
  C   C4255     1.0  0.83330  0.98345  0.67009  1.0000
  C   C4256     1.0  0.83549  0.78040  0.50127  1.0000
  C   C4257     1.0  0.96755  0.80968  0.80186  1.0000
  H   H3412     1.0  0.93785  0.78817  0.94378  1.0000
  H   H3413     1.0  0.80505  0.96783  0.75141  1.0000
  C   C4258     1.0  0.71040  0.78455  0.83677  1.0000
  H   H3414     1.0  0.95426  0.87323  0.70150  1.0000
  C   C4259     1.0  0.96692  0.87511  0.76774  1.0000
  C   C4260     1.0  0.68551  0.76733  0.51857  1.0000
  H   H3415     1.0  0.79946  0.88723  0.67201  1.0000
  H   H3416     1.0  0.67686  0.85035  0.57818  1.0000
  H   H3417     1.0  0.92650  0.82224  0.54657  1.0000
  C   C4261     1.0  0.99043  0.81979  0.59280  1.0000
  H   H3418     1.0  0.73751  0.82813  0.58115  1.0000
  C   C4262     1.0  0.66454  0.88728  0.52308  1.0000
  H   H3419     1.0  0.79027  0.95767  0.69708  1.0000
  H   H3420     1.0  0.82693  0.90333  0.70316  1.0000
  H   H3421     1.0  0.71371  0.88004  0.60207  1.0000
  C   C4263     1.0  0.98826  0.79597  0.67917  1.0000
  C   C4264     1.0  0.97432  0.85120  0.51227  1.0000
  H   H3422     1.0  0.67942  0.84146  0.52400  1.0000
  C   C4265     1.0  0.68354  0.81672  0.56660  1.0000
  C   C4266     1.0  0.97053  0.83728  0.66688  1.0000
  C   C4267     1.0  0.95661  0.82085  0.65518  1.0000
  C   C4268     1.0  0.93998  0.81056  0.66895  1.0000
  C   C4269     1.0  0.93719  0.81669  0.69435  1.0000
  C   C4270     1.0  0.95077  0.83355  0.70582  1.0000
  C   C4271     1.0  0.96782  0.84344  0.69231  1.0000
  P   P144      1.0  0.94690  0.84157  0.73844  1.0000
  C   C4272     1.0  0.92214  0.83783  0.74294  1.0000
  C   C4273     1.0  0.95506  0.82896  0.76296  1.0000
  C   C4274     1.0  0.94196  0.81259  0.77497  1.0000
  C   C4275     1.0  0.94815  0.80307  0.79447  1.0000
  C   C4276     1.0  0.70660  0.96005  0.56438  1.0000
  C   C4277     1.0  0.69158  0.77991  0.49721  1.0000
  H   H3423     1.0  0.83372  0.88578  0.74062  1.0000
  C   C4278     1.0  0.91515  0.83725  0.76890  1.0000
  C   C4279     1.0  0.89633  0.83544  0.77260  1.0000
  C   C4280     1.0  0.88449  0.83466  0.75045  1.0000
  C   C4281     1.0  0.89136  0.83547  0.72457  1.0000
  C   C4282     1.0  0.91014  0.83716  0.72079  1.0000
  C   C4283     1.0  0.95951  0.86704  0.74249  1.0000
  C   C4284     1.0  0.83877  0.78889  0.98393  1.0000
  C   C4285     1.0  0.83483  0.79973  0.73487  1.0000
  H   H3424     1.0  0.75707  0.92567  0.78957  1.0000
  C   C4286     1.0  0.66420  0.83672  0.98824  1.0000
  H   H3425     1.0  0.87844  0.77197  0.92303  1.0000
  C   C4287     1.0  0.96660  0.79208  0.72490  1.0000
  H   H3426     1.0  0.95879  0.81592  0.63560  1.0000
  H   H3427     1.0  0.92929  0.79771  0.65996  1.0000
  H   H3428     1.0  0.92438  0.80834  0.70496  1.0000
  H   H3429     1.0  0.97896  0.85599  0.70122  1.0000
  H   H3430     1.0  0.92690  0.80713  0.76934  1.0000
  H   H3431     1.0  0.93781  0.79052  0.80382  1.0000
  C   C4288     1.0  0.69729  0.90244  0.72669  1.0000
  C   C4289     1.0  0.71999  0.95181  0.56204  1.0000
  C   C4290     1.0  0.96855  0.78503  0.67810  1.0000
  H   H3432     1.0  0.92422  0.83823  0.78637  1.0000
  H   H3433     1.0  0.89087  0.83465  0.79267  1.0000
  H   H3434     1.0  0.68395  0.77004  0.77897  1.0000
  C   C4291     1.0  0.82178  0.82300  0.72239  1.0000
  C   C4292     1.0  0.95773  0.78308  0.70094  1.0000
  H   H3435     1.0  0.94244  0.77468  0.70000  1.0000
  C   C4293     1.0  0.82820  0.80878  0.71519  1.0000
  C   C4294     1.0  0.67081  0.86420  0.66053  1.0000
  C   C4295     1.0  0.86167  0.83753  0.52655  1.0000
  C   C4296     1.0  0.94002  0.83031  0.53735  1.0000
  C   C4297     1.0  0.96715  0.83117  0.51176  1.0000
  C   C4298     1.0  0.81685  0.96771  0.67661  1.0000
  C   C4299     1.0  0.95587  0.76208  0.50959  1.0000
  C   C4300     1.0  0.98080  0.82571  0.78949  1.0000
  C   C4301     1.0  0.77184  0.90210  0.97055  1.0000
  H   H3436     1.0  0.97223  0.80231  0.81716  1.0000
  H   H3437     1.0  0.80647  0.99300  0.63489  1.0000
  H   H3438     1.0  0.78673  0.93218  0.97902  1.0000
  C   C4302     1.0  0.83686  0.77051  0.99145  1.0000
  C   C4303     1.0  0.88598  0.83233  0.50119  1.0000
  C   C4304     1.0  0.67959  0.89625  0.71309  1.0000
  C   C4305     1.0  0.66855  0.81536  0.73928  1.0000
  H   H3439     1.0  0.84030  0.82889  0.91740  1.0000
  H   H3440     1.0  0.66854  0.92603  0.53187  1.0000
  C   C4306     1.0  0.71044  0.89106  0.98230  1.0000
  C   C4307     1.0  0.98635  0.80297  0.72609  1.0000
  H   H3441     1.0  0.74846  0.96792  0.74102  1.0000
  S   S576      1.0  0.91649  0.75580  0.62122  1.0000
  C   C4308     1.0  0.97779  0.90679  0.74911  1.0000
  H   H3442     1.0  0.91074  0.75542  0.71930  1.0000
  C   C4309     1.0  0.81698  0.83604  0.92849  1.0000
  H   H3443     1.0  0.66576  0.87149  0.60396  1.0000
  H   H3444     1.0  0.80303  0.79363  0.97734  1.0000
  H   H3445     1.0  0.97091  0.90813  0.70730  1.0000
  C   C4310     1.0  0.66120  0.86585  0.81530  1.0000
  C   C4311     1.0  0.98674  0.79460  0.52825  1.0000
  C   C4312     1.0  0.66246  0.84478  0.58552  1.0000
  H   H3446     1.0  0.84394  0.98157  0.65763  1.0000
  H   H3447     1.0  0.74834  0.98587  0.64098  1.0000
  H   H3448     1.0  0.80522  0.99835  0.77794  1.0000
  H   H3449     1.0  0.98192  0.90106  0.79046  1.0000
  H   H3450     1.0  0.98338  0.84524  0.65612  1.0000
  H   H3451     1.0  0.77445  0.98191  0.66684  1.0000
  C   C4313     1.0  0.75078  0.99029  0.66184  1.0000
  H   H3452     1.0  0.74738  0.93463  0.98519  1.0000
  C   C4314     1.0  0.85271  0.83963  0.50270  1.0000
  C   C4315     1.0  0.99049  0.80234  0.60114  1.0000
  C   C4316     1.0  0.98326  0.77685  0.53957  1.0000
  H   H3453     1.0  0.92999  0.78338  0.99205  1.0000
  H   H3454     1.0  0.85460  0.75238  0.62837  1.0000
  C   C4317     1.0  0.73918  0.99830  0.67376  1.0000
  H   H3455     1.0  0.78465  0.75292  0.88774  1.0000
  H   H3456     1.0  0.72781  0.00005  0.66206  1.0000
  C   C4318     1.0  0.83589  0.00163  0.67938  1.0000
  C   C4319     1.0  0.75704  0.00179  0.71558  1.0000
  C   C4320     1.0  0.73534  0.92222  0.99175  1.0000
