data_image0
_chemical_formula_structural       HC3SHCHSHFeS2FeCFeS3FeS2FeS2FeCFeS3H2C6H4C4HCH4C3HCH2CH2C7H4C3HCH2CSC4H3PC2SCH4CHC3H2FeHC6PC9HC8H4C3H2C2H8CHC3PC3H2CH2CHC2HC4H2C3H3CH2C2H2CHC3HSH2C6PC16H16C6PC18H7SCH12C3H3C2H3CFeCHC2HC4H4PHC2S2HCH4CH2C2H4C6HC3H2C3H3CHC6HCH5C5H2FeC2HC2HCHC5HC2HC3HCHSCFeS2FeSFeSHSFeS2FeS2FeHFeS3CHC4HCH3C6H3C2H4C2SCHC10H2C3FeH2C3SCHCHCH2CH2C2HC7PC15SC2H18CHC6PC4H2C9H6CH9C2HCHC3HSHCH2CPCHCH2C2H3CH2PH3C6H2C9H3C2H6C2H4CHCHC3H2C3H6CH2CH4C3HCH2CHCH3C2HCFeS2FeS2FeSFeS3FeS2FeSHFeSFeHS2HCH4C5HCH2C6H2CHC4HCHC6H4C2H3C6H5PC10HC7H7SH7C2H2CHC2HC3HC2H3CSHCHSC3PC2H2CHC3H2C2H2C2H3CHC2H3C4H2C2HCH2CSHC2HC4H2C3H2C3H2C3HC2PH2CH2C2HC5HCH4CHCH2C2H4CH2C5H2C2HCHC2H2PCH2C5HCHCPC9HCHCH5SHCSHCHCHCH4CFeS2FeS2FeSFeS3FeS2FeSCFeSFeHSCH2CH2CHC4H4C6HC2HC4H3C6H4C2HC3PC4H3CH2CHC2HCH2C2H2CHCH2C5HC6HCFeCHC2HC2PH3C2HC8HC3HCH3CH3C2HC2HC5H2C4HPC3H2C3HC4H4CH5CHCH2C2HCHCHC2H2C2PC3HCHCH4C2PC3H3C6HCHCHCH7CHC5HC7H2C3H3CHCHCHCH2SCHCHSHSPHC4SHCH5CHCSH4SCFeS2HC2S2CFeS2FeS2FeSFeS4C2H2FeHCH2CHC2HCH2C6H4C6H4C6H6CHC3HC2HC7H8CHC6H2CHCH4C5HPHC6HPC2HC3HCH11CH2C2HC2H2C3HC2HC2H2C2PC8HC2HCH3C2H7C2H3CHPH2CHC4HC2HC6HC7HCHC3HCH4CH3CHC3HCH2CH2CHC6PC9H2CH4CH2CH2SHFeHC2HC2HSC2H2CHSCHCH2CH4CHC2H2SHFeS2CHFeS2CFeS2FeS2FeSFeS3CFeC2H2C2HCH2C4H2C6H4C6H4C6H4C4HFeCHCH2C7H5C2H3C3PHC2HC3H3C3SH3C3HCHSC4HCHC2HC2HC3H3CSC3SCHSFeC4SC3H3C3H4PH2CHC2H3C2H2CH2C2H3CHC8PC18H18C2HC3PC4HCHC11HSH5CFeH7CH3CHC4PC8HCH11SCH3CPH2CHCHCHSH2CHSH2CHC3HCH3C4HCHCFeCHC3HC5H2SCFeS2FeS2FeSFeS3HSH2CHFeSHCSCHC4H2CHC2HC6H3C7H4C3H2CH5C5HCFeCHCH3C7H3C3PH4CH2CHC9HCHCHFeHC2HC5HC2HPC2H2C3PHCH4CHC3HC5PC2SC7HCH10C3HC4PC18HC2H19C4HC2H5C2H5C3H3C2H4CH3C2HC2H2FeH2C3H3CFeS2FeS2FeSFeS3FeSCFeS2FeSFeCSCH2C2HCSCHC2HC2HC3PH3C6H5C5HCH3C5H2CH6PC6H2C2H3C2HC3PH2CH2C2H3C5H3CPSHCHC4H4C2H3C2HC4SC2H3CHCHCSCH3C4H2CHC9HC3H4CHC2H3C2HCHC2H2CHC3HC2H3C6HSC2HC2H6CHC3HCHSHCH3C2HCHCHFeSCSH2SFeS2C2FeS3FeS2FeSPFeSFeS3C2HC6H4C7H3C9H4C7H2CHPH4C2HSC2HC5HCH2C6PC15HCH15CSCH2C15HCH3PCH2CHCH9C2HC3PC2SCHC4H2C4H2CH5CHCH4C2H4CHCH2SC5H4C4SC4H4C6FeH2CHC3HC5HC3PH3CPCHCH3CH6C3HFeCH4C2HFeC2H3CH2C3HCH2CH2CHCFeCHCHCHC2HCHC2HC4SHCH7C2H2PC3SCHC3H2CSFeSHSHCHCSC2HFeSH2FeS2FeSCFeSFeS3H3C6H4C6H5FeHC6H5C2HC2HSCHCHC2H2SHC2H3CH3CH2CHCSC2HCHCHC2PC15HC4SCH2SH7CSC2HCPCHC4HCH3C3H3CH4C5H2C2HFeHC2HFeC2HCHC8PC18H5C2H5CH7CFeC2HCH5CHC2SCFeHC2H2CHCH2C4HSH2CH2CH3SCH2CHCHCHCH4CHCHFeSCHSFeS2FeS2FeSFeS3HSHFeHSCSH2CSC4H4C6H4C6H4C4H2C7H2C2HCSCHC2H2C2H3C6HSCH2CHCHC2SH2C4HCFeC2HFeC4HC2HPFeH3CHCPC3SH3SH2C7H8P2C2HCSC2HCHCHCFeH2SHFeC6PC10SC7H7CH4CH7C2HPSCHCHCH2C2H2C2H2C2H2C4HC2H3CHCHCH2CH5C2H2C3H2C4HCHC6SC5HCPHCHC2H2SC2H3C2HC3HCHC2H3CFeSCH3C4HCSC3HCHC2H4C2H2FeC3H2C3H2FeSCHSFeS2FeS2FeSFeS3HSCFeS2FeSFeSCSCHCH2CHC7H4C6H4C4HC8H4C2H2CH4CHCH3C2HC2HC3HC2HC3HC5HCH5CHC4H2C2HCHFeCHSCPHC2H2CH2CH2CH3CHCHCH5CHC7PC11HCH2CH2C2HCH2CH2C3HCH2C3SCHC2H3CH2CHC2HC3HC6PC20H9CH8CH4C4H2PHPCH5C2HC3HCHFeCHCHSCHCH2CH2CH4C2FeSHFeSCFeCFeS3FeHSFeS2FeS2FeSFeCS2CH2CHC7H2FeHC6H7C8H2CHC4H2C7PC9H2C7H10C3H4CH3C2HC2SHC3SH2CHCHCPHC5HCHC3H3C2HSHSCSCHCHC2H3C3H4C2PC3HPC2PHC2HCH5C2H4CHC3SHC2H2C2HFeC6HC4HCHC2SCH2C5H2CSC2H4C3HCHCSHCHCH4CH3CH2C2HC2H3SHCHFeC2HC2HSHCH3PHCH2CHCHC4HC3HCHCH2CH2FeSHFeSCFeSFeS3FeS2FeS2FeS2FeSFeS3HCHC2H2C3HCH4C6H5CH3CHC3H4C3H2C3H3CHCHC2H3CSC2H4C5HSHC2HC2H3C2HCHC5HC2H4CHC2H2S2HC3H2C4PH4C4H2C2H5CHCHCHC2FeC8PC18H20CH3CHC6HCH2C4PC3HPHC2H4CHC3HCH3CSH3CHCH2CHCHC5PC2HCHC3HC2FeH5C2H3C10H3PCH3C6H3CHC4HC2HC4HC4H2CHC2HC2H3C3FeS2FeS2FeSFeS3FeS2FeS2FeS2FeHFeS3HC3H3C3HCHCHCHC7H4C6H4C5H2C4HC2PC6HC6HCHCSH2C2H3CSH5C3FeHC5SHC2H4CPC13H8CPH4C4H3CHCHCHC2HC2H3C2H4C2PH2CHCHC2H2C3HFeHCHCH4C2H2C2PC2H2CHC4HC2HC4PCHC7HCHC2H3CH2CH4C3H3C2FeHCHC9H7C5HC2HC2HC2HCPC2HCHCHC2HSCH2C4HC2HSHC4HCHCHCH3CHCHCH2CHC3HSCH2C2H3C4SCHCFeS2FeS2FeSFeS3FeS2FeS2FeS2FeSFeS3C5H3CHC2H2SC9H4C6H5C3H4C2HCHC2HC6PC8SC5HCH10C2HCHC2HC3H2C3HCH3C3HC2HC2H7CHC2HSC2SH2CH4C3HC2H4C2H2SHC3PCH2C3H2CHC8HCHC2H3CHCH5CHCHC2HC4PC5FeC10HCHC2H2CFeH4CH2FeH2C2HCH2C5H3CH3CH2PSH3CH3C2H2SCHC2HC3HCH3C2H4CHPH2CH2C2FeC2FeHSFeH2CS2FeCFeS2Fe2CS2FeS2FeS2FeSFeS3C6H4C2HC7H3C2H3CH2C6H3C7H4C2H2C7H3SCH2SC3FeCPH3C7H4CH4CHC2H2C4HC3H3PH3C2H2C4PC9HC4HCH5CH4CH4C3HC2PC3HSC11HS2H3CH7CH3CHC4H4C3HC3HCS2H2C10HCH2SHCH7CFeCHFeS2FeSH2SHFeCFeS2CFeS3FeS2FeS2FeSFeS3C6H4CHCH2C4H3C2FeC3H6C4HC8H2C2PHCHCH2C5H2C3HC2HCHCHCH3CHC8HC2SC2SH6SH3C2PC14H2C2H5CH4CH4CHCH4C6HCH5FeCHCHC2H2CH2C3PSH3SHC2H5CHC4HCH5CH2C2HC8PC18H14PCHCSHCH2CHCHCHCHC2H6CSHFeSHFeS2FeSFeS3FeS2CSHFeCFeS3H2FeS2FeSFeCS2C6HC6HC4H4CHC6H4C16PC3H2C13H6C3H12C2PH5CHCSCHCH2C2PHC2HCH5CH2C3HCHC2SHC3HC2H2CHC3H5CHC5H5CH2CPCH2C2FeHCH2C5H2C3H2CHCHCH2CHC3HC2H2CH2C4HCHFeH3CH2CHC3H2CH2CH3CHSC2H3C2HC2HCH2C3H2FeSHFeS2FeHFeS3FeS4CFeSFeS3FeHFeS2FeSFeHS2HC2H2C3HCH2CHC3H3SHCHC6H4C2H2CFeCH3CHC3HPC9HC8H3CH6C2H2C4HC4H2C5HCHSCH2C2PC3HCHC4PC18H18CH4C2H3CHC3H2C2HC5HCPC2HCHC2HCHC7H3CHCH2SH3C2PCH3CHCH3C2H2C3H4C2HCHC2HCHCSH3CHC3HPHC3HC4SHSH3CFeS2FeSHFeSFeS3FeS2CSHFeSFeCSHFeS2C2HFeSCSC2HCHC5PH2C2H3C6H4C2H2C2HCHC3H2CHC3HC2HCH3C4HCH2CHC2H2C5PCH5CH2CH2C2H2C3H2PCH2C5HC2SC3HCH3C3FeH2C2H2CSCH2C2HCSC4PC3HC12H4CH9C2FeCHC5H2C3H3CHCHC3HC3SHC11PC18H11CH3CH3C2HC3HPC2H2CH2CHC3H2CHC2H3CH5CSCH2CHCHC2H2SC2HFeS2FeS2FeSFeS3FeS2H3FeSC2SCFeS2CHCFeCS2HC2HC6H4C2H2C6H4C2H2C2HCHC3H4C3HC2HC2H2CHPCSC3H3C2HCH3SH2C2SC2HCHCHCHSC2HCFeH5CHC2H2C2HFeCH3CH2CH2SH2C3HC3H4CSC6PC14H18C7PC2HCHC13H6C2HCH4SH5PC3HC2HCSC3H8CFeCHC2H3C5PC15HC2H5C2H2C3HFeCHCH6SCH2C2HCHC2HCHCHC4Fe2CHFeSCFeSH2S2C2FeS2FeC2SHFeS2FeS2FeHFeSHSCHC3H2C6H4C6H4C2HCHCFeHCHCH4CSH2C3H2CH2C9PC2SH7CHC3H5CH4C2H3CHCH2C6PC7HC6HCHCH12CHCHSCFeH2CHC3HCH2C3SC3HC2H2C2HFeHSHSC5SPC7SPHC4HC5H6C2H2C5HCHC2HC2H3CHPCFeHSC2H2CSC4H2C2HC2HCHCSH2C2HCH2CH2CH2CH2SH2C3H3CH2C2H6CH2CSFeSCFeSCHSPHCFeS2FeCHSH2SCFeS2CHFeSHSHC3H2C7H4C6H2CH2CHCFePCHC2H2SCH2C2HFeC4HC2PC2HSCSC8HC3FeCH4C2H6CHCH2CHCHCH5C2PC2HC2HC3HCHC8H2C3PH3CHSHC2H3CHCH2CHCSCHC5HCH2C2FeCHC4HCH3CH3CHCHCHC2H3CHCHC2H2C3H2C6H3C3H3C4H3C2HC2HCHCHC5H2C3H2CH3C
_chemical_formula_sum              "H3072 C3840 S512 Fe256 P128"
_cell_length_a       71.2833
_cell_length_b       69.7522
_cell_length_c       34.2309
_cell_angle_alpha    90.2557
_cell_angle_beta     90.8648
_cell_angle_gamma    88.2202

_space_group_name_H-M_alt    "P 1"
_space_group_IT_number       1

loop_
  _space_group_symop_operation_xyz
  'x, y, z'

loop_
  _atom_site_type_symbol
  _atom_site_label
  _atom_site_symmetry_multiplicity
  _atom_site_fract_x
  _atom_site_fract_y
  _atom_site_fract_z
  _atom_site_occupancy
  H   H1        1.0  0.20282  0.13981  0.46839  1.0000
  C   C1        1.0  0.19897  0.24562  0.14103  1.0000
  C   C2        1.0  0.99233  0.14237  0.07319  1.0000
  C   C3        1.0  0.04713  0.16017  0.29889  1.0000
  S   S1        1.0  0.27446  0.10874  0.28370  1.0000
  H   H2        1.0  0.10047  0.09387  0.06170  1.0000
  C   C4        1.0  0.24391  0.12181  0.05433  1.0000
  H   H3        1.0  0.22710  0.20585  0.42367  1.0000
  S   S2        1.0  0.15815  0.16485  0.10110  1.0000
  H   H4        1.0  0.16597  0.15989  0.30470  1.0000
  Fe  Fe1       1.0  0.19787  0.12660  0.12368  1.0000
  S   S3        1.0  0.16956  0.12567  0.15020  1.0000
  S   S4        1.0  0.21956  0.10325  0.13740  1.0000
  Fe  Fe2       1.0  0.15783  0.13292  0.09080  1.0000
  C   C5        1.0  0.06379  0.16110  0.27804  1.0000
  Fe  Fe3       1.0  0.17173  0.15727  0.15875  1.0000
  S   S5        1.0  0.16292  0.16774  0.21823  1.0000
  S   S6        1.0  0.18619  0.13105  0.06280  1.0000
  S   S7        1.0  0.20121  0.15770  0.13699  1.0000
  Fe  Fe4       1.0  0.06518  0.04773  0.36138  1.0000
  S   S8        1.0  0.05528  0.02054  0.38788  1.0000
  S   S9        1.0  0.05365  0.05898  0.30397  1.0000
  Fe  Fe5       1.0  0.09796  0.05144  0.41836  1.0000
  S   S10       1.0  0.09145  0.02410  0.44878  1.0000
  S   S11       1.0  0.12321  0.06999  0.42910  1.0000
  Fe  Fe6       1.0  0.08569  0.01165  0.38943  1.0000
  C   C6        1.0  0.25851  0.19790  0.16085  1.0000
  Fe  Fe7       1.0  0.06141  0.03484  0.44548  1.0000
  S   S12       1.0  0.04588  0.04768  0.05586  1.0000
  S   S13       1.0  0.09530  0.03777  0.35893  1.0000
  S   S14       1.0  0.06827  0.06332  0.41888  1.0000
  H   H5        1.0  0.11946  0.24814  0.37469  1.0000
  H   H6        1.0  0.27969  0.14956  0.12181  1.0000
  C   C7        1.0  0.02945  0.05569  0.29940  1.0000
  C   C8        1.0  0.01833  0.05553  0.33263  1.0000
  C   C9        1.0  0.99903  0.05254  0.32888  1.0000
  C   C10       1.0  0.99091  0.04910  0.29212  1.0000
  C   C11       1.0  0.00201  0.04926  0.25881  1.0000
  C   C12       1.0  0.02124  0.05279  0.26241  1.0000
  H   H7        1.0  0.02456  0.05783  0.36123  1.0000
  H   H8        1.0  0.99039  0.05284  0.35457  1.0000
  H   H9        1.0  0.99584  0.04640  0.23040  1.0000
  H   H10       1.0  0.02981  0.05242  0.23671  1.0000
  C   C13       1.0  0.02187  0.05098  0.06456  1.0000
  C   C14       1.0  0.01518  0.04901  0.10247  1.0000
  C   C15       1.0  0.99603  0.05201  0.10988  1.0000
  C   C16       1.0  0.05606  0.13823  0.06315  1.0000
  H   H11       1.0  0.15959  0.12739  0.28122  1.0000
  C   C17       1.0  0.11564  0.23324  0.37235  1.0000
  H   H12       1.0  0.02479  0.04527  0.12615  1.0000
  H   H13       1.0  0.99104  0.05097  0.13931  1.0000
  H   H14       1.0  0.22321  0.23913  0.23648  1.0000
  H   H15       1.0  0.27138  0.12257  0.43688  1.0000
  C   C18       1.0  0.27370  0.16301  0.13251  1.0000
  C   C19       1.0  0.21943  0.12317  0.51069  1.0000
  C   C20       1.0  0.10890  0.22377  0.40495  1.0000
  H   H16       1.0  0.24879  0.24132  0.10492  1.0000
  C   C21       1.0  0.12763  0.07981  0.47595  1.0000
  H   H17       1.0  0.11215  0.12367  0.50135  1.0000
  H   H18       1.0  0.23626  0.07120  0.27372  1.0000
  C   C22       1.0  0.24234  0.15640  0.05935  1.0000
  H   H19       1.0  0.13171  0.15191  0.49159  1.0000
  H   H20       1.0  0.09349  0.16514  0.28117  1.0000
  C   C23       1.0  0.24954  0.22343  0.31383  1.0000
  C   C24       1.0  0.26100  0.10931  0.24005  1.0000
  C   C25       1.0  0.26179  0.09330  0.21529  1.0000
  C   C26       1.0  0.24951  0.09209  0.18306  1.0000
  C   C27       1.0  0.23606  0.10671  0.17557  1.0000
  C   C28       1.0  0.23543  0.12298  0.19979  1.0000
  C   C29       1.0  0.24794  0.12430  0.23203  1.0000
  H   H21       1.0  0.27162  0.08156  0.22165  1.0000
  H   H22       1.0  0.25004  0.07946  0.16461  1.0000
  H   H23       1.0  0.22500  0.13425  0.19438  1.0000
  H   H24       1.0  0.24699  0.13652  0.25155  1.0000
  C   C30       1.0  0.25934  0.12414  0.41738  1.0000
  C   C31       1.0  0.16221  0.19279  0.22424  1.0000
  C   C32       1.0  0.16157  0.20490  0.19183  1.0000
  H   H25       1.0  0.16281  0.19159  0.28721  1.0000
  C   C33       1.0  0.25946  0.13756  0.38723  1.0000
  H   H26       1.0  0.16119  0.19892  0.16265  1.0000
  H   H27       1.0  0.03402  0.15749  0.28365  1.0000
  C   C34       1.0  0.14893  0.13533  0.29689  1.0000
  S   S15       1.0  0.20236  0.18258  0.03805  1.0000
  C   C35       1.0  0.10973  0.13280  0.47609  1.0000
  C   C36       1.0  0.15986  0.19261  0.46049  1.0000
  C   C37       1.0  0.16377  0.20040  0.42404  1.0000
  C   C38       1.0  0.15933  0.21975  0.41655  1.0000
  H   H28       1.0  0.99390  0.02096  0.38489  1.0000
  H   H29       1.0  0.19113  0.20061  0.10785  1.0000
  H   H30       1.0  0.17070  0.19165  0.40206  1.0000
  P   P1        1.0  0.24851  0.22031  0.17890  1.0000
  C   C39       1.0  0.16233  0.20075  0.26196  1.0000
  C   C40       1.0  0.23448  0.23156  0.25192  1.0000
  S   S16       1.0  0.13018  0.11891  0.07738  1.0000
  C   C41       1.0  0.27646  0.17998  0.11226  1.0000
  H   H31       1.0  0.98420  0.07988  0.21193  1.0000
  H   H32       1.0  0.09991  0.19716  0.42838  1.0000
  H   H33       1.0  0.97793  0.17674  0.13838  1.0000
  H   H34       1.0  0.27138  0.21030  0.11015  1.0000
  C   C42       1.0  0.12132  0.15623  0.33735  1.0000
  H   H35       1.0  0.16039  0.23428  0.17226  1.0000
  C   C43       1.0  0.13188  0.12700  0.30484  1.0000
  C   C44       1.0  0.11812  0.13744  0.32494  1.0000
  C   C45       1.0  0.24825  0.22071  0.23183  1.0000
  H   H36       1.0  0.12932  0.11242  0.29582  1.0000
  H   H37       1.0  0.10502  0.13085  0.33120  1.0000
  Fe  Fe8       1.0  0.29407  0.13303  0.29331  1.0000
  H   H38       1.0  0.15280  0.09320  0.45762  1.0000
  C   C46       1.0  0.13389  0.04893  0.05080  1.0000
  C   C47       1.0  0.11823  0.03798  0.04289  1.0000
  C   C48       1.0  0.10945  0.02852  0.07322  1.0000
  C   C49       1.0  0.11644  0.02993  0.11157  1.0000
  C   C50       1.0  0.13202  0.04121  0.11975  1.0000
  C   C51       1.0  0.14075  0.05059  0.08901  1.0000
  P   P2        1.0  0.14186  0.04315  0.16840  1.0000
  C   C52       1.0  0.12888  0.03066  0.20484  1.0000
  C   C53       1.0  0.16590  0.03456  0.16423  1.0000
  C   C54       1.0  0.98784  0.08726  0.18541  1.0000
  C   C55       1.0  0.10962  0.09307  0.03689  1.0000
  C   C56       1.0  0.16986  0.01498  0.15772  1.0000
  C   C57       1.0  0.19904  0.04089  0.15703  1.0000
  C   C58       1.0  0.18061  0.04753  0.16321  1.0000
  C   C59       1.0  0.13791  0.01759  0.23060  1.0000
  C   C60       1.0  0.98789  0.15228  0.03847  1.0000
  H   H39       1.0  0.27983  0.24136  0.21432  1.0000
  C   C61       1.0  0.10009  0.02795  0.24149  1.0000
  C   C62       1.0  0.10996  0.03594  0.21086  1.0000
  C   C63       1.0  0.14120  0.06763  0.18518  1.0000
  C   C64       1.0  0.13244  0.08232  0.16303  1.0000
  C   C65       1.0  0.13213  0.10114  0.17697  1.0000
  C   C66       1.0  0.14071  0.10548  0.21270  1.0000
  C   C67       1.0  0.14927  0.09088  0.23514  1.0000
  C   C68       1.0  0.14937  0.07198  0.22158  1.0000
  H   H40       1.0  0.16224  0.19150  0.02847  1.0000
  H   H41       1.0  0.03202  0.08921  0.05615  1.0000
  H   H42       1.0  0.10960  0.02227  0.13449  1.0000
  H   H43       1.0  0.15285  0.05931  0.09454  1.0000
  C   C69       1.0  0.29545  0.22283  0.04032  1.0000
  C   C70       1.0  0.97849  0.10669  0.12961  1.0000
  C   C71       1.0  0.97982  0.17080  0.03983  1.0000
  H   H44       1.0  0.21026  0.05103  0.15554  1.0000
  H   H45       1.0  0.17792  0.06284  0.16601  1.0000
  C   C72       1.0  0.18835  0.00835  0.15196  1.0000
  C   C73       1.0  0.10909  0.01469  0.26646  1.0000
  H   H46       1.0  0.12373  0.23052  0.31215  1.0000
  H   H47       1.0  0.08554  0.03228  0.24646  1.0000
  H   H48       1.0  0.10295  0.04659  0.19242  1.0000
  H   H49       1.0  0.12601  0.07949  0.13484  1.0000
  H   H50       1.0  0.12583  0.11254  0.15932  1.0000
  H   H51       1.0  0.14110  0.12028  0.22217  1.0000
  H   H52       1.0  0.15607  0.09415  0.26275  1.0000
  H   H53       1.0  0.15606  0.06077  0.23919  1.0000
  C   C74       1.0  0.19754  0.24641  0.48226  1.0000
  H   H54       1.0  0.27155  0.14640  0.38340  1.0000
  C   C75       1.0  0.14334  0.09120  0.48141  1.0000
  C   C76       1.0  0.12795  0.00952  0.26105  1.0000
  C   C77       1.0  0.16128  0.22487  0.19722  1.0000
  P   P3        1.0  0.00261  0.11839  0.07124  1.0000
  C   C78       1.0  0.02781  0.11965  0.06654  1.0000
  C   C79       1.0  0.97623  0.17960  0.07582  1.0000
  C   C80       1.0  0.26325  0.16338  0.16664  1.0000
  H   H55       1.0  0.02882  0.15045  0.07516  1.0000
  H   H56       1.0  0.21722  0.01622  0.14666  1.0000
  C   C81       1.0  0.98472  0.02140  0.40981  1.0000
  H   H57       1.0  0.00657  0.01241  0.45068  1.0000
  H   H58       1.0  0.22492  0.24189  0.30797  1.0000
  C   C82       1.0  0.26266  0.21122  0.25338  1.0000
  H   H59       1.0  0.99234  0.14413  0.13637  1.0000
  C   C83       1.0  0.19797  0.09230  0.48469  1.0000
  C   C84       1.0  0.99691  0.10564  0.11544  1.0000
  H   H60       1.0  0.28750  0.21005  0.45950  1.0000
  C   C85       1.0  0.08073  0.16431  0.29778  1.0000
  C   C86       1.0  0.98356  0.05708  0.07951  1.0000
  C   C87       1.0  0.00624  0.08628  0.17194  1.0000
  C   C88       1.0  0.01081  0.09546  0.13724  1.0000
  H   H61       1.0  0.21358  0.07094  0.21808  1.0000
  H   H62       1.0  0.11555  0.19656  0.30688  1.0000
  C   C89       1.0  0.99184  0.01648  0.44679  1.0000
  C   C90       1.0  0.05791  0.10390  0.05268  1.0000
  C   C91       1.0  0.08117  0.16630  0.33864  1.0000
  H   H63       1.0  0.30407  0.24727  0.27031  1.0000
  H   H64       1.0  0.08820  0.11531  0.45158  1.0000
  H   H65       1.0  0.15269  0.01398  0.22818  1.0000
  C   C92       1.0  0.09333  0.13979  0.41514  1.0000
  H   H66       1.0  0.02418  0.05955  0.46803  1.0000
  H   H67       1.0  0.20031  0.19978  0.46698  1.0000
  C   C93       1.0  0.99028  0.05890  0.04157  1.0000
  C   C94       1.0  0.21393  0.17542  0.49505  1.0000
  H   H68       1.0  0.01691  0.07806  0.18800  1.0000
  H   H69       1.0  0.02514  0.09423  0.12764  1.0000
  C   C95       1.0  0.03673  0.13731  0.06920  1.0000
  H   H70       1.0  0.17656  0.23315  0.10745  1.0000
  C   C96       1.0  0.21287  0.19066  0.46859  1.0000
  C   C97       1.0  0.19504  0.11046  0.46837  1.0000
  C   C98       1.0  0.30084  0.21315  0.44663  1.0000
  H   H71       1.0  0.15860  0.00489  0.15659  1.0000
  S   S17       1.0  0.28454  0.16376  0.29045  1.0000
  H   H72       1.0  0.18925  0.08058  0.47551  1.0000
  H   H73       1.0  0.18401  0.11276  0.44679  1.0000
  C   C99       1.0  0.19931  0.09716  0.23547  1.0000
  C   C100      1.0  0.21264  0.08222  0.23985  1.0000
  C   C101      1.0  0.22544  0.08239  0.27111  1.0000
  C   C102      1.0  0.22493  0.09749  0.29810  1.0000
  C   C103      1.0  0.21152  0.11259  0.29411  1.0000
  C   C104      1.0  0.19864  0.11218  0.26262  1.0000
  P   P4        1.0  0.20863  0.13032  0.33259  1.0000
  C   C105      1.0  0.18726  0.12447  0.35778  1.0000
  C   C106      1.0  0.22831  0.12818  0.36628  1.0000
  C   C107      1.0  0.22835  0.11462  0.39643  1.0000
  C   C108      1.0  0.24382  0.11261  0.42185  1.0000
  C   C109      1.0  0.24414  0.13941  0.36143  1.0000
  C   C110      1.0  0.17748  0.13821  0.38049  1.0000
  C   C111      1.0  0.16031  0.13390  0.39711  1.0000
  C   C112      1.0  0.15285  0.11580  0.39202  1.0000
  C   C113      1.0  0.16284  0.10171  0.37121  1.0000
  C   C114      1.0  0.17997  0.10597  0.35422  1.0000
  C   C115      1.0  0.20788  0.15490  0.31512  1.0000
  C   C116      1.0  0.20791  0.15914  0.27498  1.0000
  C   C117      1.0  0.20694  0.17817  0.26226  1.0000
  C   C118      1.0  0.20625  0.19316  0.28937  1.0000
  C   C119      1.0  0.20713  0.18919  0.32929  1.0000
  C   C120      1.0  0.20819  0.17017  0.34213  1.0000
  H   H74       1.0  0.18991  0.09739  0.21028  1.0000
  H   H75       1.0  0.23528  0.09739  0.32155  1.0000
  H   H76       1.0  0.18828  0.12363  0.25853  1.0000
  H   H77       1.0  0.21659  0.10537  0.39987  1.0000
  H   H78       1.0  0.24377  0.10196  0.44474  1.0000
  H   H79       1.0  0.24484  0.14942  0.33744  1.0000
  H   H80       1.0  0.18267  0.15240  0.38512  1.0000
  H   H81       1.0  0.15271  0.14467  0.41389  1.0000
  H   H82       1.0  0.13946  0.11260  0.40480  1.0000
  H   H83       1.0  0.15724  0.08747  0.36844  1.0000
  H   H84       1.0  0.18737  0.09474  0.33826  1.0000
  H   H85       1.0  0.20875  0.14799  0.25314  1.0000
  H   H86       1.0  0.20626  0.18128  0.23125  1.0000
  H   H87       1.0  0.20485  0.20784  0.27933  1.0000
  H   H88       1.0  0.20693  0.20088  0.35027  1.0000
  H   H89       1.0  0.20945  0.16745  0.37321  1.0000
  C   C121      1.0  0.10688  0.07809  0.29425  1.0000
  C   C122      1.0  0.09996  0.08505  0.32972  1.0000
  C   C123      1.0  0.08520  0.09867  0.33006  1.0000
  C   C124      1.0  0.07753  0.10567  0.29488  1.0000
  C   C125      1.0  0.08399  0.09829  0.25908  1.0000
  C   C126      1.0  0.09898  0.08474  0.25903  1.0000
  P   P5        1.0  0.07393  0.10660  0.21317  1.0000
  C   C127      1.0  0.07339  0.08561  0.18182  1.0000
  C   C128      1.0  0.04975  0.11481  0.21941  1.0000
  C   C129      1.0  0.03812  0.10544  0.24559  1.0000
  C   C130      1.0  0.01942  0.11152  0.25011  1.0000
  C   C131      1.0  0.03861  0.10295  0.05859  1.0000
  C   C132      1.0  0.02344  0.13636  0.20218  1.0000
  C   C133      1.0  0.04217  0.13029  0.19757  1.0000
  C   C134      1.0  0.08404  0.08397  0.14764  1.0000
  C   C135      1.0  0.08339  0.06735  0.12468  1.0000
  C   C136      1.0  0.07249  0.05211  0.13604  1.0000
  C   C137      1.0  0.06227  0.05339  0.17039  1.0000
  C   C138      1.0  0.06283  0.06999  0.19326  1.0000
  C   C139      1.0  0.08792  0.12572  0.19461  1.0000
  C   C140      1.0  0.10059  0.13504  0.21952  1.0000
  C   C141      1.0  0.11205  0.14924  0.20514  1.0000
  C   C142      1.0  0.11097  0.15424  0.16571  1.0000
  C   C143      1.0  0.09809  0.14541  0.14087  1.0000
  C   C144      1.0  0.08642  0.13140  0.15534  1.0000
  H   H90       1.0  0.11806  0.06721  0.29418  1.0000
  H   H91       1.0  0.10582  0.07964  0.35702  1.0000
  H   H92       1.0  0.07958  0.10357  0.35770  1.0000
  H   H93       1.0  0.06632  0.11646  0.29585  1.0000
  H   H94       1.0  0.10440  0.07909  0.23182  1.0000
  H   H95       1.0  0.04340  0.09339  0.26270  1.0000
  H   H96       1.0  0.25756  0.15761  0.47286  1.0000
  S   S18       1.0  0.16744  0.16923  0.47136  1.0000
  C   C145      1.0  0.11802  0.22334  0.33714  1.0000
  H   H97       1.0  0.05055  0.13767  0.17675  1.0000
  H   H98       1.0  0.09306  0.09520  0.13857  1.0000
  H   H99       1.0  0.09125  0.06622  0.09787  1.0000
  H   H100      1.0  0.07185  0.03931  0.11803  1.0000
  H   H101      1.0  0.05386  0.04152  0.17924  1.0000
  H   H102      1.0  0.05525  0.07046  0.22031  1.0000
  H   H103      1.0  0.10186  0.13119  0.24994  1.0000
  H   H104      1.0  0.12217  0.15607  0.22427  1.0000
  H   H105      1.0  0.12030  0.16481  0.15434  1.0000
  H   H106      1.0  0.09755  0.14905  0.11010  1.0000
  H   H107      1.0  0.07654  0.12469  0.13569  1.0000
  H   H108      1.0  0.01771  0.14827  0.18518  1.0000
  C   C146      1.0  0.10386  0.15634  0.41032  1.0000
  C   C147      1.0  0.01204  0.12694  0.22834  1.0000
  C   C148      1.0  0.98894  0.15142  0.10925  1.0000
  H   H109      1.0  0.06283  0.15192  0.06442  1.0000
  H   H110      1.0  0.01056  0.10396  0.27005  1.0000
  H   H111      1.0  0.24299  0.10788  0.06795  1.0000
  C   C149      1.0  0.24501  0.16673  0.47227  1.0000
  C   C150      1.0  0.98083  0.16994  0.11051  1.0000
  H   H112      1.0  0.23990  0.16928  0.07662  1.0000
  H   H113      1.0  0.14225  0.17814  0.34255  1.0000
  H   H114      1.0  0.29867  0.24816  0.39497  1.0000
  C   C151      1.0  0.20583  0.12580  0.48085  1.0000
  Fe  Fe9       1.0  0.18753  0.16245  0.07793  1.0000
  C   C152      1.0  0.23010  0.16353  0.49766  1.0000
  H   H115      1.0  0.99483  0.07587  0.49129  1.0000
  C   C153      1.0  0.24390  0.18195  0.44573  1.0000
  C   C154      1.0  0.14577  0.22300  0.48071  1.0000
  H   H116      1.0  0.16244  0.22574  0.38853  1.0000
  C   C155      1.0  0.21585  0.20889  0.13995  1.0000
  C   C156      1.0  0.15083  0.23118  0.44533  1.0000
  C   C157      1.0  0.16270  0.22068  0.26727  1.0000
  C   C158      1.0  0.16240  0.23276  0.23482  1.0000
  H   H117      1.0  0.25552  0.18445  0.42652  1.0000
  H   H118      1.0  0.10158  0.00870  0.29059  1.0000
  H   H119      1.0  0.25760  0.11163  0.50813  1.0000
  H   H120      1.0  0.06427  0.16814  0.39063  1.0000
  P   P6        1.0  0.10330  0.16881  0.36422  1.0000
  H   H121      1.0  0.06359  0.15932  0.24657  1.0000
  C   C159      1.0  0.26246  0.23968  0.16192  1.0000
  C   C160      1.0  0.00945  0.05604  0.03411  1.0000
  S   S19       1.0  0.04605  0.02705  0.50014  1.0000
  S   S20       1.0  0.29229  0.18550  0.39282  1.0000
  H   H122      1.0  0.06595  0.09088  0.04590  1.0000
  C   C161      1.0  0.26889  0.19737  0.12626  1.0000
  H   H123      1.0  0.13870  0.23169  0.50251  1.0000
  H   H124      1.0  0.03442  0.16232  0.35553  1.0000
  H   H125      1.0  0.23829  0.13733  0.10760  1.0000
  H   H126      1.0  0.02420  0.00138  0.23254  1.0000
  C   C162      1.0  0.13885  0.16418  0.33100  1.0000
  H   H127      1.0  0.24729  0.18062  0.20701  1.0000
  H   H128      1.0  0.22211  0.19459  0.13883  1.0000
  C   C163      1.0  0.12060  0.14887  0.47092  1.0000
  C   C164      1.0  0.15246  0.15381  0.31009  1.0000
  H   H129      1.0  0.02190  0.01657  0.29796  1.0000
  H   H130      1.0  0.13490  0.99954  0.28116  1.0000
  H   H131      1.0  0.26148  0.15026  0.18254  1.0000
  H   H132      1.0  0.08152  0.12240  0.04920  1.0000
  C   C165      1.0  0.25547  0.18069  0.18061  1.0000
  C   C166      1.0  0.02027  0.00131  0.29478  1.0000
  C   C167      1.0  0.12602  0.10362  0.03718  1.0000
  C   C168      1.0  0.22789  0.19398  0.44404  1.0000
  C   C169      1.0  0.22519  0.22399  0.15825  1.0000
  C   C170      1.0  0.11773  0.16058  0.43823  1.0000
  H   H133      1.0  0.08339  0.13538  0.39299  1.0000
  C   C171      1.0  0.04737  0.16285  0.33940  1.0000
  C   C172      1.0  0.23530  0.23310  0.29268  1.0000
  C   C173      1.0  0.15053  0.20377  0.48857  1.0000
  H   H134      1.0  0.12695  0.17243  0.43404  1.0000
  H   H135      1.0  0.10753  0.23140  0.43248  1.0000
  C   C174      1.0  0.09614  0.12820  0.44811  1.0000
  C   C175      1.0  0.06430  0.16610  0.35922  1.0000
  C   C176      1.0  0.19833  0.21226  0.12192  1.0000
  H   H136      1.0  0.27375  0.20314  0.23867  1.0000
  H   H137      1.0  0.09714  0.02022  0.06687  1.0000
  H   H138      1.0  0.28464  0.17968  0.08597  1.0000
  C   C177      1.0  0.11361  0.20399  0.33447  1.0000
  H   H139      1.0  0.99742  0.13138  0.23140  1.0000
  C   C178      1.0  0.24613  0.15785  0.01954  1.0000
  C   C179      1.0  0.06662  0.12156  0.05460  1.0000
  C   C180      1.0  0.24126  0.13841  0.07675  1.0000
  C   C181      1.0  0.10485  0.20429  0.40263  1.0000
  C   C182      1.0  0.10756  0.19416  0.36753  1.0000
  C   C183      1.0  0.19007  0.23065  0.12178  1.0000
  H   H140      1.0  0.16327  0.22667  0.29642  1.0000
  C   C184      1.0  0.26310  0.21235  0.29421  1.0000
  H   H141      1.0  0.29160  0.23341  0.33098  1.0000
  H   H142      1.0  0.25017  0.22470  0.34543  1.0000
  H   H143      1.0  0.27415  0.20486  0.31072  1.0000
  H   H144      1.0  0.29149  0.23740  0.04866  1.0000
  H   H145      1.0  0.14056  0.05635  0.02721  1.0000
  C   C185      1.0  0.20293  0.02130  0.15170  1.0000
  C   C186      1.0  0.21650  0.24235  0.15896  1.0000
  C   C187      1.0  0.99261  0.10711  0.02814  1.0000
  C   C188      1.0  0.24751  0.12318  0.01442  1.0000
  C   C189      1.0  0.01742  0.05454  0.49398  1.0000
  H   H146      1.0  0.19198  0.24245  0.45378  1.0000
  H   H147      1.0  0.98554  0.01349  0.50767  1.0000
  Fe  Fe10      1.0  0.30359  0.16788  0.34245  1.0000
  C   C190      1.0  0.97401  0.09751  0.16429  1.0000
  C   C191      1.0  0.98002  0.01716  0.47894  1.0000
  H   H148      1.0  0.10379  0.06782  0.50378  1.0000
  C   C192      1.0  0.00086  0.06376  0.50723  1.0000
  C   C193      1.0  0.28297  0.21182  0.01863  1.0000
  H   H149      1.0  0.11292  0.03699  0.01314  1.0000
  C   C194      1.0  0.11588  0.07670  0.50756  1.0000
  H   H150      1.0  0.97620  0.17827  0.01291  1.0000
  C   C195      1.0  0.30676  0.20308  0.41324  1.0000
  C   C196      1.0  0.30593  0.18545  0.01824  1.0000
  C   C197      1.0  0.25913  0.24739  0.12450  1.0000
  C   C198      1.0  0.27642  0.24748  0.18603  1.0000
  C   C199      1.0  0.30019  0.24590  0.33243  1.0000
  H   H151      1.0  0.98064  0.06223  0.01781  1.0000
  C   C200      1.0  0.99148  0.01062  0.01948  1.0000
  C   C201      1.0  0.29574  0.10194  0.92779  1.0000
  H   H152      1.0  0.21572  0.12923  0.96309  1.0000
  C   C202      1.0  0.18961  0.20038  0.01163  1.0000
  C   C203      1.0  0.11991  0.08495  0.54432  1.0000
  C   C204      1.0  0.99214  0.05739  0.54109  1.0000
  H   H153      1.0  0.25033  0.19243  0.80539  1.0000
  C   C205      1.0  0.22235  0.10477  0.52676  1.0000
  H   H154      1.0  0.24334  0.15963  0.82625  1.0000
  S   S21       1.0  0.14053  0.16057  0.56947  1.0000
  C   C206      1.0  0.14301  0.22238  0.83786  1.0000
  Fe  Fe11      1.0  0.19572  0.15589  0.60673  1.0000
  S   S22       1.0  0.16881  0.15031  0.64388  1.0000
  S   S23       1.0  0.24235  0.15322  0.64002  1.0000
  Fe  Fe12      1.0  0.15604  0.13472  0.59315  1.0000
  S   S24       1.0  0.14023  0.10720  0.59548  1.0000
  Fe  Fe13      1.0  0.15536  0.17650  0.61705  1.0000
  S   S25       1.0  0.14100  0.19960  0.65282  1.0000
  H   H155      1.0  0.14277  0.08944  0.94849  1.0000
  S   S26       1.0  0.18004  0.18321  0.58076  1.0000
  Fe  Fe14      1.0  0.04193  0.05463  0.90783  1.0000
  S   S27       1.0  0.03350  0.03110  0.94771  1.0000
  S   S28       1.0  0.02055  0.07195  0.87222  1.0000
  Fe  Fe15      1.0  0.08268  0.05214  0.93521  1.0000
  S   S29       1.0  0.07766  0.02795  0.97624  1.0000
  S   S30       1.0  0.11113  0.06557  0.93220  1.0000
  Fe  Fe16      1.0  0.05992  0.01575  0.92814  1.0000
  H   H156      1.0  0.23315  0.20740  0.69178  1.0000
  Fe  Fe17      1.0  0.05189  0.04505  0.99214  1.0000
  S   S31       1.0  0.97839  0.02742  0.73713  1.0000
  S   S32       1.0  0.06725  0.03841  0.88468  1.0000
  S   S33       1.0  0.05796  0.07016  0.95462  1.0000
  C   C207      1.0  0.28820  0.19313  0.00766  1.0000
  H   H157      1.0  0.25258  0.24144  0.57279  1.0000
  C   C208      1.0  0.00834  0.05954  0.83549  1.0000
  C   C209      1.0  0.01322  0.04050  0.82689  1.0000
  C   C210      1.0  0.00404  0.03095  0.79636  1.0000
  C   C211      1.0  0.98963  0.04025  0.77467  1.0000
  H   H158      1.0  0.29207  0.23418  0.70178  1.0000
  C   C212      1.0  0.99387  0.06891  0.81398  1.0000
  H   H159      1.0  0.02431  0.03322  0.84343  1.0000
  H   H160      1.0  0.00834  0.01640  0.78926  1.0000
  H   H161      1.0  0.01801  0.10753  0.99362  1.0000
  C   C213      1.0  0.10496  0.08149  0.00478  1.0000
  C   C214      1.0  0.23311  0.24161  0.62079  1.0000
  C   C215      1.0  0.01624  0.03234  0.54795  1.0000
  C   C216      1.0  0.99989  0.04168  0.56145  1.0000
  C   C217      1.0  0.16034  0.21520  0.98801  1.0000
  C   C218      1.0  0.18799  0.21346  0.71238  1.0000
  H   H162      1.0  0.01512  0.01252  0.71201  1.0000
  H   H163      1.0  0.02193  0.01995  0.56336  1.0000
  H   H164      1.0  0.29082  0.10471  0.52408  1.0000
  C   C219      1.0  0.13600  0.20569  0.77752  1.0000
  C   C220      1.0  0.12703  0.24507  0.59889  1.0000
  H   H165      1.0  0.13745  0.23455  0.69815  1.0000
  H   H166      1.0  0.99653  0.02235  0.00237  1.0000
  H   H167      1.0  0.25972  0.19461  0.65310  1.0000
  H   H168      1.0  0.04218  0.04657  0.62695  1.0000
  C   C221      1.0  0.11682  0.08020  0.97266  1.0000
  C   C222      1.0  0.27815  0.11139  0.92803  1.0000
  S   S34       1.0  0.18156  0.13785  0.55745  1.0000
  C   C223      1.0  0.21174  0.08942  0.51366  1.0000
  H   H169      1.0  0.29125  0.15426  0.96557  1.0000
  C   C224      1.0  0.26503  0.12165  0.52623  1.0000
  C   C225      1.0  0.13811  0.10218  0.00540  1.0000
  C   C226      1.0  0.26955  0.14567  0.76113  1.0000
  C   C227      1.0  0.27878  0.15517  0.73153  1.0000
  C   C228      1.0  0.27001  0.15771  0.69484  1.0000
  C   C229      1.0  0.25184  0.15114  0.68782  1.0000
  C   C230      1.0  0.24253  0.14196  0.71787  1.0000
  C   C231      1.0  0.25145  0.13909  0.75423  1.0000
  C   C232      1.0  0.23632  0.19745  0.91870  1.0000
  C   C233      1.0  0.22752  0.23172  0.65412  1.0000
  H   H170      1.0  0.22877  0.13642  0.71320  1.0000
  H   H171      1.0  0.24435  0.13162  0.77699  1.0000
  C   C234      1.0  0.15155  0.22865  0.70218  1.0000
  C   C235      1.0  0.15698  0.21158  0.68305  1.0000
  C   C236      1.0  0.17517  0.20399  0.68832  1.0000
  Fe  Fe18      1.0  0.16679  0.16441  0.53600  1.0000
  H   H172      1.0  0.30319  0.23720  0.96342  1.0000
  H   H173      1.0  0.17928  0.19076  0.67398  1.0000
  C   C237      1.0  0.02455  0.01329  0.68765  1.0000
  C   C238      1.0  0.27639  0.13053  0.94082  1.0000
  C   C239      1.0  0.23707  0.17869  0.93304  1.0000
  S   S35       1.0  0.28044  0.14147  0.80672  1.0000
  C   C240      1.0  0.24846  0.14122  0.99659  1.0000
  H   H174      1.0  0.21469  0.21296  0.99052  1.0000
  C   C241      1.0  0.13349  0.09046  0.97318  1.0000
  H   H175      1.0  0.22915  0.11146  0.82555  1.0000
  C   C242      1.0  0.29238  0.13967  0.95503  1.0000
  H   H176      1.0  0.29859  0.23753  0.87936  1.0000
  H   H177      1.0  0.27853  0.19766  0.87396  1.0000
  C   C243      1.0  0.13542  0.09672  0.54940  1.0000
  H   H178      1.0  0.18142  0.22596  0.51327  1.0000
  H   H179      1.0  0.14722  0.19767  0.51656  1.0000
  C   C244      1.0  0.23207  0.17035  0.82388  1.0000
  C   C245      1.0  0.23604  0.18891  0.81226  1.0000
  H   H180      1.0  0.26957  0.21178  0.59383  1.0000
  C   C246      1.0  0.25787  0.21737  0.61070  1.0000
  C   C247      1.0  0.07312  0.08933  0.85552  1.0000
  C   C248      1.0  0.06026  0.10448  0.86204  1.0000
  C   C249      1.0  0.04835  0.11094  0.83173  1.0000
  C   C250      1.0  0.04909  0.10208  0.79500  1.0000
  C   C251      1.0  0.06144  0.08633  0.78872  1.0000
  C   C252      1.0  0.07378  0.08034  0.81898  1.0000
  P   P7        1.0  0.06271  0.07453  0.74174  1.0000
  C   C253      1.0  0.04218  0.07938  0.71130  1.0000
  C   C254      1.0  0.08399  0.08262  0.72013  1.0000
  C   C255      1.0  0.08403  0.10024  0.70040  1.0000
  C   C256      1.0  0.10056  0.10658  0.68388  1.0000
  C   C257      1.0  0.11722  0.09563  0.68779  1.0000
  C   C258      1.0  0.11744  0.07842  0.70853  1.0000
  C   C259      1.0  0.10094  0.07201  0.72499  1.0000
  C   C260      1.0  0.04383  0.08187  0.67077  1.0000
  C   C261      1.0  0.02777  0.08456  0.64713  1.0000
  C   C262      1.0  0.00997  0.08453  0.66363  1.0000
  C   C263      1.0  0.00820  0.08175  0.70380  1.0000
  C   C264      1.0  0.02422  0.07896  0.72750  1.0000
  C   C265      1.0  0.06331  0.04887  0.74842  1.0000
  C   C266      1.0  0.05557  0.04086  0.78182  1.0000
  C   C267      1.0  0.05628  0.02099  0.78729  1.0000
  S   S36       1.0  0.19972  0.24265  0.75850  1.0000
  C   C268      1.0  0.07178  0.01681  0.72533  1.0000
  C   C269      1.0  0.07098  0.03667  0.71967  1.0000
  H   H181      1.0  0.08244  0.08439  0.87896  1.0000
  H   H182      1.0  0.05944  0.11108  0.89069  1.0000
  H   H183      1.0  0.03832  0.12262  0.83689  1.0000
  H   H184      1.0  0.03989  0.10746  0.77187  1.0000
  H   H185      1.0  0.08375  0.06851  0.81457  1.0000
  H   H186      1.0  0.07130  0.10904  0.69765  1.0000
  H   H187      1.0  0.10052  0.11995  0.66784  1.0000
  H   H188      1.0  0.12997  0.10051  0.67471  1.0000
  H   H189      1.0  0.13041  0.07002  0.71169  1.0000
  H   H190      1.0  0.10148  0.05882  0.74160  1.0000
  H   H191      1.0  0.05742  0.08124  0.65709  1.0000
  H   H192      1.0  0.02905  0.08628  0.61581  1.0000
  H   H193      1.0  0.99753  0.08630  0.64513  1.0000
  H   H194      1.0  0.99438  0.08134  0.71645  1.0000
  H   H195      1.0  0.02257  0.07615  0.75835  1.0000
  H   H196      1.0  0.04902  0.04995  0.80376  1.0000
  H   H197      1.0  0.05049  0.01485  0.81335  1.0000
  H   H198      1.0  0.25094  0.21907  0.88754  1.0000
  C   C270      1.0  0.99542  0.00706  0.90359  1.0000
  H   H199      1.0  0.07637  0.04251  0.69295  1.0000
  C   C271      1.0  0.17568  0.13358  0.74879  1.0000
  C   C272      1.0  0.16467  0.11898  0.76288  1.0000
  C   C273      1.0  0.15696  0.12055  0.80009  1.0000
  C   C274      1.0  0.16023  0.13673  0.82322  1.0000
  C   C275      1.0  0.17131  0.15148  0.80927  1.0000
  C   C276      1.0  0.17891  0.14982  0.77173  1.0000
  P   P8        1.0  0.17517  0.17284  0.83803  1.0000
  C   C277      1.0  0.19906  0.17961  0.82987  1.0000
  C   C278      1.0  0.15887  0.19188  0.82348  1.0000
  C   C279      1.0  0.14894  0.19103  0.78780  1.0000
  C   C280      1.0  0.28403  0.11778  0.53476  1.0000
  H   H200      1.0  0.12330  0.23289  0.79408  1.0000
  H   H201      1.0  0.15081  0.11026  0.00538  1.0000
  C   C281      1.0  0.15588  0.20772  0.84838  1.0000
  C   C282      1.0  0.20320  0.19833  0.81864  1.0000
  C   C283      1.0  0.22163  0.20290  0.80990  1.0000
  C   C284      1.0  0.17125  0.16781  0.88902  1.0000
  C   C285      1.0  0.15280  0.16758  0.90294  1.0000
  C   C286      1.0  0.14947  0.16308  0.94195  1.0000
  C   C287      1.0  0.16450  0.15894  0.96744  1.0000
  C   C288      1.0  0.18288  0.15945  0.95401  1.0000
  C   C289      1.0  0.18628  0.16385  0.91497  1.0000
  H   H202      1.0  0.18154  0.13241  0.71987  1.0000
  H   H203      1.0  0.16197  0.10653  0.74480  1.0000
  H   H204      1.0  0.14829  0.10929  0.81091  1.0000
  H   H205      1.0  0.15398  0.13763  0.85177  1.0000
  H   H206      1.0  0.18719  0.16119  0.76003  1.0000
  H   H207      1.0  0.15110  0.17920  0.76769  1.0000
  C   C290      1.0  0.29887  0.09393  0.67095  1.0000
  H   H208      1.0  0.22538  0.17369  0.94967  1.0000
  H   H209      1.0  0.16349  0.20879  0.87596  1.0000
  H   H210      1.0  0.19228  0.20941  0.81589  1.0000
  H   H211      1.0  0.22467  0.21731  0.80105  1.0000
  H   H212      1.0  0.14097  0.17077  0.88357  1.0000
  H   H213      1.0  0.13522  0.16293  0.95255  1.0000
  H   H214      1.0  0.00357  0.09434  0.93448  1.0000
  H   H215      1.0  0.19448  0.15678  0.97421  1.0000
  H   H216      1.0  0.20059  0.16421  0.90539  1.0000
  C   C291      1.0  0.21888  0.12545  0.93314  1.0000
  C   C292      1.0  0.98443  0.05923  0.78370  1.0000
  H   H217      1.0  0.19854  0.10382  0.85453  1.0000
  C   C293      1.0  0.97599  0.01019  0.90243  1.0000
  H   H218      1.0  0.19196  0.11288  0.92332  1.0000
  C   C294      1.0  0.23966  0.12504  0.87775  1.0000
  C   C295      1.0  0.23617  0.12990  0.91687  1.0000
  C   C296      1.0  0.25291  0.16664  0.92654  1.0000
  H   H219      1.0  0.05670  0.01740  0.59767  1.0000
  S   S37       1.0  0.15791  0.24477  0.93532  1.0000
  H   H220      1.0  0.22404  0.20665  0.92351  1.0000
  C   C297      1.0  0.18266  0.23053  0.73146  1.0000
  H   H221      1.0  0.26092  0.24666  0.68864  1.0000
  H   H222      1.0  0.16195  0.15570  0.99781  1.0000
  C   C298      1.0  0.06457  0.00900  0.75933  1.0000
  P   P9        1.0  0.25359  0.14238  0.94514  1.0000
  C   C299      1.0  0.19951  0.21346  0.98959  1.0000
  H   H223      1.0  0.25283  0.12859  0.86448  1.0000
  C   C300      1.0  0.26761  0.17345  0.90408  1.0000
  H   H224      1.0  0.09230  0.07335  0.00511  1.0000
  H   H225      1.0  0.23250  0.10235  0.55020  1.0000
  C   C301      1.0  0.29421  0.13064  0.55745  1.0000
  C   C302      1.0  0.25596  0.13828  0.54096  1.0000
  H   H226      1.0  0.99333  0.03672  0.58759  1.0000
  H   H227      1.0  0.26601  0.10361  0.91848  1.0000
  H   H228      1.0  0.20203  0.20746  0.71651  1.0000
  C   C303      1.0  0.13311  0.22141  0.80241  1.0000
  H   H229      1.0  0.02139  0.04390  0.68445  1.0000
  H   H230      1.0  0.15437  0.23853  0.57587  1.0000
  P   P10       1.0  0.23126  0.14357  0.53141  1.0000
  H   H231      1.0  0.01456  0.05778  0.00481  1.0000
  H   H232      1.0  0.29283  0.16019  0.73665  1.0000
  H   H233      1.0  0.21067  0.15112  0.84021  1.0000
  C   C304      1.0  0.02517  0.03887  0.51457  1.0000
  C   C305      1.0  0.21364  0.16566  0.83219  1.0000
  C   C306      1.0  0.24822  0.23417  0.59892  1.0000
  C   C307      1.0  0.02814  0.03124  0.67204  1.0000
  C   C308      1.0  0.19146  0.23723  0.51578  1.0000
  C   C309      1.0  0.22048  0.14982  0.57802  1.0000
  H   H234      1.0  0.98999  0.08366  0.82067  1.0000
  H   H235      1.0  0.12663  0.23197  0.61562  1.0000
  C   C310      1.0  0.21544  0.13407  0.60641  1.0000
  C   C311      1.0  0.20895  0.13900  0.64718  1.0000
  C   C312      1.0  0.20753  0.15986  0.66041  1.0000
  C   C313      1.0  0.21237  0.17559  0.63238  1.0000
  C   C314      1.0  0.21892  0.17056  0.59137  1.0000
  C   C315      1.0  0.18989  0.22719  0.96633  1.0000
  C   C316      1.0  0.26660  0.15159  0.56182  1.0000
  C   C317      1.0  0.28550  0.14760  0.57076  1.0000
  C   C318      1.0  0.20903  0.11107  0.87190  1.0000
  H   H236      1.0  0.28139  0.11964  0.67252  1.0000
  H   H237      1.0  0.11088  0.08237  0.56875  1.0000
  H   H238      1.0  0.29322  0.15760  0.58857  1.0000
  C   C319      1.0  0.26695  0.19235  0.89049  1.0000
  C   C320      1.0  0.04806  0.01623  0.62336  1.0000
  H   H239      1.0  0.21709  0.11917  0.59860  1.0000
  H   H240      1.0  0.20580  0.12759  0.66709  1.0000
  H   H241      1.0  0.20352  0.16344  0.68998  1.0000
  H   H242      1.0  0.21148  0.19037  0.64174  1.0000
  H   H243      1.0  0.22345  0.18195  0.57274  1.0000
  H   H244      1.0  0.26014  0.16491  0.57202  1.0000
  C   C321      1.0  0.17027  0.22797  0.96511  1.0000
  C   C322      1.0  0.03985  0.03273  0.63987  1.0000
  H   H245      1.0  0.07794  0.00750  0.70327  1.0000
  H   H246      1.0  0.99054  0.14569  0.01028  1.0000
  H   H247      1.0  0.27958  0.16430  0.89674  1.0000
  H   H248      1.0  0.29708  0.08732  0.91712  1.0000
  C   C323      1.0  0.99512  0.09691  0.96016  1.0000
  H   H249      1.0  0.24650  0.22981  0.74419  1.0000
  C   C324      1.0  0.20533  0.11615  0.91064  1.0000
  H   H250      1.0  0.00445  0.01739  0.89066  1.0000
  C   C325      1.0  0.00334  0.10416  0.99429  1.0000
  C   C326      1.0  0.16436  0.23806  0.72672  1.0000
  C   C327      1.0  0.22624  0.11539  0.85556  1.0000
  H   H251      1.0  0.27860  0.18476  0.99036  1.0000
  H   H252      1.0  0.27745  0.16455  0.67167  1.0000
  C   C328      1.0  0.25242  0.20777  0.64419  1.0000
  C   C329      1.0  0.23736  0.21500  0.66596  1.0000
  C   C330      1.0  0.25141  0.20441  0.89810  1.0000
  H   H253      1.0  0.19372  0.23505  0.57822  1.0000
  H   H254      1.0  0.19768  0.23724  0.94954  1.0000
  H   H255      1.0  0.14516  0.21580  0.98733  1.0000
  H   H256      1.0  0.14078  0.23452  0.85731  1.0000
  H   H257      1.0  0.24950  0.11016  0.99743  1.0000
  H   H258      1.0  0.12844  0.20497  0.74984  1.0000
  C   C331      1.0  0.30381  0.24442  0.85357  1.0000
  H   H259      1.0  0.21566  0.23678  0.67109  1.0000
  H   H260      1.0  0.23925  0.24771  0.80533  1.0000
  C   C332      1.0  0.14705  0.09987  0.51769  1.0000
  H   H261      1.0  0.28761  0.08467  0.67882  1.0000
  H   H262      1.0  0.27980  0.23758  0.81803  1.0000
  H   H263      1.0  0.21377  0.07539  0.52683  1.0000
  H   H264      1.0  0.15915  0.10866  0.52126  1.0000
  C   C333      1.0  0.16999  0.20145  0.01134  1.0000
  C   C334      1.0  0.29538  0.11365  0.66742  1.0000
  C   C335      1.0  0.29318  0.24452  0.81904  1.0000
  H   H265      1.0  0.20206  0.17281  0.51327  1.0000
  C   C336      1.0  0.24980  0.24481  0.74672  1.0000
  H   H266      1.0  0.24700  0.17199  0.00715  1.0000
  H   H267      1.0  0.26936  0.21785  0.00987  1.0000
  C   C337      1.0  0.19846  0.24243  0.55253  1.0000
  H   H268      1.0  0.30683  0.14097  0.65643  1.0000
  C   C338      1.0  0.97602  0.09307  0.95895  1.0000
  H   H269      1.0  0.11180  0.35473  0.38322  1.0000
  H   H270      1.0  0.12554  0.30780  0.14589  1.0000
  H   H271      1.0  0.19220  0.25971  0.14234  1.0000
  C   C339      1.0  0.12077  0.29742  0.47892  1.0000
  C   C340      1.0  0.00273  0.45914  0.11922  1.0000
  H   H272      1.0  0.12823  0.30154  0.02148  1.0000
  C   C341      1.0  0.99082  0.45083  0.44705  1.0000
  Fe  Fe19      1.0  0.08791  0.37668  0.18466  1.0000
  S   S38       1.0  0.09029  0.40192  0.22509  1.0000
  S   S39       1.0  0.10395  0.34830  0.19071  1.0000
  Fe  Fe20      1.0  0.05896  0.39739  0.13255  1.0000
  S   S40       1.0  0.05836  0.42371  0.17016  1.0000
  S   S41       1.0  0.04506  0.40106  0.07386  1.0000
  Fe  Fe21      1.0  0.08958  0.41979  0.17085  1.0000
  S   S42       1.0  0.10641  0.44596  0.16046  1.0000
  Fe  Fe22      1.0  0.05888  0.40334  0.22053  1.0000
  S   S43       1.0  0.04460  0.41012  0.27722  1.0000
  S   S44       1.0  0.09031  0.39445  0.13058  1.0000
  S   S45       1.0  0.05629  0.37715  0.18289  1.0000
  Fe  Fe23      1.0  0.20076  0.27883  0.35984  1.0000
  S   S46       1.0  0.18021  0.29304  0.40041  1.0000
  S   S47       1.0  0.23157  0.27285  0.37216  1.0000
  Fe  Fe24      1.0  0.17028  0.26823  0.30096  1.0000
  S   S48       1.0  0.14717  0.28099  0.33721  1.0000
  H   H273      1.0  0.02015  0.31678  0.28966  1.0000
  Fe  Fe25      1.0  0.16654  0.30526  0.34613  1.0000
  S   S49       1.0  0.15444  0.33534  0.34288  1.0000
  Fe  Fe26      1.0  0.16266  0.26761  0.38792  1.0000
  H   H274      1.0  0.01744  0.41041  0.01647  1.0000
  S   S50       1.0  0.18879  0.29354  0.30626  1.0000
  S   S51       1.0  0.18415  0.25230  0.35090  1.0000
  H   H275      1.0  0.12089  0.28837  0.08576  1.0000
  C   C342      1.0  0.10386  0.28774  0.28431  1.0000
  H   H276      1.0  0.04074  0.45403  0.24855  1.0000
  H   H277      1.0  0.26677  0.26883  0.08298  1.0000
  H   H278      1.0  0.06847  0.42818  0.33431  1.0000
  H   H279      1.0  0.29669  0.26965  0.19262  1.0000
  C   C343      1.0  0.24333  0.33269  0.14451  1.0000
  C   C344      1.0  0.18079  0.33392  0.02129  1.0000
  C   C345      1.0  0.02378  0.39029  0.06249  1.0000
  C   C346      1.0  0.01793  0.37404  0.08214  1.0000
  C   C347      1.0  0.00133  0.36519  0.07009  1.0000
  H   H280      1.0  0.08172  0.49558  0.42140  1.0000
  C   C348      1.0  0.08465  0.41747  0.42630  1.0000
  H   H281      1.0  0.02629  0.36820  0.10616  1.0000
  H   H282      1.0  0.99675  0.35263  0.08523  1.0000
  C   C349      1.0  0.02728  0.39514  0.29486  1.0000
  C   C350      1.0  0.01882  0.38118  0.27153  1.0000
  C   C351      1.0  0.00429  0.37029  0.28678  1.0000
  C   C352      1.0  0.99826  0.37345  0.32522  1.0000
  C   C353      1.0  0.00751  0.38663  0.34874  1.0000
  C   C354      1.0  0.02176  0.39760  0.33361  1.0000
  H   H283      1.0  0.02313  0.37911  0.24161  1.0000
  H   H284      1.0  0.99745  0.35984  0.26854  1.0000
  C   C355      1.0  0.08178  0.33516  0.03752  1.0000
  H   H285      1.0  0.02845  0.40810  0.35200  1.0000
  C   C356      1.0  0.09834  0.45723  0.11714  1.0000
  C   C357      1.0  0.08676  0.44748  0.09090  1.0000
  C   C358      1.0  0.07972  0.45668  0.05717  1.0000
  C   C359      1.0  0.10288  0.47624  0.10935  1.0000
  H   H286      1.0  0.08302  0.43289  0.09668  1.0000
  C   C360      1.0  0.99815  0.49525  0.30652  1.0000
  H   H287      1.0  0.09222  0.32711  0.36772  1.0000
  C   C361      1.0  0.11824  0.34504  0.23279  1.0000
  C   C362      1.0  0.12786  0.32743  0.23863  1.0000
  C   C363      1.0  0.13917  0.32441  0.27217  1.0000
  C   C364      1.0  0.14092  0.33903  0.30001  1.0000
  C   C365      1.0  0.13163  0.35673  0.29377  1.0000
  C   C366      1.0  0.12023  0.35967  0.26043  1.0000
  H   H288      1.0  0.12651  0.31604  0.21733  1.0000
  H   H289      1.0  0.14664  0.31084  0.27624  1.0000
  H   H290      1.0  0.13317  0.36817  0.31489  1.0000
  H   H291      1.0  0.11303  0.37329  0.25628  1.0000
  C   C367      1.0  0.24465  0.33872  0.10561  1.0000
  C   C368      1.0  0.10792  0.28309  0.47026  1.0000
  H   H292      1.0  0.11282  0.42288  0.44724  1.0000
  H   H293      1.0  0.01264  0.36401  0.43542  1.0000
  H   H294      1.0  0.13812  0.34034  0.14150  1.0000
  C   C369      1.0  0.26385  0.30477  0.46782  1.0000
  C   C370      1.0  0.27200  0.28889  0.44876  1.0000
  C   C371      1.0  0.26189  0.27927  0.41956  1.0000
  C   C372      1.0  0.24355  0.28533  0.40934  1.0000
  C   C373      1.0  0.23529  0.30113  0.42857  1.0000
  C   C374      1.0  0.24547  0.31089  0.45764  1.0000
  H   H295      1.0  0.08909  0.44654  0.48346  1.0000
  H   H296      1.0  0.26831  0.26706  0.40480  1.0000
  H   H297      1.0  0.22119  0.30599  0.42066  1.0000
  H   H298      1.0  0.05134  0.49078  0.38733  1.0000
  H   H299      1.0  0.10097  0.43925  0.32836  1.0000
  P   P11       1.0  0.22258  0.32085  0.16057  1.0000
  C   C375      1.0  0.21509  0.30436  0.12275  1.0000
  C   C376      1.0  0.22908  0.30768  0.20441  1.0000
  C   C377      1.0  0.22640  0.31604  0.24147  1.0000
  C   C378      1.0  0.23271  0.30642  0.27520  1.0000
  C   C379      1.0  0.24189  0.28853  0.27224  1.0000
  C   C380      1.0  0.24487  0.28027  0.23559  1.0000
  C   C381      1.0  0.23865  0.28982  0.20175  1.0000
  C   C382      1.0  0.22847  0.29420  0.10036  1.0000
  C   C383      1.0  0.22276  0.28167  0.07074  1.0000
  C   C384      1.0  0.97358  0.42357  0.10504  1.0000
  H   H300      1.0  0.10543  0.38178  0.43312  1.0000
  C   C385      1.0  0.19590  0.30188  0.11464  1.0000
  C   C386      1.0  0.20366  0.33807  0.17006  1.0000
  C   C387      1.0  0.18880  0.33313  0.19425  1.0000
  C   C388      1.0  0.17389  0.34618  0.20078  1.0000
  C   C389      1.0  0.17348  0.36413  0.18287  1.0000
  C   C390      1.0  0.18810  0.36912  0.15853  1.0000
  C   C391      1.0  0.20316  0.35617  0.15214  1.0000
  H   H301      1.0  0.21975  0.33011  0.24451  1.0000
  H   H302      1.0  0.23047  0.31278  0.30380  1.0000
  H   H303      1.0  0.24684  0.28111  0.29836  1.0000
  H   H304      1.0  0.25222  0.26655  0.23364  1.0000
  H   H305      1.0  0.24170  0.28342  0.17366  1.0000
  H   H306      1.0  0.24334  0.29611  0.10544  1.0000
  H   H307      1.0  0.16154  0.28983  0.48276  1.0000
  S   S52       1.0  0.16359  0.25770  0.24034  1.0000
  H   H308      1.0  0.02196  0.49072  0.42450  1.0000
  H   H309      1.0  0.18518  0.30940  0.13125  1.0000
  H   H310      1.0  0.18867  0.31915  0.20801  1.0000
  H   H311      1.0  0.16263  0.34242  0.21988  1.0000
  H   H312      1.0  0.16183  0.37416  0.18802  1.0000
  H   H313      1.0  0.18778  0.38308  0.14473  1.0000
  H   H314      1.0  0.21431  0.36037  0.13322  1.0000
  C   C392      1.0  0.28230  0.27135  0.13698  1.0000
  C   C393      1.0  0.03520  0.49193  0.44004  1.0000
  H   H315      1.0  0.06292  0.29957  0.38885  1.0000
  H   H316      1.0  0.21602  0.26725  0.45927  1.0000
  C   C394      1.0  0.12916  0.31348  0.11764  1.0000
  H   H317      1.0  0.07229  0.36585  0.45244  1.0000
  C   C395      1.0  0.07949  0.44289  0.50621  1.0000
  C   C396      1.0  0.20369  0.27943  0.06267  1.0000
  H   H318      1.0  0.05764  0.33494  0.17556  1.0000
  C   C397      1.0  0.98694  0.44898  0.23718  1.0000
  C   C398      1.0  0.14068  0.33939  0.07877  1.0000
  C   C399      1.0  0.01477  0.45001  0.27829  1.0000
  H   H319      1.0  0.06986  0.46316  0.18379  1.0000
  C   C400      1.0  0.05303  0.49637  0.49996  1.0000
  C   C401      1.0  0.08392  0.47578  0.04969  1.0000
  H   H320      1.0  0.11147  0.35892  0.03611  1.0000
  H   H321      1.0  0.29933  0.30843  0.36349  1.0000
  H   H322      1.0  0.02356  0.32933  0.16766  1.0000
  C   C402      1.0  0.06077  0.48949  0.21169  1.0000
  S   S53       1.0  0.97917  0.36113  0.34411  1.0000
  H   H323      1.0  0.10593  0.25697  0.28226  1.0000
  C   C403      1.0  0.09556  0.48557  0.07580  1.0000
  H   H324      1.0  0.98148  0.48951  0.19059  1.0000
  S   S54       1.0  0.14695  0.25581  0.43832  1.0000
  C   C404      1.0  0.02036  0.31515  0.42168  1.0000
  C   C405      1.0  0.05666  0.48276  0.14276  1.0000
  C   C406      1.0  0.97640  0.39381  0.15941  1.0000
  P   P12       1.0  0.01402  0.49484  0.50784  1.0000
  C   C407      1.0  0.03023  0.32811  0.19626  1.0000
  C   C408      1.0  0.21097  0.26052  0.48544  1.0000
  H   H325      1.0  0.13186  0.36144  0.45829  1.0000
  H   H326      1.0  0.08871  0.32811  0.06220  1.0000
  C   C409      1.0  0.00193  0.47806  0.10532  1.0000
  H   H327      1.0  0.11176  0.48387  0.12962  1.0000
  C   C410      1.0  0.06803  0.28318  0.31435  1.0000
  C   C411      1.0  0.99053  0.37275  0.03881  1.0000
  C   C412      1.0  0.00294  0.46166  0.46998  1.0000
  H   H328      1.0  0.04418  0.34768  0.43650  1.0000
  H   H329      1.0  0.17591  0.33215  0.05075  1.0000
  C   C413      1.0  0.01373  0.48358  0.07533  1.0000
  C   C414      1.0  0.01535  0.32798  0.39181  1.0000
  H   H330      1.0  0.28623  0.28420  0.45604  1.0000
  H   H331      1.0  0.06892  0.35762  0.07266  1.0000
  C   C415      1.0  0.10180  0.28014  0.43173  1.0000
  C   C416      1.0  0.06954  0.49701  0.47850  1.0000
  H   H332      1.0  0.28631  0.32905  0.41575  1.0000
  H   H333      1.0  0.02605  0.45566  0.18309  1.0000
  H   H334      1.0  0.01295  0.49815  0.06441  1.0000
  C   C417      1.0  0.04277  0.36280  0.44330  1.0000
  H   H335      1.0  0.03616  0.47476  0.03696  1.0000
  C   C418      1.0  0.05870  0.37317  0.45259  1.0000
  C   C419      1.0  0.06896  0.49472  0.43798  1.0000
  H   H336      1.0  0.01671  0.45569  0.47769  1.0000
  H   H337      1.0  0.05667  0.36322  0.29392  1.0000
  H   H338      1.0  0.28646  0.34619  0.17735  1.0000
  C   C420      1.0  0.97947  0.48754  0.47179  1.0000
  C   C421      1.0  0.07324  0.34299  0.32913  1.0000
  C   C422      1.0  0.05695  0.39276  0.46176  1.0000
  C   C423      1.0  0.06303  0.47711  0.17984  1.0000
  H   H339      1.0  0.11757  0.28946  0.27172  1.0000
  H   H340      1.0  0.01698  0.43130  0.11372  1.0000
  C   C424      1.0  0.03570  0.49382  0.48093  1.0000
  C   C425      1.0  0.07071  0.35177  0.04346  1.0000
  H   H341      1.0  0.12639  0.31456  0.38677  1.0000
  C   C426      1.0  0.12645  0.30262  0.08373  1.0000
  H   H342      1.0  0.00372  0.38832  0.37883  1.0000
  H   H343      1.0  0.02143  0.44872  0.30684  1.0000
  C   C427      1.0  0.01591  0.44598  0.10337  1.0000
  S   S55       1.0  0.27781  0.30598  0.05585  1.0000
  H   H344      1.0  0.05834  0.47312  0.11815  1.0000
  C   C428      1.0  0.06858  0.36114  0.31364  1.0000
  C   C429      1.0  0.07479  0.30172  0.30956  1.0000
  H   H345      1.0  0.03743  0.41714  0.46647  1.0000
  C   C430      1.0  0.99787  0.45146  0.20383  1.0000
  C   C431      1.0  0.13783  0.32866  0.04441  1.0000
  C   C432      1.0  0.02327  0.39156  0.45083  1.0000
  C   C433      1.0  0.07943  0.37687  0.32340  1.0000
  H   H346      1.0  0.23916  0.32324  0.47212  1.0000
  H   H347      1.0  0.01762  0.48650  0.35199  1.0000
  C   C434      1.0  0.10796  0.38089  0.46431  1.0000
  C   C435      1.0  0.27596  0.34995  0.11855  1.0000
  C   C436      1.0  0.09726  0.26936  0.29024  1.0000
  H   H348      1.0  0.06550  0.48476  0.24037  1.0000
  H   H349      1.0  0.09232  0.26871  0.42505  1.0000
  C   C437      1.0  0.10847  0.29145  0.40168  1.0000
  C   C438      1.0  0.12101  0.30595  0.41017  1.0000
  C   C439      1.0  0.12706  0.30904  0.44865  1.0000
  H   H350      1.0  0.22332  0.25419  0.17312  1.0000
  H   H351      1.0  0.98925  0.37836  0.50080  1.0000
  C   C440      1.0  0.13631  0.33183  0.11515  1.0000
  C   C441      1.0  0.25838  0.33586  0.17057  1.0000
  C   C442      1.0  0.02567  0.45300  0.24537  1.0000
  H   H352      1.0  0.05388  0.28119  0.32433  1.0000
  C   C443      1.0  0.27467  0.34431  0.15749  1.0000
  C   C444      1.0  0.13071  0.31017  0.04721  1.0000
  P   P13       1.0  0.98674  0.45141  0.15613  1.0000
  H   H353      1.0  0.98628  0.48865  0.31991  1.0000
  H   H354      1.0  0.09788  0.31799  0.28802  1.0000
  C   C445      1.0  0.01302  0.39772  0.03131  1.0000
  H   H355      1.0  0.17546  0.28780  0.07831  1.0000
  H   H356      1.0  0.13686  0.32028  0.45454  1.0000
  C   C446      1.0  0.02505  0.37197  0.44258  1.0000
  C   C447      1.0  0.10301  0.42395  0.42280  1.0000
  H   H357      1.0  0.24095  0.30923  0.02164  1.0000
  C   C448      1.0  0.07164  0.42471  0.50762  1.0000
  C   C449      1.0  0.11844  0.36919  0.01833  1.0000
  C   C450      1.0  0.09268  0.30386  0.29380  1.0000
  C   C451      1.0  0.03757  0.30502  0.42053  1.0000
  C   C452      1.0  0.02787  0.45164  0.07383  1.0000
  H   H358      1.0  0.04162  0.29539  0.44414  1.0000
  C   C453      1.0  0.09640  0.39133  0.49022  1.0000
  H   H359      1.0  0.05801  0.41419  0.39555  1.0000
  H   H360      1.0  0.03805  0.44143  0.06190  1.0000
  H   H361      1.0  0.10422  0.28877  0.37173  1.0000
  H   H362      1.0  0.14609  0.35372  0.07744  1.0000
  C   C454      1.0  0.09489  0.37464  0.34870  1.0000
  H   H363      1.0  0.98692  0.44569  0.29971  1.0000
  C   C455      1.0  0.12293  0.36935  0.47848  1.0000
  H   H364      1.0  0.25781  0.33152  0.20081  1.0000
  H   H365      1.0  0.97794  0.38218  0.18016  1.0000
  C   C456      1.0  0.10887  0.43180  0.38763  1.0000
  C   C457      1.0  0.26088  0.34735  0.09275  1.0000
  H   H366      1.0  0.12309  0.43667  0.38501  1.0000
  H   H367      1.0  0.00954  0.39869  0.45009  1.0000
  H   H368      1.0  0.19402  0.30105  0.48181  1.0000
  H   H369      1.0  0.26213  0.35123  0.06231  1.0000
  C   C458      1.0  0.01728  0.45371  0.20820  1.0000
  H   H370      1.0  0.07601  0.39077  0.31081  1.0000
  H   H371      1.0  0.20967  0.32855  0.03838  1.0000
  C   C459      1.0  0.99642  0.38904  0.01957  1.0000
  C   C460      1.0  0.03912  0.40194  0.46039  1.0000
  C   C461      1.0  0.09946  0.35665  0.36460  1.0000
  C   C462      1.0  0.99740  0.48015  0.48235  1.0000
  C   C463      1.0  0.18404  0.30747  0.50199  1.0000
  H   H372      1.0  0.10349  0.38680  0.35530  1.0000
  H   H373      1.0  0.07061  0.44910  0.03734  1.0000
  C   C464      1.0  0.07937  0.26706  0.30536  1.0000
  C   C465      1.0  0.98148  0.41230  0.17031  1.0000
  H   H374      1.0  0.07271  0.33339  0.24054  1.0000
  C   C466      1.0  0.07221  0.41913  0.39411  1.0000
  H   H375      1.0  0.23336  0.33634  0.08492  1.0000
  C   C467      1.0  0.08854  0.34094  0.35523  1.0000
  C   C468      1.0  0.02841  0.32148  0.26552  1.0000
  H   H376      1.0  0.99227  0.48858  0.11752  1.0000
  H   H377      1.0  0.23316  0.27391  0.05350  1.0000
  P   P14       1.0  0.07744  0.40665  0.47139  1.0000
  C   C469      1.0  0.26918  0.26303  0.11201  1.0000
  H   H378      1.0  0.10293  0.27392  0.49304  1.0000
  H   H379      1.0  0.00495  0.32037  0.22518  1.0000
  C   C470      1.0  0.30135  0.32829  0.41120  1.0000
  C   C471      1.0  0.20006  0.33193  0.01448  1.0000
  C   C472      1.0  0.01976  0.32313  0.22866  1.0000
  C   C473      1.0  0.99539  0.44813  0.27423  1.0000
  C   C474      1.0  0.07811  0.42707  0.35910  1.0000
  H   H380      1.0  0.02359  0.34112  0.33850  1.0000
  C   C475      1.0  0.02676  0.47040  0.05970  1.0000
  H   H381      1.0  0.00212  0.33607  0.39290  1.0000
  C   C476      1.0  0.28602  0.26352  0.17385  1.0000
  P   P15       1.0  0.05950  0.32249  0.31696  1.0000
  C   C477      1.0  0.04747  0.32564  0.27050  1.0000
  C   C478      1.0  0.04424  0.31966  0.35807  1.0000
  C   C479      1.0  0.02745  0.33061  0.36065  1.0000
  C   C480      1.0  0.09643  0.43331  0.35575  1.0000
  C   C481      1.0  0.04954  0.30733  0.38896  1.0000
  C   C482      1.0  0.05789  0.33050  0.23770  1.0000
  C   C483      1.0  0.04936  0.33142  0.20071  1.0000
  C   C484      1.0  0.19027  0.28958  0.08454  1.0000
  C   C485      1.0  0.16562  0.30116  0.50266  1.0000
  H   H382      1.0  0.28974  0.28374  0.12751  1.0000
  C   C486      1.0  0.30426  0.25417  0.36861  1.0000
  H   H383      1.0  0.98685  0.41454  0.19964  1.0000
  C   C487      1.0  0.05180  0.49208  0.41878  1.0000
  H   H384      1.0  0.01099  0.31332  0.44596  1.0000
  H   H385      1.0  0.28880  0.35599  0.10817  1.0000
  H   H386      1.0  0.99516  0.43654  0.43789  1.0000
  H   H387      1.0  0.19934  0.26984  0.03941  1.0000
  H   H388      1.0  0.09831  0.32749  0.49794  1.0000
  S   S56       1.0  0.97387  0.41733  0.51096  1.0000
  H   H389      1.0  0.05282  0.37342  0.01690  1.0000
  C   C488      1.0  0.11134  0.38810  0.01733  1.0000
  S   S57       1.0  0.27665  0.31748  0.50343  1.0000
  H   H390      1.0  0.09912  0.39222  0.03440  1.0000
  C   C489      1.0  0.98001  0.42738  0.14320  1.0000
  H   H391      1.0  0.07413  0.25279  0.30919  1.0000
  C   C490      1.0  0.01582  0.49417  0.32473  1.0000
  H   H392      1.0  0.29721  0.29145  0.73113  1.0000
  C   C491      1.0  0.24973  0.30122  0.00149  1.0000
  H   H393      1.0  0.97831  0.48876  0.94408  1.0000
  H   H394      1.0  0.01570  0.36093  0.53471  1.0000
  H   H395      1.0  0.99154  0.47640  0.73578  1.0000
  H   H396      1.0  0.00696  0.45832  0.54935  1.0000
  C   C492      1.0  0.98140  0.39718  0.65826  1.0000
  Fe  Fe27      1.0  0.09388  0.38054  0.69251  1.0000
  S   S58       1.0  0.08625  0.40422  0.73459  1.0000
  S   S59       1.0  0.12083  0.36196  0.69139  1.0000
  Fe  Fe28      1.0  0.05640  0.38449  0.64844  1.0000
  S   S60       1.0  0.04550  0.40795  0.68746  1.0000
  S   S61       1.0  0.04058  0.37148  0.59733  1.0000
  Fe  Fe29      1.0  0.07406  0.42025  0.68284  1.0000
  S   S62       1.0  0.07113  0.45268  0.68339  1.0000
  Fe  Fe30      1.0  0.05815  0.39068  0.73658  1.0000
  S   S63       1.0  0.04553  0.39139  0.79633  1.0000
  S   S64       1.0  0.08428  0.39792  0.63966  1.0000
  S   S65       1.0  0.06654  0.36572  0.69840  1.0000
  Fe  Fe31      1.0  0.21370  0.27752  0.87810  1.0000
  S   S66       1.0  0.18784  0.28908  0.90805  1.0000
  S   S67       1.0  0.24472  0.27702  0.89373  1.0000
  Fe  Fe32      1.0  0.19126  0.26043  0.81078  1.0000
  S   S68       1.0  0.16332  0.27015  0.83467  1.0000
  C   C493      1.0  0.09998  0.49216  0.59829  1.0000
  Fe  Fe33      1.0  0.17736  0.29794  0.84788  1.0000
  S   S69       1.0  0.16239  0.32718  0.84286  1.0000
  Fe  Fe34      1.0  0.17555  0.26071  0.89281  1.0000
  H   H397      1.0  0.29145  0.25396  0.75943  1.0000
  S   S70       1.0  0.20444  0.28892  0.81939  1.0000
  C   C494      1.0  0.16951  0.28104  0.64696  1.0000
  H   H398      1.0  0.01530  0.42698  0.93461  1.0000
  H   H399      1.0  0.13811  0.35931  0.52970  1.0000
  C   C495      1.0  0.07061  0.34011  0.83251  1.0000
  H   H400      1.0  0.98532  0.39670  0.86086  1.0000
  H   H401      1.0  0.18810  0.33706  0.71629  1.0000
  C   C496      1.0  0.26639  0.33382  0.82100  1.0000
  H   H402      1.0  0.97443  0.45377  0.80564  1.0000
  C   C497      1.0  0.18361  0.27431  0.62191  1.0000
  C   C498      1.0  0.02164  0.38413  0.57433  1.0000
  C   C499      1.0  0.01633  0.40273  0.58593  1.0000
  C   C500      1.0  0.00143  0.41257  0.56659  1.0000
  H   H403      1.0  0.98827  0.35636  0.76599  1.0000
  H   H404      1.0  0.09995  0.28459  0.57783  1.0000
  H   H405      1.0  0.02354  0.40943  0.61007  1.0000
  H   H406      1.0  0.99729  0.42688  0.57571  1.0000
  C   C501      1.0  0.02190  0.38573  0.80146  1.0000
  C   C502      1.0  0.01334  0.37223  0.77725  1.0000
  C   C503      1.0  0.99473  0.36712  0.78413  1.0000
  C   C504      1.0  0.01844  0.35350  0.89421  1.0000
  C   C505      1.0  0.99310  0.38956  0.83812  1.0000
  C   C506      1.0  0.01168  0.39450  0.83157  1.0000
  H   H407      1.0  0.02119  0.36544  0.75389  1.0000
  C   C507      1.0  0.15842  0.32393  0.55436  1.0000
  C   C508      1.0  0.99229  0.33879  0.92553  1.0000
  H   H408      1.0  0.01814  0.40525  0.84972  1.0000
  C   C509      1.0  0.08299  0.46762  0.65140  1.0000
  C   C510      1.0  0.09760  0.46061  0.62805  1.0000
  C   C511      1.0  0.10623  0.47294  0.60187  1.0000
  C   C512      1.0  0.29976  0.25371  0.78602  1.0000
  H   H409      1.0  0.10208  0.44567  0.62984  1.0000
  H   H410      1.0  0.08927  0.35164  0.79029  1.0000
  H   H411      1.0  0.15517  0.26802  0.53657  1.0000
  C   C513      1.0  0.13126  0.35155  0.73409  1.0000
  C   C514      1.0  0.12792  0.35925  0.77123  1.0000
  C   C515      1.0  0.13729  0.35140  0.80430  1.0000
  C   C516      1.0  0.14991  0.33561  0.80073  1.0000
  C   C517      1.0  0.15298  0.32762  0.76370  1.0000
  C   C518      1.0  0.14383  0.33569  0.73051  1.0000
  H   H412      1.0  0.11853  0.37162  0.77429  1.0000
  H   H413      1.0  0.13489  0.35772  0.83278  1.0000
  H   H414      1.0  0.16273  0.31555  0.76059  1.0000
  H   H415      1.0  0.14657  0.32968  0.70190  1.0000
  C   C519      1.0  0.02799  0.35464  0.93031  1.0000
  C   C520      1.0  0.13575  0.39638  0.97266  1.0000
  H   H416      1.0  0.11591  0.29958  0.86329  1.0000
  C   C521      1.0  0.08396  0.32778  0.99974  1.0000
  C   C522      1.0  0.99062  0.36343  0.65829  1.0000
  C   C523      1.0  0.01330  0.46827  0.56953  1.0000
  P   P16       1.0  0.22060  0.26302  0.60403  1.0000
  C   C524      1.0  0.24203  0.29448  0.96611  1.0000
  C   C525      1.0  0.25345  0.28451  0.93959  1.0000
  C   C526      1.0  0.27246  0.28086  0.94911  1.0000
  C   C527      1.0  0.28009  0.28739  0.98468  1.0000
  H   H417      1.0  0.09952  0.25488  0.61631  1.0000
  H   H418      1.0  0.22734  0.29714  0.95908  1.0000
  H   H419      1.0  0.28130  0.27288  0.92895  1.0000
  C   C528      1.0  0.28256  0.32481  0.88133  1.0000
  H   H420      1.0  0.15525  0.28316  0.63608  1.0000
  H   H421      1.0  0.00160  0.35232  0.65878  1.0000
  C   C529      1.0  0.02463  0.47508  0.63521  1.0000
  H   H422      1.0  0.19542  0.28485  0.73073  1.0000
  C   C530      1.0  0.06345  0.36058  0.88844  1.0000
  C   C531      1.0  0.06172  0.36088  0.01173  1.0000
  H   H423      1.0  0.19962  0.33843  0.91600  1.0000
  C   C532      1.0  0.00100  0.41605  0.74202  1.0000
  H   H424      1.0  0.26949  0.35259  0.87080  1.0000
  H   H425      1.0  0.07157  0.42800  0.98122  1.0000
  C   C533      1.0  0.14269  0.24886  0.57653  1.0000
  C   C534      1.0  0.11974  0.33492  0.93167  1.0000
  H   H426      1.0  0.15063  0.30048  0.96643  1.0000
  H   H427      1.0  0.10540  0.47869  0.84079  1.0000
  C   C535      1.0  0.26980  0.31532  0.80587  1.0000
  H   H428      1.0  0.26563  0.34456  0.71319  1.0000
  C   C536      1.0  0.26875  0.29764  0.01091  1.0000
  H   H429      1.0  0.98547  0.41200  0.65890  1.0000
  H   H430      1.0  0.08809  0.46285  0.89300  1.0000
  C   C537      1.0  0.23583  0.28315  0.60190  1.0000
  C   C538      1.0  0.20201  0.27094  0.63617  1.0000
  C   C539      1.0  0.20622  0.27520  0.67540  1.0000
  C   C540      1.0  0.19213  0.28209  0.70024  1.0000
  C   C541      1.0  0.17376  0.28486  0.68615  1.0000
  H   H431      1.0  0.11757  0.37725  0.57597  1.0000
  C   C542      1.0  0.98544  0.48407  0.91785  1.0000
  C   C543      1.0  0.25451  0.28173  0.61536  1.0000
  C   C544      1.0  0.26583  0.29771  0.61445  1.0000
  C   C545      1.0  0.25876  0.31510  0.59946  1.0000
  C   C546      1.0  0.24012  0.31670  0.58640  1.0000
  C   C547      1.0  0.22861  0.30085  0.58814  1.0000
  H   H432      1.0  0.97845  0.33284  0.92376  1.0000
  C   C548      1.0  0.20788  0.33147  0.76332  1.0000
  Fe  Fe35      1.0  0.30244  0.30131  0.52648  1.0000
  C   C549      1.0  0.06274  0.45249  0.56449  1.0000
  H   H433      1.0  0.19792  0.33541  0.78591  1.0000
  C   C550      1.0  0.28672  0.30667  0.86577  1.0000
  C   C551      1.0  0.09928  0.32912  0.52932  1.0000
  H   H434      1.0  0.01006  0.38628  0.66129  1.0000
  C   C552      1.0  0.29190  0.34173  0.68364  1.0000
  C   C553      1.0  0.27257  0.33846  0.85880  1.0000
  P   P17       1.0  0.05097  0.36484  0.93349  1.0000
  H   H435      1.0  0.22034  0.27298  0.68704  1.0000
  H   H436      1.0  0.16281  0.28980  0.70575  1.0000
  H   H437      1.0  0.99342  0.34455  0.86399  1.0000
  C   C554      1.0  0.02939  0.49341  0.62342  1.0000
  C   C555      1.0  0.05956  0.42046  0.53833  1.0000
  H   H438      1.0  0.21416  0.30221  0.57827  1.0000
  C   C556      1.0  0.07491  0.33689  0.96797  1.0000
  C   C557      1.0  0.11210  0.27490  0.57748  1.0000
  C   C558      1.0  0.11296  0.31880  0.55145  1.0000
  C   C559      1.0  0.21152  0.25702  0.55612  1.0000
  C   C560      1.0  0.08649  0.34167  0.54781  1.0000
  C   C561      1.0  0.11498  0.37836  0.54471  1.0000
  C   C562      1.0  0.17517  0.33928  0.95213  1.0000
  C   C563      1.0  0.13801  0.49092  0.72584  1.0000
  H   H439      1.0  0.18119  0.34158  0.57306  1.0000
  C   C564      1.0  0.10314  0.48144  0.75529  1.0000
  C   C565      1.0  0.11269  0.46881  0.73013  1.0000
  C   C566      1.0  0.13001  0.47361  0.71511  1.0000
  H   H440      1.0  0.21036  0.32662  0.66462  1.0000
  C   C567      1.0  0.08229  0.47578  0.87954  1.0000
  H   H441      1.0  0.14887  0.33049  0.57506  1.0000
  H   H442      1.0  0.13893  0.28349  0.90831  1.0000
  H   H443      1.0  0.11459  0.41643  0.99417  1.0000
  C   C568      1.0  0.08242  0.35393  0.81805  1.0000
  H   H444      1.0  0.08932  0.47789  0.76518  1.0000
  H   H445      1.0  0.10648  0.45542  0.72156  1.0000
  H   H446      1.0  0.13709  0.46397  0.69482  1.0000
  C   C569      1.0  0.98208  0.44326  0.78817  1.0000
  C   C570      1.0  0.21485  0.32646  0.69499  1.0000
  H   H447      1.0  0.97520  0.40093  0.74126  1.0000
  C   C571      1.0  0.24579  0.25480  0.78121  1.0000
  C   C572      1.0  0.19444  0.33747  0.94553  1.0000
  H   H448      1.0  0.10389  0.33251  0.87794  1.0000
  C   C573      1.0  0.06270  0.40064  0.95937  1.0000
  C   C574      1.0  0.06030  0.42023  0.96746  1.0000
  C   C575      1.0  0.04324  0.42975  0.95853  1.0000
  C   C576      1.0  0.16816  0.33769  0.99013  1.0000
  C   C577      1.0  0.98221  0.41366  0.75097  1.0000
  H   H449      1.0  0.14241  0.40695  0.95486  1.0000
  H   H450      1.0  0.04133  0.44487  0.96542  1.0000
  C   C578      1.0  0.07733  0.48703  0.64904  1.0000
  C   C579      1.0  0.29551  0.30546  0.71786  1.0000
  C   C580      1.0  0.02863  0.41969  0.94114  1.0000
  C   C581      1.0  0.27927  0.31688  0.72424  1.0000
  H   H451      1.0  0.18007  0.27187  0.59155  1.0000
  P   P18       1.0  0.26166  0.30908  0.75736  1.0000
  C   C582      1.0  0.25801  0.28374  0.75347  1.0000
  C   C583      1.0  0.98468  0.37555  0.81508  1.0000
  C   C584      1.0  0.00308  0.47195  0.84873  1.0000
  H   H452      1.0  0.09118  0.39747  0.55138  1.0000
  H   H453      1.0  0.28367  0.28774  0.81698  1.0000
  C   C585      1.0  0.26172  0.27375  0.71865  1.0000
  C   C586      1.0  0.11171  0.25802  0.59922  1.0000
  C   C587      1.0  0.23303  0.31997  0.70519  1.0000
  H   H454      1.0  0.98023  0.45420  0.92709  1.0000
  C   C588      1.0  0.24978  0.27419  0.78446  1.0000
  C   C589      1.0  0.23887  0.31945  0.74457  1.0000
  C   C590      1.0  0.22607  0.32498  0.77361  1.0000
  C   C591      1.0  0.98662  0.46458  0.90834  1.0000
  H   H455      1.0  0.15499  0.37365  0.95622  1.0000
  H   H456      1.0  0.04611  0.43102  0.59053  1.0000
  H   H457      1.0  0.22881  0.27640  0.52368  1.0000
  H   H458      1.0  0.07593  0.39344  0.96689  1.0000
  C   C592      1.0  0.06134  0.34329  0.86779  1.0000
  H   H459      1.0  0.08168  0.47042  0.53440  1.0000
  H   H460      1.0  0.03959  0.49585  0.80060  1.0000
  H   H461      1.0  0.07759  0.38766  0.88921  1.0000
  H   H462      1.0  0.23477  0.33014  0.57433  1.0000
  H   H463      1.0  0.26772  0.28086  0.69404  1.0000
  C   C593      1.0  0.06377  0.35359  0.97374  1.0000
  H   H464      1.0  0.06627  0.49254  0.66765  1.0000
  C   C594      1.0  0.00263  0.48645  0.74024  1.0000
  H   H465      1.0  0.24624  0.28180  0.81110  1.0000
  H   H466      1.0  0.22980  0.32364  0.80428  1.0000
  C   C595      1.0  0.14311  0.26570  0.55454  1.0000
  C   C596      1.0  0.07516  0.45662  0.53479  1.0000
  H   H467      1.0  0.01284  0.44838  0.61776  1.0000
  C   C597      1.0  0.05515  0.43435  0.56656  1.0000
  H   H468      1.0  0.01933  0.39257  0.92019  1.0000
  C   C598      1.0  0.08514  0.37086  0.83909  1.0000
  H   H469      1.0  0.09402  0.38171  0.82742  1.0000
  C   C599      1.0  0.01655  0.46255  0.60833  1.0000
  C   C600      1.0  0.12649  0.36817  0.51867  1.0000
  H   H470      1.0  0.26787  0.32720  0.59729  1.0000
  H   H471      1.0  0.15138  0.49471  0.71393  1.0000
  C   C601      1.0  0.00156  0.34016  0.96160  1.0000
  C   C602      1.0  0.00192  0.49154  0.85872  1.0000
  P   P19       1.0  0.12867  0.30132  0.52864  1.0000
  C   C603      1.0  0.08733  0.34411  0.58831  1.0000
  C   C604      1.0  0.10087  0.33396  0.61045  1.0000
  C   C605      1.0  0.11362  0.32135  0.59220  1.0000
  H   H472      1.0  0.00850  0.40521  0.72524  1.0000
  C   C606      1.0  0.03097  0.40008  0.93309  1.0000
  H   H473      1.0  0.28021  0.29649  0.62494  1.0000
  C   C607      1.0  0.17683  0.33029  0.55340  1.0000
  H   H474      1.0  0.07746  0.35384  0.60265  1.0000
  H   H475      1.0  0.10138  0.33581  0.64192  1.0000
  H   H476      1.0  0.12384  0.31343  0.61004  1.0000
  H   H477      1.0  0.05224  0.33241  0.87853  1.0000
  C   C608      1.0  0.01574  0.48389  0.77091  1.0000
  C   C609      1.0  0.99545  0.45851  0.87405  1.0000
  P   P20       1.0  0.01437  0.46399  0.80417  1.0000
  C   C610      1.0  0.00130  0.44515  0.78112  1.0000
  C   C611      1.0  0.01056  0.43164  0.75713  1.0000
  C   C612      1.0  0.09199  0.48476  0.84981  1.0000
  H   H478      1.0  0.25878  0.34457  0.80379  1.0000
  H   H479      1.0  0.06845  0.32705  0.81605  1.0000
  H   H480      1.0  0.99484  0.33533  0.98782  1.0000
  C   C613      1.0  0.03765  0.45411  0.81468  1.0000
  C   C614      1.0  0.04123  0.44360  0.84902  1.0000
  C   C615      1.0  0.05842  0.43373  0.85471  1.0000
  C   C616      1.0  0.07219  0.43429  0.82621  1.0000
  C   C617      1.0  0.06885  0.44487  0.79216  1.0000
  C   C618      1.0  0.05169  0.45476  0.78636  1.0000
  H   H481      1.0  0.05932  0.46322  0.58646  1.0000
  C   C619      1.0  0.99540  0.38267  0.65966  1.0000
  H   H482      1.0  0.02534  0.43264  0.75110  1.0000
  C   C620      1.0  0.06533  0.48379  0.89285  1.0000
  H   H483      1.0  0.02732  0.47058  0.66514  1.0000
  C   C621      1.0  0.25773  0.25432  0.71542  1.0000
  H   H484      1.0  0.11450  0.34940  0.93700  1.0000
  H   H485      1.0  0.03056  0.44237  0.87078  1.0000
  H   H486      1.0  0.06077  0.42503  0.88050  1.0000
  H   H487      1.0  0.08522  0.42607  0.82995  1.0000
  H   H488      1.0  0.07924  0.44477  0.76943  1.0000
  H   H489      1.0  0.04911  0.46206  0.75884  1.0000
  H   H490      1.0  0.11740  0.46744  0.58352  1.0000
  C   C622      1.0  0.14292  0.37746  0.97370  1.0000
  H   H491      1.0  0.16574  0.34160  0.92731  1.0000
  C   C623      1.0  0.01174  0.37535  0.54370  1.0000
  C   C624      1.0  0.00073  0.34544  0.89187  1.0000
  C   C625      1.0  0.28043  0.30194  0.82820  1.0000
  C   C626      1.0  0.99181  0.40398  0.53545  1.0000
  C   C627      1.0  0.15254  0.30953  0.52847  1.0000
  H   H492      1.0  0.98809  0.39519  0.99603  1.0000
  C   C628      1.0  0.13297  0.32600  0.95703  1.0000
  C   C629      1.0  0.13987  0.30741  0.94822  1.0000
  C   C630      1.0  0.13340  0.29777  0.91503  1.0000
  C   C631      1.0  0.12036  0.30679  0.88980  1.0000
  C   C632      1.0  0.11356  0.32534  0.89811  1.0000
  C   C633      1.0  0.04801  0.39036  0.94238  1.0000
  C   C634      1.0  0.07569  0.37421  0.87414  1.0000
  H   H493      1.0  0.02586  0.34958  0.99261  1.0000
  H   H494      1.0  0.02453  0.35897  0.86787  1.0000
  C   C635      1.0  0.12798  0.27909  0.55554  1.0000
  C   C636      1.0  0.01822  0.48665  0.55742  1.0000
  C   C637      1.0  0.20229  0.33227  0.72405  1.0000
  H   H495      1.0  0.24240  0.31495  0.68243  1.0000
  H   H496      1.0  0.26049  0.26841  0.62667  1.0000
  H   H497      1.0  0.99598  0.44335  0.86695  1.0000
  C   C638      1.0  0.27772  0.33522  0.70755  1.0000
  H   H498      1.0  0.07646  0.33072  0.93913  1.0000
  C   C639      1.0  0.01925  0.34820  0.96412  1.0000
  H   H499      1.0  0.05812  0.47717  0.91673  1.0000
  C   C640      1.0  0.99677  0.38520  0.52445  1.0000
  H   H500      1.0  0.29474  0.28455  0.99172  1.0000
  C   C641      1.0  0.21808  0.26576  0.52219  1.0000
  H   H501      1.0  0.28707  0.32821  0.91088  1.0000
  H   H502      1.0  0.05371  0.40635  0.54080  1.0000
  S   S71       1.0  0.30180  0.26955  0.53498  1.0000
  C   C642      1.0  0.20690  0.33388  0.97670  1.0000
  H   H503      1.0  0.22182  0.33232  0.97141  1.0000
  C   C643      1.0  0.02959  0.49749  0.77676  1.0000
  H   H504      1.0  0.09251  0.31489  0.99505  1.0000
  S   S72       1.0  0.07417  0.48689  0.00771  1.0000
  H   H505      1.0  0.29063  0.35584  0.67054  1.0000
  S   S73       1.0  0.30214  0.26227  0.64574  1.0000
  P   P21       1.0  0.14308  0.33902  0.99753  1.0000
  H   H506      1.0  0.29458  0.29611  0.88306  1.0000
  C   C644      1.0  0.12003  0.40172  0.99461  1.0000
  C   C645      1.0  0.09993  0.38983  0.53060  1.0000
  C   C646      1.0  0.99310  0.49754  0.89308  1.0000
  C   C647      1.0  0.18958  0.32220  0.52693  1.0000
  S   S74       1.0  0.20208  0.24845  0.86757  1.0000
  H   H507      1.0  0.20378  0.32727  0.52573  1.0000
  C   C648      1.0  0.13449  0.36375  0.99708  1.0000
  H   H508      1.0  0.16023  0.25127  0.74130  1.0000
  H   H509      1.0  0.07587  0.34960  0.53093  1.0000
  H   H510      1.0  0.05392  0.49816  0.53127  1.0000
  H   H511      1.0  0.02119  0.52942  0.46184  1.0000
  H   H512      1.0  0.22340  0.71773  0.35345  1.0000
  C   C649      1.0  0.09643  0.58138  0.35004  1.0000
  H   H513      1.0  0.11361  0.52891  0.34536  1.0000
  C   C650      1.0  0.04575  0.51323  0.16921  1.0000
  S   S75       1.0  0.28402  0.64610  0.13353  1.0000
  H   H514      1.0  0.26446  0.60864  0.08782  1.0000
  H   H515      1.0  0.20857  0.66138  0.51090  1.0000
  H   H516      1.0  0.15150  0.71366  0.45455  1.0000
  H   H517      1.0  0.13015  0.65605  0.32566  1.0000
  S   S76       1.0  0.08743  0.54037  0.04564  1.0000
  C   C651      1.0  0.08279  0.58944  0.27463  1.0000
  Fe  Fe36      1.0  0.06960  0.55380  0.48964  1.0000
  S   S77       1.0  0.98024  0.53903  0.17360  1.0000
  S   S78       1.0  0.05537  0.54328  0.43483  1.0000
  H   H518      1.0  0.22985  0.63220  0.44755  1.0000
  C   C652      1.0  0.28430  0.69440  0.03642  1.0000
  C   C653      1.0  0.23694  0.56877  0.48669  1.0000
  S   S79       1.0  0.04601  0.57494  0.07806  1.0000
  S   S80       1.0  0.10082  0.54893  0.49210  1.0000
  C   C654      1.0  0.21989  0.71343  0.19559  1.0000
  Fe  Fe37      1.0  0.22076  0.64143  0.31068  1.0000
  S   S81       1.0  0.19335  0.63539  0.28117  1.0000
  S   S82       1.0  0.24874  0.62727  0.29690  1.0000
  Fe  Fe38      1.0  0.20304  0.67065  0.36609  1.0000
  S   S83       1.0  0.17395  0.66736  0.34096  1.0000
  S   S84       1.0  0.21401  0.69048  0.41271  1.0000
  Fe  Fe39      1.0  0.18130  0.63572  0.34156  1.0000
  S   S85       1.0  0.16194  0.61133  0.35388  1.0000
  Fe  Fe40      1.0  0.18832  0.66730  0.28272  1.0000
  S   S86       1.0  0.17550  0.68294  0.23057  1.0000
  S   S87       1.0  0.20936  0.63904  0.37113  1.0000
  S   S88       1.0  0.21668  0.67323  0.30795  1.0000
  S   S89       1.0  0.00007  0.59525  0.33159  1.0000
  C   C655      1.0  0.99086  0.56676  0.01566  1.0000
  C   C656      1.0  0.19812  0.70579  0.43775  1.0000
  H   H519      1.0  0.97480  0.50181  0.48029  1.0000
  H   H520      1.0  0.28713  0.71513  0.15447  1.0000
  Fe  Fe41      1.0  0.06110  0.55761  0.03147  1.0000
  H   H521      1.0  0.08222  0.53809  0.37099  1.0000
  C   C657      1.0  0.17869  0.70398  0.43386  1.0000
  H   H522      1.0  0.27688  0.61934  0.35819  1.0000
  H   H523      1.0  0.22812  0.69126  0.49394  1.0000
  C   C658      1.0  0.24265  0.62849  0.46366  1.0000
  H   H524      1.0  0.17306  0.69351  0.41390  1.0000
  C   C659      1.0  0.18971  0.69932  0.20660  1.0000
  C   C660      1.0  0.20909  0.69956  0.21351  1.0000
  H   H525      1.0  0.28417  0.66748  0.25435  1.0000
  C   C661      1.0  0.18135  0.71259  0.18053  1.0000
  H   H526      1.0  0.21580  0.68916  0.23272  1.0000
  H   H527      1.0  0.16638  0.71264  0.17549  1.0000
  C   C662      1.0  0.02682  0.56497  0.10172  1.0000
  C   C663      1.0  0.01614  0.57655  0.12709  1.0000
  C   C664      1.0  0.00172  0.56878  0.14891  1.0000
  C   C665      1.0  0.99768  0.54939  0.14514  1.0000
  C   C666      1.0  0.00775  0.53798  0.11829  1.0000
  C   C667      1.0  0.02236  0.54571  0.09670  1.0000
  H   H528      1.0  0.01930  0.59153  0.13050  1.0000
  H   H529      1.0  0.99384  0.57781  0.16879  1.0000
  H   H530      1.0  0.00458  0.52302  0.11502  1.0000
  H   H531      1.0  0.03040  0.53672  0.07684  1.0000
  C   C668      1.0  0.03927  0.55804  0.40887  1.0000
  C   C669      1.0  0.02760  0.54953  0.38100  1.0000
  C   C670      1.0  0.01550  0.56085  0.35750  1.0000
  C   C671      1.0  0.01502  0.58081  0.36151  1.0000
  C   C672      1.0  0.02645  0.58934  0.38998  1.0000
  C   C673      1.0  0.03844  0.57795  0.41399  1.0000
  H   H532      1.0  0.02799  0.53410  0.37737  1.0000
  H   H533      1.0  0.00661  0.55407  0.33629  1.0000
  H   H534      1.0  0.02605  0.60477  0.39342  1.0000
  H   H535      1.0  0.04741  0.58460  0.43555  1.0000
  C   C674      1.0  0.13232  0.60394  0.47061  1.0000
  C   C675      1.0  0.13210  0.58950  0.44220  1.0000
  C   C676      1.0  0.14155  0.59186  0.40689  1.0000
  C   C677      1.0  0.15110  0.60873  0.39947  1.0000
  C   C678      1.0  0.15152  0.62312  0.42802  1.0000
  C   C679      1.0  0.14214  0.62072  0.46349  1.0000
  H   H536      1.0  0.12480  0.57645  0.44757  1.0000
  H   H537      1.0  0.14152  0.58050  0.38532  1.0000
  H   H538      1.0  0.15889  0.63615  0.42259  1.0000
  H   H539      1.0  0.14247  0.63191  0.48542  1.0000
  H   H540      1.0  0.16871  0.70034  0.02919  1.0000
  H   H541      1.0  0.29209  0.69774  0.22220  1.0000
  C   C680      1.0  0.16650  0.71533  0.45702  1.0000
  H   H542      1.0  0.22940  0.71033  0.09850  1.0000
  C   C681      1.0  0.27324  0.73490  0.37074  1.0000
  C   C682      1.0  0.24236  0.68978  0.50481  1.0000
  C   C683      1.0  0.20523  0.71955  0.46349  1.0000
  H   H543      1.0  0.15396  0.53697  0.26604  1.0000
  C   C684      1.0  0.19219  0.72624  0.16197  1.0000
  C   C685      1.0  0.20714  0.58753  0.35602  1.0000
  H   H544      1.0  0.19577  0.58954  0.41317  1.0000
  C   C686      1.0  0.27474  0.64179  0.17990  1.0000
  C   C687      1.0  0.28531  0.63183  0.20846  1.0000
  C   C688      1.0  0.27713  0.62738  0.24425  1.0000
  C   C689      1.0  0.25856  0.63325  0.25197  1.0000
  C   C690      1.0  0.24815  0.64364  0.22388  1.0000
  C   C691      1.0  0.25618  0.64770  0.18775  1.0000
  C   C692      1.0  0.03114  0.50267  0.30740  1.0000
  H   H545      1.0  0.28512  0.61931  0.26593  1.0000
  H   H546      1.0  0.23385  0.64834  0.22973  1.0000
  H   H547      1.0  0.24797  0.65554  0.16596  1.0000
  H   H548      1.0  0.28701  0.69794  0.47636  1.0000
  H   H549      1.0  0.13992  0.67533  0.26918  1.0000
  H   H550      1.0  0.28514  0.62648  0.04528  1.0000
  H   H551      1.0  0.23482  0.71371  0.20166  1.0000
  H   H552      1.0  0.14304  0.66154  0.02769  1.0000
  C   C693      1.0  0.13757  0.71731  0.09605  1.0000
  H   H553      1.0  0.08997  0.62004  0.20102  1.0000
  C   C694      1.0  0.27606  0.61944  0.50418  1.0000
  C   C695      1.0  0.08698  0.51960  0.26436  1.0000
  C   C696      1.0  0.15715  0.59217  0.25618  1.0000
  C   C697      1.0  0.22571  0.69561  0.09312  1.0000
  C   C698      1.0  0.29661  0.57474  0.28885  1.0000
  C   C699      1.0  0.25730  0.69860  0.30818  1.0000
  H   H554      1.0  0.07595  0.61553  0.13513  1.0000
  H   H555      1.0  0.27868  0.55116  0.30006  1.0000
  C   C700      1.0  0.28233  0.69802  0.24616  1.0000
  H   H556      1.0  0.12504  0.55691  0.25566  1.0000
  C   C701      1.0  0.28621  0.56299  0.31274  1.0000
  H   H557      1.0  0.10164  0.57845  0.37940  1.0000
  H   H558      1.0  0.08605  0.58789  0.09407  1.0000
  H   H559      1.0  0.24294  0.55564  0.43046  1.0000
  H   H560      1.0  0.14748  0.72817  0.04142  1.0000
  C   C702      1.0  0.24008  0.61237  0.05017  1.0000
  C   C703      1.0  0.23971  0.68116  0.09337  1.0000
  C   C704      1.0  0.23492  0.66211  0.08754  1.0000
  C   C705      1.0  0.21614  0.65748  0.08146  1.0000
  C   C706      1.0  0.20199  0.67195  0.08046  1.0000
  H   H561      1.0  0.27124  0.72234  0.02793  1.0000
  P   P22       1.0  0.17780  0.66555  0.07268  1.0000
  H   H562      1.0  0.97412  0.66253  0.40060  1.0000
  C   C707      1.0  0.17325  0.64616  0.10571  1.0000
  C   C708      1.0  0.16370  0.62988  0.09295  1.0000
  C   C709      1.0  0.16030  0.61503  0.11898  1.0000
  C   C710      1.0  0.16642  0.61628  0.15783  1.0000
  C   C711      1.0  0.17587  0.63245  0.17075  1.0000
  C   C712      1.0  0.17938  0.64728  0.14480  1.0000
  H   H563      1.0  0.28290  0.64899  0.49525  1.0000
  P   P23       1.0  0.24975  0.73816  0.30497  1.0000
  C   C713      1.0  0.28269  0.63183  0.37208  1.0000
  C   C714      1.0  0.24082  0.58929  0.35123  1.0000
  H   H564      1.0  0.11049  0.56481  0.11843  1.0000
  C   C715      1.0  0.16213  0.68578  0.08263  1.0000
  C   C716      1.0  0.15121  0.68664  0.11647  1.0000
  C   C717      1.0  0.13889  0.70230  0.12295  1.0000
  H   H565      1.0  0.09895  0.50028  0.07012  1.0000
  C   C718      1.0  0.25703  0.69517  0.48088  1.0000
  H   H566      1.0  0.30242  0.67791  0.41887  1.0000
  H   H567      1.0  0.00903  0.52059  0.22579  1.0000
  H   H568      1.0  0.25425  0.68465  0.09867  1.0000
  H   H569      1.0  0.24583  0.65096  0.08855  1.0000
  H   H570      1.0  0.21260  0.64261  0.07781  1.0000
  H   H571      1.0  0.18494  0.55220  0.27054  1.0000
  H   H572      1.0  0.15887  0.62847  0.06300  1.0000
  H   H573      1.0  0.15292  0.60252  0.10889  1.0000
  H   H574      1.0  0.16380  0.60475  0.17789  1.0000
  H   H575      1.0  0.18042  0.63363  0.20092  1.0000
  H   H576      1.0  0.18669  0.65975  0.15541  1.0000
  C   C719      1.0  0.28886  0.72754  0.13611  1.0000
  H   H577      1.0  0.30341  0.70623  0.31891  1.0000
  H   H578      1.0  0.97651  0.53724  0.40300  1.0000
  C   C720      1.0  0.25896  0.61441  0.06043  1.0000
  C   C721      1.0  0.20859  0.58905  0.39671  1.0000
  H   H579      1.0  0.15224  0.67544  0.13815  1.0000
  C   C722      1.0  0.27350  0.73535  0.11528  1.0000
  C   C723      1.0  0.27758  0.73660  0.41057  1.0000
  H   H580      1.0  0.29108  0.73139  0.42185  1.0000
  H   H581      1.0  0.29203  0.69857  0.06246  1.0000
  C   C724      1.0  0.08359  0.53280  0.34127  1.0000
  C   C725      1.0  0.25577  0.74159  0.35600  1.0000
  C   C726      1.0  0.24593  0.60982  0.47777  1.0000
  H   H582      1.0  0.22019  0.72160  0.46563  1.0000
  C   C727      1.0  0.27070  0.64759  0.37987  1.0000
  C   C728      1.0  0.99585  0.50460  0.27071  1.0000
  H   H583      1.0  0.29958  0.62711  0.20250  1.0000
  C   C729      1.0  0.00476  0.51920  0.50967  1.0000
  C   C730      1.0  0.20692  0.69109  0.08660  1.0000
  H   H584      1.0  0.17587  0.66332  0.48592  1.0000
  H   H585      1.0  0.12047  0.62296  0.31620  1.0000
  C   C731      1.0  0.18009  0.67230  0.51024  1.0000
  C   C732      1.0  0.00377  0.55195  0.48576  1.0000
  P   P24       1.0  0.04842  0.52307  0.24822  1.0000
  C   C733      1.0  0.06913  0.52440  0.27901  1.0000
  C   C734      1.0  0.04331  0.54750  0.23359  1.0000
  C   C735      1.0  0.05435  0.55609  0.20533  1.0000
  C   C736      1.0  0.05053  0.57505  0.19403  1.0000
  C   C737      1.0  0.03618  0.58580  0.21193  1.0000
  C   C738      1.0  0.02541  0.57747  0.24067  1.0000
  C   C739      1.0  0.02892  0.55838  0.25145  1.0000
  C   C740      1.0  0.06763  0.53151  0.31727  1.0000
  H   H586      1.0  0.25614  0.59221  0.40513  1.0000
  C   C741      1.0  0.12411  0.63115  0.29085  1.0000
  C   C742      1.0  0.18604  0.72778  0.29387  1.0000
  H   H587      1.0  0.24776  0.74593  0.22078  1.0000
  C   C743      1.0  0.27558  0.69365  0.49461  1.0000
  H   H588      1.0  0.18688  0.58758  0.26488  1.0000
  H   H589      1.0  0.25587  0.64696  0.37246  1.0000
  H   H590      1.0  0.15841  0.60757  0.25471  1.0000
  C   C744      1.0  0.22628  0.59058  0.41500  1.0000
  C   C745      1.0  0.19455  0.73962  0.26705  1.0000
  H   H591      1.0  0.03858  0.52693  0.16464  1.0000
  H   H592      1.0  0.06561  0.54802  0.19130  1.0000
  H   H593      1.0  0.05837  0.58123  0.17062  1.0000
  H   H594      1.0  0.03308  0.60044  0.20288  1.0000
  H   H595      1.0  0.01421  0.58577  0.25438  1.0000
  H   H596      1.0  0.02041  0.55220  0.27368  1.0000
  H   H597      1.0  0.05413  0.53615  0.32852  1.0000
  C   C746      1.0  0.26463  0.74532  0.43578  1.0000
  C   C747      1.0  0.21562  0.72385  0.32894  1.0000
  H   H598      1.0  0.98838  0.64146  0.34951  1.0000
  H   H599      1.0  0.28350  0.72842  0.35147  1.0000
  H   H600      1.0  0.12355  0.58776  0.32806  1.0000
  C   C748      1.0  0.24238  0.59074  0.39185  1.0000
  H   H601      1.0  0.22204  0.58741  0.30169  1.0000
  P   P25       1.0  0.22896  0.59172  0.46756  1.0000
  H   H602      1.0  0.14007  0.66112  0.20287  1.0000
  H   H603      1.0  0.19640  0.70260  0.08687  1.0000
  C   C749      1.0  0.12961  0.63397  0.22144  1.0000
  H   H604      1.0  0.29504  0.66537  0.03811  1.0000
  C   C750      1.0  0.10126  0.52766  0.32679  1.0000
  C   C751      1.0  0.13525  0.65281  0.22722  1.0000
  C   C752      1.0  0.27260  0.63806  0.49039  1.0000
  C   C753      1.0  0.28554  0.56652  0.35293  1.0000
  H   H605      1.0  0.07715  0.59257  0.24584  1.0000
  C   C754      1.0  0.07048  0.58410  0.30384  1.0000
  C   C755      1.0  0.07730  0.58015  0.34149  1.0000
  H   H606      1.0  0.25318  0.59004  0.33333  1.0000
  C   C756      1.0  0.24299  0.55382  0.46182  1.0000
  C   C757      1.0  0.10297  0.52113  0.28829  1.0000
  C   C758      1.0  0.26110  0.71583  0.28919  1.0000
  C   C759      1.0  0.19259  0.58408  0.48953  1.0000
  C   C760      1.0  0.12391  0.62300  0.25324  1.0000
  C   C761      1.0  0.25582  0.64257  0.47039  1.0000
  H   H607      1.0  0.25303  0.65694  0.45958  1.0000
  C   C762      1.0  0.27797  0.68094  0.26444  1.0000
  C   C763      1.0  0.20697  0.59740  0.49117  1.0000
  C   C764      1.0  0.27781  0.66427  0.39634  1.0000
  C   C765      1.0  0.24902  0.53613  0.47740  1.0000
  C   C766      1.0  0.17323  0.65807  0.02284  1.0000
  C   C767      1.0  0.13525  0.66083  0.26467  1.0000
  C   C768      1.0  0.16049  0.70079  0.05553  1.0000
  H   H608      1.0  0.08865  0.51483  0.23442  1.0000
  C   C769      1.0  0.17373  0.72824  0.48457  1.0000
  H   H609      1.0  0.06777  0.57606  0.36406  1.0000
  C   C770      1.0  0.27410  0.71540  0.25864  1.0000
  C   C771      1.0  0.04818  0.50087  0.13737  1.0000
  C   C772      1.0  0.26281  0.60534  0.49792  1.0000
  H   H610      1.0  0.25386  0.70073  0.45189  1.0000
  C   C773      1.0  0.21143  0.72691  0.17010  1.0000
  H   H611      1.0  0.25984  0.72908  0.11755  1.0000
  H   H612      1.0  0.13067  0.70296  0.14931  1.0000
  H   H613      1.0  0.05558  0.58317  0.29751  1.0000
  H   H614      1.0  0.24789  0.69847  0.33261  1.0000
  C   C774      1.0  0.10877  0.58661  0.32090  1.0000
  H   H615      1.0  0.17141  0.72431  0.29011  1.0000
  H   H616      1.0  0.12825  0.72958  0.10137  1.0000
  H   H617      1.0  0.26848  0.67655  0.40172  1.0000
  C   C775      1.0  0.22322  0.58780  0.33328  1.0000
  H   H618      1.0  0.19346  0.58664  0.34207  1.0000
  C   C776      1.0  0.01107  0.51334  0.25357  1.0000
  C   C777      1.0  0.02876  0.51274  0.27216  1.0000
  C   C778      1.0  0.19312  0.73048  0.48726  1.0000
  H   H619      1.0  0.29711  0.57204  0.25765  1.0000
  C   C779      1.0  0.19652  0.72016  0.32519  1.0000
  H   H620      1.0  0.12479  0.56897  0.18372  1.0000
  H   H621      1.0  0.99164  0.55569  0.03773  1.0000
  C   C780      1.0  0.26556  0.68124  0.29557  1.0000
  H   H622      1.0  0.13008  0.62791  0.19230  1.0000
  H   H623      1.0  0.26203  0.66792  0.30936  1.0000
  C   C781      1.0  0.12970  0.65000  0.29645  1.0000
  H   H624      1.0  0.18995  0.71110  0.34633  1.0000
  C   C782      1.0  0.10614  0.57687  0.13667  1.0000
  C   C783      1.0  0.09241  0.58994  0.12277  1.0000
  C   C784      1.0  0.08674  0.60553  0.14598  1.0000
  C   C785      1.0  0.09468  0.60798  0.18325  1.0000
  C   C786      1.0  0.10848  0.59489  0.19754  1.0000
  C   C787      1.0  0.11417  0.57929  0.17388  1.0000
  P   P26       1.0  0.11829  0.59811  0.24621  1.0000
  C   C788      1.0  0.10206  0.59082  0.28301  1.0000
  C   C789      1.0  0.13957  0.58366  0.25311  1.0000
  C   C790      1.0  0.13852  0.56369  0.25713  1.0000
  C   C791      1.0  0.15485  0.55238  0.26314  1.0000
  C   C792      1.0  0.17230  0.56094  0.26564  1.0000
  C   C793      1.0  0.17343  0.58083  0.26223  1.0000
  C   C794      1.0  0.30195  0.63263  0.38099  1.0000
  C   C795      1.0  0.27070  0.62453  0.03610  1.0000
  C   C796      1.0  0.23280  0.62094  0.01611  1.0000
  H   H625      1.0  0.29432  0.58461  0.40030  1.0000
  H   H626      1.0  0.04352  0.50532  0.10847  1.0000
  C   C797      1.0  0.22455  0.73511  0.30124  1.0000
  H   H627      1.0  0.27814  0.72837  0.24442  1.0000
  H   H628      1.0  0.23098  0.60462  0.06920  1.0000
  H   H629      1.0  0.19440  0.57078  0.47335  1.0000
  H   H630      1.0  0.25361  0.52460  0.45811  1.0000
  C   C798      1.0  0.14838  0.71654  0.06235  1.0000
  H   H631      1.0  0.98218  0.50534  0.25646  1.0000
  H   H632      1.0  0.18555  0.73656  0.14231  1.0000
  C   C799      1.0  0.05245  0.50781  0.20644  1.0000
  H   H633      1.0  0.11667  0.51726  0.27690  1.0000
  H   H634      1.0  0.27750  0.55738  0.37144  1.0000
  S   S90       1.0  0.97700  0.54834  0.28503  1.0000
  H   H635      1.0  0.26793  0.74654  0.46667  1.0000
  Fe  Fe42      1.0  0.97797  0.57997  0.29603  1.0000
  H   H636      1.0  0.00875  0.56265  0.46586  1.0000
  C   C800      1.0  0.21365  0.74340  0.27081  1.0000
  C   C801      1.0  0.01088  0.53307  0.48364  1.0000
  H   H637      1.0  0.97911  0.57008  0.37755  1.0000
  C   C802      1.0  0.29689  0.66506  0.40581  1.0000
  C   C803      1.0  0.30640  0.59000  0.30504  1.0000
  H   H638      1.0  0.04480  0.50112  0.32124  1.0000
  S   S91       1.0  0.22242  0.74131  0.04105  1.0000
  C   C804      1.0  0.30554  0.59385  0.34531  1.0000
  C   C805      1.0  0.28613  0.67561  0.02224  1.0000
  H   H639      1.0  0.19884  0.74081  0.50732  1.0000
  H   H640      1.0  0.18649  0.74537  0.24246  1.0000
  C   C806      1.0  0.29507  0.58195  0.36914  1.0000
  H   H641      1.0  0.02088  0.56908  0.01411  1.0000
  S   S92       1.0  0.22501  0.74506  0.15060  1.0000
  C   C807      1.0  0.27267  0.70780  0.01689  1.0000
  H   H642      1.0  0.16414  0.57819  0.50515  1.0000
  C   C808      1.0  0.17558  0.58802  0.50800  1.0000
  H   H643      1.0  0.08278  0.49968  0.49330  1.0000
  H   H644      1.0  0.26592  0.59101  0.50861  1.0000
  C   C809      1.0  0.30644  0.73572  0.13321  1.0000
  H   H645      1.0  0.07353  0.60999  0.59333  1.0000
  H   H646      1.0  0.23838  0.63870  0.96686  1.0000
  H   H647      1.0  0.14291  0.56789  0.81660  1.0000
  H   H648      1.0  0.28118  0.59158  0.80346  1.0000
  C   C810      1.0  0.19127  0.69647  0.57123  1.0000
  H   H649      1.0  0.98532  0.57179  0.51584  1.0000
  C   C811      1.0  0.19864  0.67144  0.52408  1.0000
  C   C812      1.0  0.20291  0.70497  0.98149  1.0000
  H   H650      1.0  0.27790  0.67029  0.69684  1.0000
  H   H651      1.0  0.03188  0.70023  0.66749  1.0000
  S   S93       1.0  0.09887  0.56327  0.58309  1.0000
  H   H652      1.0  0.25698  0.66572  0.75298  1.0000
  Fe  Fe43      1.0  0.06391  0.54975  0.94412  1.0000
  S   S94       1.0  0.07384  0.57375  0.98222  1.0000
  S   S95       1.0  0.05353  0.55434  0.88221  1.0000
  C   C813      1.0  0.07992  0.52723  0.73051  1.0000
  H   H653      1.0  0.13628  0.64942  0.96120  1.0000
  Fe  Fe44      1.0  0.06770  0.56718  0.57435  1.0000
  S   S96       1.0  0.05127  0.57914  0.62582  1.0000
  S   S97       1.0  0.09040  0.53186  0.95122  1.0000
  C   C814      1.0  0.12347  0.54501  0.80905  1.0000
  Fe  Fe45      1.0  0.21838  0.61905  0.79837  1.0000
  S   S98       1.0  0.19012  0.62137  0.76934  1.0000
  S   S99       1.0  0.24206  0.59992  0.77613  1.0000
  Fe  Fe46      1.0  0.20829  0.64974  0.85698  1.0000
  S   S100      1.0  0.17910  0.65505  0.83247  1.0000
  S   S101      1.0  0.22231  0.66412  0.90766  1.0000
  Fe  Fe47      1.0  0.17837  0.62295  0.82964  1.0000
  S   S102      1.0  0.15074  0.60866  0.83794  1.0000
  Fe  Fe48      1.0  0.19318  0.65303  0.77442  1.0000
  S   S103      1.0  0.18472  0.66794  0.71872  1.0000
  S   S104      1.0  0.20652  0.61763  0.85868  1.0000
  S   S105      1.0  0.22237  0.65078  0.79914  1.0000
  C   C815      1.0  0.03021  0.51356  0.75274  1.0000
  Fe  Fe49      1.0  0.07610  0.51906  0.00249  1.0000
  C   C816      1.0  0.20876  0.68292  0.92788  1.0000
  C   C817      1.0  0.21341  0.68979  0.96508  1.0000
  H   H654      1.0  0.01999  0.59472  0.96448  1.0000
  H   H655      1.0  0.16283  0.70757  0.56966  1.0000
  C   C818      1.0  0.25593  0.72658  0.84806  1.0000
  C   C819      1.0  0.19327  0.69095  0.90758  1.0000
  H   H656      1.0  0.22496  0.68323  0.98153  1.0000
  C   C820      1.0  0.30283  0.63693  0.97379  1.0000
  H   H657      1.0  0.08535  0.51429  0.71661  1.0000
  H   H658      1.0  0.18974  0.68585  0.87878  1.0000
  C   C821      1.0  0.18880  0.69245  0.71424  1.0000
  C   C822      1.0  0.19694  0.70291  0.74469  1.0000
  C   C823      1.0  0.18635  0.72125  0.67467  1.0000
  C   C824      1.0  0.18355  0.70162  0.67930  1.0000
  H   H659      1.0  0.20098  0.69586  0.77176  1.0000
  H   H660      1.0  0.17723  0.69355  0.65576  1.0000
  C   C825      1.0  0.02987  0.56830  0.63608  1.0000
  C   C826      1.0  0.01815  0.57575  0.66554  1.0000
  C   C827      1.0  0.00105  0.56706  0.67373  1.0000
  C   C828      1.0  0.99572  0.55092  0.65235  1.0000
  C   C829      1.0  0.00771  0.54329  0.62400  1.0000
  C   C830      1.0  0.02458  0.55201  0.61553  1.0000
  H   H661      1.0  0.02220  0.58834  0.68178  1.0000
  H   H662      1.0  0.99191  0.57296  0.69600  1.0000
  H   H663      1.0  0.00388  0.53046  0.60871  1.0000
  H   H664      1.0  0.03343  0.54618  0.59295  1.0000
  C   C831      1.0  0.02910  0.55407  0.87526  1.0000
  C   C832      1.0  0.02143  0.55441  0.83729  1.0000
  C   C833      1.0  0.00188  0.55577  0.83147  1.0000
  C   C834      1.0  0.99005  0.55703  0.86368  1.0000
  C   C835      1.0  0.99771  0.55583  0.90149  1.0000
  C   C836      1.0  0.01720  0.55425  0.90727  1.0000
  H   H665      1.0  0.03059  0.55406  0.81241  1.0000
  H   H666      1.0  0.99602  0.55658  0.80216  1.0000
  H   H667      1.0  0.98857  0.55638  0.92636  1.0000
  H   H668      1.0  0.02303  0.55381  0.93651  1.0000
  C   C837      1.0  0.13419  0.57999  0.95193  1.0000
  C   C838      1.0  0.15231  0.58707  0.94823  1.0000
  C   C839      1.0  0.15746  0.59649  0.91388  1.0000
  C   C840      1.0  0.14443  0.59895  0.88320  1.0000
  C   C841      1.0  0.12616  0.59243  0.88746  1.0000
  C   C842      1.0  0.12107  0.58290  0.92160  1.0000
  H   H669      1.0  0.16250  0.58488  0.97166  1.0000
  H   H670      1.0  0.17161  0.60139  0.91081  1.0000
  H   H671      1.0  0.11603  0.59415  0.86379  1.0000
  H   H672      1.0  0.10711  0.57742  0.92404  1.0000
  C   C843      1.0  0.13488  0.53383  0.88432  1.0000
  C   C844      1.0  0.06844  0.53993  0.70857  1.0000
  C   C845      1.0  0.20434  0.68350  0.55474  1.0000
  C   C846      1.0  0.27175  0.58236  0.85923  1.0000
  H   H673      1.0  0.08081  0.51405  0.61983  1.0000
  Fe  Fe50      1.0  0.10104  0.57702  0.52407  1.0000
  C   C847      1.0  0.18262  0.70602  0.92429  1.0000
  H   H674      1.0  0.17071  0.71230  0.90857  1.0000
  C   C848      1.0  0.24609  0.68311  0.54276  1.0000
  H   H675      1.0  0.25720  0.58180  0.84964  1.0000
  H   H676      1.0  0.29160  0.66738  0.90428  1.0000
  C   C849      1.0  0.26761  0.63131  0.67418  1.0000
  C   C850      1.0  0.27776  0.61606  0.69167  1.0000
  C   C851      1.0  0.26983  0.60603  0.72267  1.0000
  C   C852      1.0  0.25199  0.61152  0.73641  1.0000
  C   C853      1.0  0.24201  0.62669  0.71864  1.0000
  C   C854      1.0  0.24987  0.63659  0.68794  1.0000
  C   C855      1.0  0.30418  0.55893  0.72122  1.0000
  H   H677      1.0  0.27744  0.59402  0.73568  1.0000
  H   H678      1.0  0.22800  0.63065  0.72795  1.0000
  H   H679      1.0  0.24208  0.64833  0.67453  1.0000
  H   H680      1.0  0.03036  0.51325  0.57595  1.0000
  H   H681      1.0  0.12779  0.52570  0.64292  1.0000
  C   C856      1.0  0.16657  0.72286  0.81921  1.0000
  C   C857      1.0  0.27974  0.65495  0.85256  1.0000
  H   H682      1.0  0.18530  0.63118  0.54883  1.0000
  H   H683      1.0  0.26606  0.57400  0.91823  1.0000
  H   H684      1.0  0.09386  0.69051  0.59828  1.0000
  C   C858      1.0  0.00751  0.57448  0.00272  1.0000
  C   C859      1.0  0.28237  0.65667  0.89294  1.0000
  C   C860      1.0  0.26238  0.62981  0.90302  1.0000
  P   P27       1.0  0.27886  0.64588  0.97022  1.0000
  H   H685      1.0  0.23455  0.72050  0.57355  1.0000
  C   C861      1.0  0.26819  0.64085  0.83737  1.0000
  C   C862      1.0  0.16710  0.68512  0.52712  1.0000
  H   H686      1.0  0.13881  0.53000  0.91409  1.0000
  C   C863      1.0  0.29988  0.73661  0.62595  1.0000
  C   C864      1.0  0.17302  0.60495  0.52932  1.0000
  C   C865      1.0  0.25527  0.73486  0.88557  1.0000
  H   H687      1.0  0.29545  0.60721  0.97795  1.0000
  H   H688      1.0  0.99197  0.51271  0.90014  1.0000
  H   H689      1.0  0.25604  0.61947  0.92167  1.0000
  C   C866      1.0  0.00347  0.50240  0.71572  1.0000
  C   C867      1.0  0.29396  0.70751  0.89162  1.0000
  C   C868      1.0  0.98389  0.54321  0.53907  1.0000
  S   S106      1.0  0.15848  0.74096  0.51623  1.0000
  H   H690      1.0  0.17017  0.70946  0.83376  1.0000
  H   H691      1.0  0.15413  0.70911  0.76910  1.0000
  H   H692      1.0  0.20238  0.65331  0.00725  1.0000
  C   C869      1.0  0.13601  0.71538  0.64759  1.0000
  C   C870      1.0  0.99090  0.52430  0.53682  1.0000
  C   C871      1.0  0.27782  0.70679  0.78315  1.0000
  H   H693      1.0  0.27992  0.70650  0.90268  1.0000
  C   C872      1.0  0.06757  0.50960  0.84627  1.0000
  H   H694      1.0  0.28902  0.61595  0.51983  1.0000
  S   S107      1.0  0.97411  0.53991  0.65864  1.0000
  C   C873      1.0  0.00698  0.58907  0.97489  1.0000
  C   C874      1.0  0.23891  0.73003  0.63249  1.0000
  C   C875      1.0  0.16533  0.64429  0.94728  1.0000
  C   C876      1.0  0.27344  0.64438  0.91859  1.0000
  H   H695      1.0  0.29788  0.72545  0.64723  1.0000
  C   C877      1.0  0.12130  0.52350  0.86414  1.0000
  H   H696      1.0  0.04494  0.50709  0.88671  1.0000
  C   C878      1.0  0.29018  0.70875  0.75186  1.0000
  C   C879      1.0  0.30435  0.58814  0.84463  1.0000
  H   H697      1.0  0.30066  0.56069  0.78318  1.0000
  C   C880      1.0  0.15068  0.65030  0.97150  1.0000
  C   C881      1.0  0.23896  0.72242  0.82878  1.0000
  H   H698      1.0  0.21805  0.61977  0.00860  1.0000
  C   C882      1.0  0.26628  0.69082  0.78395  1.0000
  C   C883      1.0  0.22152  0.73203  0.88617  1.0000
  C   C884      1.0  0.09214  0.63374  0.59397  1.0000
  H   H699      1.0  0.25738  0.68830  0.80870  1.0000
  H   H700      1.0  0.06159  0.52270  0.83415  1.0000
  H   H701      1.0  0.28667  0.66455  0.83312  1.0000
  C   C885      1.0  0.18779  0.71340  0.96080  1.0000
  S   S108      1.0  0.04874  0.53525  0.99222  1.0000
  C   C886      1.0  0.22189  0.72475  0.84813  1.0000
  C   C887      1.0  0.27803  0.68030  0.72110  1.0000
  C   C888      1.0  0.15743  0.72266  0.78282  1.0000
  S   S109      1.0  0.17572  0.73359  0.97959  1.0000
  C   C889      1.0  0.13717  0.55519  0.82927  1.0000
  H   H702      1.0  0.29141  0.61174  0.68074  1.0000
  S   S110      1.0  0.12844  0.56692  0.99391  1.0000
  Fe  Fe51      1.0  0.09572  0.53555  0.55036  1.0000
  C   C890      1.0  0.06497  0.56065  0.76507  1.0000
  C   C891      1.0  0.06085  0.55653  0.72596  1.0000
  C   C892      1.0  0.08417  0.53133  0.76988  1.0000
  C   C893      1.0  0.07675  0.54823  0.78682  1.0000
  S   S111      1.0  0.06446  0.53841  0.54579  1.0000
  C   C894      1.0  0.01720  0.51600  0.72213  1.0000
  C   C895      1.0  0.19427  0.73181  0.70512  1.0000
  C   C896      1.0  0.19963  0.72265  0.74011  1.0000
  H   H703      1.0  0.06519  0.53684  0.67816  1.0000
  H   H704      1.0  0.24125  0.74467  0.62377  1.0000
  H   H705      1.0  0.00745  0.50236  0.83995  1.0000
  C   C897      1.0  0.14303  0.54944  0.86665  1.0000
  C   C898      1.0  0.18389  0.64523  0.96062  1.0000
  C   C899      1.0  0.26622  0.67779  0.75274  1.0000
  H   H706      1.0  0.05885  0.57334  0.77885  1.0000
  H   H707      1.0  0.05172  0.56617  0.70917  1.0000
  H   H708      1.0  0.07979  0.55166  0.81717  1.0000
  H   H709      1.0  0.19528  0.70598  0.59473  1.0000
  P   P28       1.0  0.09870  0.51504  0.79906  1.0000
  H   H710      1.0  0.98580  0.51377  0.55694  1.0000
  H   H711      1.0  0.15341  0.55752  0.88258  1.0000
  C   C900      1.0  0.17271  0.69718  0.55753  1.0000
  H   H712      1.0  0.25030  0.61765  0.85086  1.0000
  C   C901      1.0  0.24443  0.63141  0.99215  1.0000
  C   C902      1.0  0.25941  0.62843  0.86265  1.0000
  H   H713      1.0  0.17901  0.74021  0.86403  1.0000
  H   H714      1.0  0.99313  0.50458  0.69248  1.0000
  H   H715      1.0  0.24281  0.54573  0.57397  1.0000
  C   C903      1.0  0.11557  0.71080  0.59154  1.0000
  C   C904      1.0  0.13052  0.72010  0.60940  1.0000
  H   H716      1.0  0.15970  0.60798  0.54294  1.0000
  H   H717      1.0  0.20894  0.72094  0.83360  1.0000
  C   C905      1.0  0.05792  0.50062  0.87601  1.0000
  H   H718      1.0  0.14692  0.73973  0.73449  1.0000
  H   H719      1.0  0.29988  0.72042  0.75124  1.0000
  C   C906      1.0  0.23931  0.72503  0.67195  1.0000
  C   C907      1.0  0.15332  0.73989  0.76340  1.0000
  H   H720      1.0  0.01755  0.52861  0.70387  1.0000
  H   H721      1.0  0.06649  0.72727  0.75414  1.0000
  H   H722      1.0  0.26601  0.63947  0.80608  1.0000
  C   C908      1.0  0.23689  0.56572  0.52722  1.0000
  H   H723      1.0  0.03546  0.50326  0.64427  1.0000
  C   C909      1.0  0.26366  0.63256  0.00108  1.0000
  C   C910      1.0  0.26280  0.70244  0.98322  1.0000
  C   C911      1.0  0.15380  0.55346  0.58447  1.0000
  C   C912      1.0  0.14447  0.53745  0.59754  1.0000
  C   C913      1.0  0.13523  0.53811  0.63325  1.0000
  C   C914      1.0  0.13537  0.55482  0.65603  1.0000
  C   C915      1.0  0.14446  0.57109  0.64275  1.0000
  C   C916      1.0  0.15400  0.57016  0.60717  1.0000
  P   P29       1.0  0.14670  0.59172  0.67416  1.0000
  C   C917      1.0  0.12590  0.59554  0.70286  1.0000
  C   C918      1.0  0.16746  0.58591  0.70307  1.0000
  C   C919      1.0  0.16605  0.57600  0.73847  1.0000
  C   C920      1.0  0.18221  0.57061  0.75988  1.0000
  C   C921      1.0  0.19992  0.57461  0.74556  1.0000
  C   C922      1.0  0.20149  0.58390  0.70970  1.0000
  C   C923      1.0  0.18532  0.58937  0.68831  1.0000
  C   C924      1.0  0.12713  0.60301  0.74092  1.0000
  C   C925      1.0  0.11098  0.60551  0.76329  1.0000
  C   C926      1.0  0.09343  0.60119  0.74738  1.0000
  C   C927      1.0  0.09203  0.59446  0.70896  1.0000
  C   C928      1.0  0.10817  0.59175  0.68667  1.0000
  C   C929      1.0  0.14880  0.61340  0.64614  1.0000
  C   C930      1.0  0.13859  0.61583  0.61106  1.0000
  C   C931      1.0  0.14030  0.63251  0.58899  1.0000
  C   C932      1.0  0.15177  0.64708  0.60224  1.0000
  C   C933      1.0  0.16148  0.64503  0.63769  1.0000
  C   C934      1.0  0.15990  0.62835  0.65988  1.0000
  H   H724      1.0  0.16088  0.55286  0.55672  1.0000
  H   H725      1.0  0.12840  0.55497  0.68394  1.0000
  H   H726      1.0  0.16170  0.58224  0.59708  1.0000
  H   H727      1.0  0.15249  0.57238  0.74954  1.0000
  H   H728      1.0  0.18099  0.56351  0.78778  1.0000
  H   H729      1.0  0.21245  0.57077  0.76249  1.0000
  H   H730      1.0  0.21527  0.58716  0.69905  1.0000
  H   H731      1.0  0.18673  0.59622  0.66027  1.0000
  H   H732      1.0  0.14053  0.60686  0.75351  1.0000
  H   H733      1.0  0.11214  0.61080  0.79305  1.0000
  H   H734      1.0  0.08094  0.60313  0.76479  1.0000
  H   H735      1.0  0.07843  0.59128  0.69629  1.0000
  H   H736      1.0  0.10676  0.58669  0.65684  1.0000
  H   H737      1.0  0.12936  0.60480  0.60054  1.0000
  H   H738      1.0  0.13270  0.63410  0.56147  1.0000
  H   H739      1.0  0.15297  0.66005  0.58531  1.0000
  H   H740      1.0  0.17003  0.65655  0.64816  1.0000
  H   H741      1.0  0.16723  0.62727  0.68780  1.0000
  C   C935      1.0  0.07036  0.62721  0.64535  1.0000
  C   C936      1.0  0.07821  0.62246  0.60932  1.0000
  H   H742      1.0  0.23876  0.71749  0.79879  1.0000
  C   C937      1.0  0.09824  0.64983  0.61460  1.0000
  C   C938      1.0  0.09012  0.65495  0.65043  1.0000
  C   C939      1.0  0.07641  0.64326  0.66605  1.0000
  P   P30       1.0  0.09769  0.67557  0.67791  1.0000
  C   C940      1.0  0.10998  0.66618  0.72052  1.0000
  C   C941      1.0  0.11164  0.69175  0.65013  1.0000
  C   C942      1.0  0.12663  0.70130  0.66796  1.0000
  C   C943      1.0  0.12871  0.50340  0.75175  1.0000
  H   H743      1.0  0.98937  0.60717  0.93806  1.0000
  C   C944      1.0  0.23816  0.73725  0.90468  1.0000
  H   H744      1.0  0.13516  0.51673  0.75949  1.0000
  C   C945      1.0  0.10041  0.66371  0.75566  1.0000
  C   C946      1.0  0.10992  0.65625  0.78853  1.0000
  C   C947      1.0  0.12893  0.65095  0.78638  1.0000
  C   C948      1.0  0.13838  0.65279  0.75122  1.0000
  C   C949      1.0  0.12893  0.66028  0.71831  1.0000
  C   C950      1.0  0.07774  0.69041  0.69205  1.0000
  C   C951      1.0  0.07989  0.70436  0.72134  1.0000
  C   C952      1.0  0.06475  0.71649  0.73158  1.0000
  C   C953      1.0  0.04742  0.71492  0.71237  1.0000
  C   C954      1.0  0.04525  0.70127  0.68274  1.0000
  C   C955      1.0  0.06038  0.68914  0.67236  1.0000
  H   H745      1.0  0.05959  0.61833  0.65714  1.0000
  S   S112      1.0  0.27580  0.64355  0.63358  1.0000
  H   H746      1.0  0.04049  0.52434  0.75845  1.0000
  H   H747      1.0  0.10930  0.65811  0.60255  1.0000
  H   H748      1.0  0.07030  0.64661  0.69414  1.0000
  H   H749      1.0  0.13081  0.69838  0.69792  1.0000
  H   H750      1.0  0.23215  0.57705  0.54685  1.0000
  C   C956      1.0  0.24292  0.54802  0.54268  1.0000
  Fe  Fe52      1.0  0.09931  0.55481  0.99306  1.0000
  H   H751      1.0  0.20837  0.73393  0.90131  1.0000
  H   H752      1.0  0.08561  0.66743  0.75775  1.0000
  H   H753      1.0  0.10256  0.65443  0.81567  1.0000
  H   H754      1.0  0.13628  0.64518  0.81188  1.0000
  H   H755      1.0  0.15304  0.64836  0.74953  1.0000
  H   H756      1.0  0.13645  0.66158  0.69129  1.0000
  H   H757      1.0  0.09333  0.70597  0.73603  1.0000
  C   C957      1.0  0.29717  0.71520  0.85456  1.0000
  H   H758      1.0  0.18224  0.72829  0.64765  1.0000
  H   H759      1.0  0.16229  0.63891  0.91816  1.0000
  H   H760      1.0  0.05851  0.67900  0.64868  1.0000
  C   C958      1.0  0.27674  0.57801  0.89785  1.0000
  H   H761      1.0  0.25360  0.51948  0.52976  1.0000
  C   C959      1.0  0.23597  0.70617  0.68286  1.0000
  C   C960      1.0  0.23203  0.69235  0.65440  1.0000
  C   C961      1.0  0.23154  0.69729  0.61469  1.0000
  C   C962      1.0  0.23499  0.71626  0.60400  1.0000
  P   P31       1.0  0.22729  0.67985  0.57658  1.0000
  C   C963      1.0  0.22645  0.65554  0.59397  1.0000
  C   C964      1.0  0.23823  0.64100  0.57864  1.0000
  C   C965      1.0  0.23655  0.62199  0.59070  1.0000
  C   C966      1.0  0.22287  0.61735  0.61762  1.0000
  C   C967      1.0  0.21081  0.63171  0.63234  1.0000
  C   C968      1.0  0.21242  0.65068  0.62021  1.0000
  C   C969      1.0  0.28543  0.58777  0.83293  1.0000
  C   C970      1.0  0.26474  0.68166  0.55636  1.0000
  H   H762      1.0  0.11516  0.51156  0.87873  1.0000
  C   C971      1.0  0.29020  0.69560  0.72094  1.0000
  H   H763      1.0  0.23598  0.70235  0.71348  1.0000
  H   H764      1.0  0.22924  0.67801  0.66374  1.0000
  H   H765      1.0  0.20571  0.73088  0.76364  1.0000
  H   H766      1.0  0.24906  0.64432  0.55820  1.0000
  H   H767      1.0  0.24627  0.61103  0.58004  1.0000
  H   H768      1.0  0.22195  0.60275  0.62782  1.0000
  H   H769      1.0  0.20059  0.62835  0.65413  1.0000
  H   H770      1.0  0.20298  0.66168  0.63193  1.0000
  H   H771      1.0  0.29374  0.68581  0.54313  1.0000
  H   H772      1.0  0.26788  0.67707  0.58601  1.0000
  H   H773      1.0  0.11120  0.71474  0.56208  1.0000
  S   S113      1.0  0.12140  0.60099  0.51610  1.0000
  C   C972      1.0  0.10597  0.69691  0.61198  1.0000
  H   H774      1.0  0.13769  0.73117  0.59375  1.0000
  H   H775      1.0  0.14732  0.72294  0.66164  1.0000
  H   H776      1.0  0.20628  0.70980  0.01054  1.0000
  C   C973      1.0  0.98974  0.59606  0.96006  1.0000
  P   P32       1.0  0.27811  0.72377  0.82329  1.0000
  H   H777      1.0  0.25347  0.71280  0.96870  1.0000
  H   H778      1.0  0.19521  0.64064  0.94171  1.0000
  C   C974      1.0  0.18738  0.61806  0.53215  1.0000
  H   H779      1.0  0.29546  0.54655  0.71804  1.0000
  C   C975      1.0  0.29546  0.57902  0.91018  1.0000
  H   H780      1.0  0.09822  0.62986  0.56605  1.0000
  C   C976      1.0  0.26477  0.68372  0.96864  1.0000
  H   H781      1.0  0.29973  0.69723  0.69686  1.0000
  S   S114      1.0  0.11014  0.50686  0.56323  1.0000
  H   H782      1.0  0.23769  0.74331  0.93384  1.0000
  H   H783      1.0  0.25677  0.67975  0.94285  1.0000
  C   C977      1.0  0.27667  0.67025  0.98780  1.0000
  H   H784      1.0  0.29930  0.57570  0.94019  1.0000
  S   S115      1.0  0.06997  0.58303  0.51746  1.0000
  H   H785      1.0  0.14432  0.52453  0.57986  1.0000
  H   H786      1.0  0.11900  0.54974  0.78019  1.0000
  C   C978      1.0  0.99044  0.55707  0.51372  1.0000
  H   H787      1.0  0.24172  0.73587  0.69406  1.0000
  C   C979      1.0  0.18788  0.65229  0.99807  1.0000
  C   C980      1.0  0.08481  0.50193  0.83323  1.0000
  C   C981      1.0  0.11562  0.52886  0.82611  1.0000
  H   H788      1.0  0.97383  0.54717  0.56139  1.0000
  C   C982      1.0  0.17151  0.74030  0.83628  1.0000
  H   H789      1.0  0.30662  0.69594  0.94440  1.0000
  H   H790      1.0  0.26794  0.73952  0.90025  1.0000
  H   H791      1.0  0.03573  0.72442  0.72014  1.0000
  C   C983      1.0  0.15459  0.65719  0.00909  1.0000
  C   C984      1.0  0.27941  0.68681  0.53228  1.0000
  C   C985      1.0  0.08558  0.49922  0.62214  1.0000
  C   C986      1.0  0.30678  0.61713  0.97615  1.0000
  H   H792      1.0  0.26936  0.74413  0.75002  1.0000
  C   C987      1.0  0.02636  0.49909  0.58470  1.0000
  H   H793      1.0  0.30571  0.71678  0.57883  1.0000
  C   C988      1.0  0.30428  0.73171  0.58748  1.0000
  Fe  Fe53      1.0  0.30642  0.64522  0.62289  1.0000
  C   C989      1.0  0.20431  0.61435  0.51305  1.0000
  H   H794      1.0  0.21518  0.62471  0.51576  1.0000
  C   C990      1.0  0.24900  0.53323  0.51778  1.0000
  C   C991      1.0  0.28342  0.74733  0.80614  1.0000
  C   C992      1.0  0.11123  0.49868  0.76689  1.0000
  H   H795      1.0  0.15283  0.68623  0.51577  1.0000
  C   C993      1.0  0.98882  0.89012  0.29802  1.0000
  C   C994      1.0  0.27585  0.78654  0.26906  1.0000
  C   C995      1.0  0.15372  0.84450  0.34976  1.0000
  C   C996      1.0  0.01987  0.97288  0.25411  1.0000
  C   C997      1.0  0.02323  0.96607  0.40895  1.0000
  H   H796      1.0  0.14702  0.84737  0.37750  1.0000
  H   H797      1.0  0.20747  0.84937  0.30168  1.0000
  S   S116      1.0  0.28132  0.81675  0.40815  1.0000
  C   C998      1.0  0.06443  0.97784  0.03548  1.0000
  Fe  Fe54      1.0  0.05071  0.87667  0.23607  1.0000
  S   S117      1.0  0.03705  0.90061  0.20131  1.0000
  S   S118      1.0  0.03822  0.86036  0.28573  1.0000
  Fe  Fe55      1.0  0.08987  0.87505  0.18954  1.0000
  S   S119      1.0  0.07654  0.90033  0.15330  1.0000
  S   S120      1.0  0.13380  0.85173  0.17993  1.0000
  Fe  Fe56      1.0  0.06510  0.91391  0.20739  1.0000
  S   S121      1.0  0.06547  0.94606  0.21548  1.0000
  Fe  Fe57      1.0  0.04956  0.88537  0.14982  1.0000
  S   S122      1.0  0.03764  0.88435  0.08886  1.0000
  S   S123      1.0  0.07814  0.89103  0.24530  1.0000
  S   S124      1.0  0.06065  0.86026  0.18379  1.0000
  H   H798      1.0  0.22651  0.80705  0.49055  1.0000
  S   S125      1.0  0.18601  0.76652  0.07156  1.0000
  H   H799      1.0  0.30220  0.85911  0.09161  1.0000
  H   H800      1.0  0.19135  0.99322  0.14702  1.0000
  C   C999      1.0  0.07435  0.98237  0.30602  1.0000
  H   H801      1.0  0.27858  0.79732  0.21059  1.0000
  Fe  Fe58      1.0  0.20013  0.79175  0.04573  1.0000
  S   S126      1.0  0.18501  0.82066  0.04171  1.0000
  H   H802      1.0  0.06056  0.98340  0.24958  1.0000
  C   C1000     1.0  0.11894  0.81918  0.03859  1.0000
  S   S127      1.0  0.22864  0.78493  0.07279  1.0000
  C   C1001     1.0  0.29342  0.75929  0.08785  1.0000
  H   H803      1.0  0.04557  0.94217  0.32753  1.0000
  C   C1002     1.0  0.99917  0.96089  0.13703  1.0000
  C   C1003     1.0  0.01587  0.86819  0.30173  1.0000
  C   C1004     1.0  0.00755  0.85876  0.33288  1.0000
  C   C1005     1.0  0.98995  0.86511  0.34678  1.0000
  H   H804      1.0  0.00836  0.84978  0.46278  1.0000
  H   H805      1.0  0.02163  0.96609  0.22581  1.0000
  C   C1006     1.0  0.00651  0.88399  0.28462  1.0000
  H   H806      1.0  0.01474  0.84653  0.34618  1.0000
  C   C1007     1.0  0.00467  0.94871  0.10620  1.0000
  C   C1008     1.0  0.24318  0.75114  0.38122  1.0000
  H   H807      1.0  0.01287  0.89155  0.26118  1.0000
  C   C1009     1.0  0.01423  0.87747  0.08676  1.0000
  C   C1010     1.0  0.00616  0.86840  0.11845  1.0000
  C   C1011     1.0  0.98736  0.86301  0.11610  1.0000
  C   C1012     1.0  0.99396  0.93340  0.17784  1.0000
  C   C1013     1.0  0.25498  0.75758  0.23483  1.0000
  C   C1014     1.0  0.00348  0.88131  0.05300  1.0000
  H   H808      1.0  0.01444  0.86539  0.14459  1.0000
  H   H809      1.0  0.05163  0.91697  0.42873  1.0000
  H   H810      1.0  0.19095  0.77362  0.15846  1.0000
  C   C1015     1.0  0.97618  0.94047  0.35409  1.0000
  C   C1016     1.0  0.14635  0.84142  0.14019  1.0000
  C   C1017     1.0  0.14348  0.84766  0.10175  1.0000
  C   C1018     1.0  0.15544  0.84117  0.07200  1.0000
  C   C1019     1.0  0.16987  0.82764  0.07984  1.0000
  C   C1020     1.0  0.17240  0.82068  0.11788  1.0000
  C   C1021     1.0  0.16087  0.82782  0.14806  1.0000
  H   H811      1.0  0.13274  0.85822  0.09503  1.0000
  H   H812      1.0  0.15356  0.84675  0.04281  1.0000
  H   H813      1.0  0.18366  0.81037  0.12430  1.0000
  H   H814      1.0  0.16338  0.82300  0.17771  1.0000
  C   C1022     1.0  0.26895  0.80511  0.44490  1.0000
  C   C1023     1.0  0.27801  0.79114  0.46811  1.0000
  C   C1024     1.0  0.06821  0.97446  0.27045  1.0000
  H   H815      1.0  0.00972  0.88830  0.02848  1.0000
  H   H816      1.0  0.21968  0.75236  0.24916  1.0000
  C   C1025     1.0  0.25020  0.81057  0.45254  1.0000
  H   H817      1.0  0.98323  0.92933  0.33720  1.0000
  H   H818      1.0  0.09927  0.95292  0.43608  1.0000
  H   H819      1.0  0.29248  0.78697  0.46278  1.0000
  H   H820      1.0  0.24316  0.82142  0.43469  1.0000
  H   H821      1.0  0.17746  0.83444  0.25018  1.0000
  C   C1026     1.0  0.08911  0.95182  0.32331  1.0000
  C   C1027     1.0  0.10373  0.82545  0.06103  1.0000
  C   C1028     1.0  0.07213  0.95512  0.26156  1.0000
  C   C1029     1.0  0.00327  0.99468  0.02720  1.0000
  C   C1030     1.0  0.17709  0.79224  0.24581  1.0000
  H   H822      1.0  0.23774  0.75997  0.44063  1.0000
  C   C1031     1.0  0.02402  0.89887  0.37916  1.0000
  Fe  Fe59      1.0  0.23419  0.76817  0.01767  1.0000
  C   C1032     1.0  0.01640  0.96174  0.28693  1.0000
  H   H823      1.0  0.26394  0.80948  0.33682  1.0000
  C   C1033     1.0  0.01541  0.97030  0.32410  1.0000
  H   H824      1.0  0.08569  0.92890  0.28153  1.0000
  H   H825      1.0  0.16440  0.79496  0.26223  1.0000
  H   H826      1.0  0.98850  0.93247  0.48425  1.0000
  C   C1034     1.0  0.06349  0.92214  0.44528  1.0000
  C   C1035     1.0  0.09607  0.89681  0.02742  1.0000
  C   C1036     1.0  0.06674  0.91622  0.48398  1.0000
  C   C1037     1.0  0.02152  0.85670  0.45767  1.0000
  C   C1038     1.0  0.08235  0.94372  0.28838  1.0000
  C   C1039     1.0  0.05059  0.85864  0.42253  1.0000
  C   C1040     1.0  0.05565  0.87434  0.44558  1.0000
  H   H827      1.0  0.02956  0.83778  0.41053  1.0000
  H   H828      1.0  0.26628  0.84456  0.33015  1.0000
  H   H829      1.0  0.00234  0.91853  0.39831  1.0000
  C   C1041     1.0  0.99682  0.97927  0.04907  1.0000
  C   C1042     1.0  0.26845  0.77230  0.29248  1.0000
  C   C1043     1.0  0.17701  0.82681  0.31158  1.0000
  P   P33       1.0  0.01148  0.95606  0.36681  1.0000
  H   H830      1.0  0.04723  0.88237  0.35532  1.0000
  H   H831      1.0  0.22987  0.75702  0.37037  1.0000
  H   H832      1.0  0.01807  0.88672  0.39354  1.0000
  H   H833      1.0  0.17274  0.82314  0.37371  1.0000
  C   C1044     1.0  0.02440  0.97382  0.47824  1.0000
  H   H834      1.0  0.05991  0.85321  0.40004  1.0000
  H   H835      1.0  0.06910  0.88072  0.44110  1.0000
  C   C1045     1.0  0.01499  0.91688  0.38134  1.0000
  H   H836      1.0  0.29475  0.77127  0.06834  1.0000
  C   C1046     1.0  0.04616  0.97123  0.03184  1.0000
  C   C1047     1.0  0.08526  0.97120  0.33205  1.0000
  C   C1048     1.0  0.16833  0.83070  0.34744  1.0000
  C   C1049     1.0  0.02157  0.99271  0.25795  1.0000
  C   C1050     1.0  0.01721  0.99019  0.32775  1.0000
  C   C1051     1.0  0.06367  0.97288  0.10538  1.0000
  C   C1052     1.0  0.09331  0.93717  0.48829  1.0000
  C   C1053     1.0  0.17095  0.83706  0.27819  1.0000
  C   C1054     1.0  0.25293  0.83792  0.32480  1.0000
  H   H837      1.0  0.97641  0.87939  0.02488  1.0000
  C   C1055     1.0  0.26223  0.77190  0.21156  1.0000
  H   H838      1.0  0.13634  0.86517  0.31821  1.0000
  C   C1056     1.0  0.99960  0.92118  0.14746  1.0000
  H   H839      1.0  0.00068  0.96167  0.44953  1.0000
  Fe  Fe60      1.0  0.21500  0.75836  0.09393  1.0000
  H   H840      1.0  0.98998  0.92755  0.20560  1.0000
  C   C1057     1.0  0.08441  0.91324  0.02657  1.0000
  C   C1058     1.0  0.14770  0.85453  0.31638  1.0000
  H   H841      1.0  0.01457  0.91006  0.46739  1.0000
  C   C1059     1.0  0.04287  0.97959  0.47471  1.0000
  C   C1060     1.0  0.04346  0.88154  0.47437  1.0000
  C   C1061     1.0  0.98459  0.87637  0.05104  1.0000
  C   C1062     1.0  0.23698  0.84909  0.31477  1.0000
  C   C1063     1.0  0.03626  0.96589  0.06510  1.0000
  H   H842      1.0  0.27158  0.77244  0.32354  1.0000
  C   C1064     1.0  0.24074  0.80242  0.48399  1.0000
  C   C1065     1.0  0.01471  0.96672  0.44570  1.0000
  H   H843      1.0  0.06089  0.91013  0.32264  1.0000
  P   P34       1.0  0.01208  0.95876  0.06066  1.0000
  C   C1066     1.0  0.09026  0.94263  0.44941  1.0000
  C   C1067     1.0  0.17577  0.78370  0.20888  1.0000
  H   H844      1.0  0.00970  0.91911  0.08886  1.0000
  H   H845      1.0  0.07813  0.84272  0.06222  1.0000
  C   C1068     1.0  0.18195  0.76270  0.37350  1.0000
  C   C1069     1.0  0.00508  0.92879  0.11182  1.0000
  C   C1070     1.0  0.04182  0.97190  0.40570  1.0000
  P   P35       1.0  0.05059  0.90050  0.50677  1.0000
  H   H846      1.0  0.15159  0.85849  0.25465  1.0000
  C   C1071     1.0  0.05159  0.97853  0.43853  1.0000
  H   H847      1.0  0.09758  0.94313  0.34332  1.0000
  H   H848      1.0  0.01732  0.99469  0.01604  1.0000
  H   H849      1.0  0.16222  0.77981  0.19704  1.0000
  H   H850      1.0  0.99893  0.97633  0.13360  1.0000
  C   C1072     1.0  0.27264  0.78642  0.22868  1.0000
  H   H851      1.0  0.23798  0.86448  0.31193  1.0000
  C   C1073     1.0  0.99357  0.95323  0.17243  1.0000
  C   C1074     1.0  0.21968  0.84045  0.30906  1.0000
  C   C1075     1.0  0.04530  0.96653  0.10188  1.0000
  H   H852      1.0  0.12975  0.80978  0.05140  1.0000
  C   C1076     1.0  0.18959  0.76697  0.41017  1.0000
  C   C1077     1.0  0.19975  0.78356  0.41565  1.0000
  C   C1078     1.0  0.20207  0.79609  0.38448  1.0000
  C   C1079     1.0  0.19436  0.79198  0.34739  1.0000
  C   C1080     1.0  0.18426  0.77517  0.34217  1.0000
  P   P36       1.0  0.19601  0.80914  0.30828  1.0000
  C   C1081     1.0  0.25781  0.75773  0.27556  1.0000
  C   C1082     1.0  0.21829  0.82053  0.31349  1.0000
  S   S128      1.0  0.09502  0.98127  0.37468  1.0000
  C   C1083     1.0  0.25163  0.81810  0.32866  1.0000
  C   C1084     1.0  0.23443  0.80940  0.32310  1.0000
  C   C1085     1.0  0.08998  0.83784  0.04482  1.0000
  C   C1086     1.0  0.19464  0.79739  0.26119  1.0000
  C   C1087     1.0  0.21080  0.79395  0.23888  1.0000
  C   C1088     1.0  0.20936  0.78557  0.20186  1.0000
  C   C1089     1.0  0.19191  0.78032  0.18699  1.0000
  H   H853      1.0  0.26006  0.77141  0.18013  1.0000
  C   C1090     1.0  0.15632  0.85081  0.28063  1.0000
  H   H854      1.0  0.10273  0.82076  0.09104  1.0000
  H   H855      1.0  0.99989  0.90579  0.15154  1.0000
  H   H856      1.0  0.20555  0.78683  0.44430  1.0000
  H   H857      1.0  0.20962  0.80913  0.38964  1.0000
  H   H858      1.0  0.17797  0.77169  0.31423  1.0000
  H   H859      1.0  0.23372  0.79401  0.32672  1.0000
  H   H860      1.0  0.04887  0.97122  0.37787  1.0000
  H   H861      1.0  0.22453  0.79774  0.24960  1.0000
  H   H862      1.0  0.22184  0.78297  0.18468  1.0000
  H   H863      1.0  0.28749  0.84099  0.48630  1.0000
  C   C1091     1.0  0.07532  0.93516  0.42797  1.0000
  C   C1092     1.0  0.03348  0.84991  0.42841  1.0000
  C   C1093     1.0  0.08548  0.92668  0.05675  1.0000
  H   H864      1.0  0.17621  0.88984  0.03951  1.0000
  C   C1094     1.0  0.27579  0.75121  0.09125  1.0000
  C   C1095     1.0  0.10862  0.89366  0.05867  1.0000
  C   C1096     1.0  0.10967  0.90697  0.08957  1.0000
  C   C1097     1.0  0.09813  0.92371  0.08794  1.0000
  P   P37       1.0  0.12426  0.90183  0.13254  1.0000
  C   C1098     1.0  0.11393  0.88303  0.16181  1.0000
  C   C1099     1.0  0.14763  0.89391  0.11848  1.0000
  C   C1100     1.0  0.16013  0.88627  0.14685  1.0000
  C   C1101     1.0  0.17791  0.87920  0.13630  1.0000
  C   C1102     1.0  0.18360  0.88025  0.09752  1.0000
  C   C1103     1.0  0.17169  0.88887  0.06948  1.0000
  C   C1104     1.0  0.15384  0.89586  0.07992  1.0000
  C   C1105     1.0  0.11625  0.88283  0.20596  1.0000
  C   C1106     1.0  0.10962  0.86597  0.22959  1.0000
  C   C1107     1.0  0.10028  0.84938  0.20935  1.0000
  C   C1108     1.0  0.09797  0.84946  0.16516  1.0000
  C   C1109     1.0  0.10433  0.86635  0.14173  1.0000
  C   C1110     1.0  0.12746  0.92407  0.15913  1.0000
  C   C1111     1.0  0.14200  0.93615  0.14872  1.0000
  C   C1112     1.0  0.14423  0.95376  0.16771  1.0000
  C   C1113     1.0  0.13185  0.95957  0.19698  1.0000
  C   C1114     1.0  0.11725  0.94781  0.20719  1.0000
  C   C1115     1.0  0.11496  0.93018  0.18832  1.0000
  H   H865      1.0  0.07606  0.93912  0.05654  1.0000
  C   C1116     1.0  0.98981  0.82263  0.02809  1.0000
  C   C1117     1.0  0.08151  0.92411  0.50567  1.0000
  H   H866      1.0  0.11729  0.88070  0.05879  1.0000
  H   H867      1.0  0.09815  0.93409  0.11152  1.0000
  H   H868      1.0  0.15585  0.88513  0.17695  1.0000
  H   H869      1.0  0.18704  0.87237  0.15802  1.0000
  H   H870      1.0  0.19717  0.87423  0.08917  1.0000
  H   H871      1.0  0.98353  0.85771  0.37060  1.0000
  H   H872      1.0  0.14501  0.90267  0.05778  1.0000
  H   H873      1.0  0.12366  0.89407  0.22077  1.0000
  H   H874      1.0  0.11197  0.86554  0.26085  1.0000
  H   H875      1.0  0.09588  0.83723  0.22609  1.0000
  H   H876      1.0  0.09184  0.83736  0.15050  1.0000
  H   H877      1.0  0.10217  0.86609  0.11056  1.0000
  H   H878      1.0  0.15157  0.93212  0.12563  1.0000
  H   H879      1.0  0.15549  0.96292  0.15951  1.0000
  H   H880      1.0  0.13341  0.97324  0.21164  1.0000
  H   H881      1.0  0.10751  0.95249  0.22947  1.0000
  H   H882      1.0  0.10327  0.92161  0.19634  1.0000
  H   H883      1.0  0.03830  0.96217  0.12808  1.0000
  H   H884      1.0  0.28451  0.79738  0.28219  1.0000
  C   C1118     1.0  0.04049  0.89644  0.35785  1.0000
  C   C1119     1.0  0.04812  0.91206  0.33915  1.0000
  C   C1120     1.0  0.03920  0.93013  0.34148  1.0000
  C   C1121     1.0  0.02224  0.93253  0.36157  1.0000
  H   H885      1.0  0.08732  0.98383  0.07500  1.0000
  C   C1122     1.0  0.98047  0.88067  0.32893  1.0000
  C   C1123     1.0  0.97647  0.97009  0.39115  1.0000
  H   H886      1.0  0.07045  0.97325  0.13396  1.0000
  H   H887      1.0  0.98381  0.98210  0.40322  1.0000
  H   H888      1.0  0.06593  0.98304  0.43588  1.0000
  H   H889      1.0  0.01485  0.94643  0.28328  1.0000
  H   H890      1.0  0.07270  0.93983  0.39818  1.0000
  C   C1124     1.0  0.97656  0.86706  0.08243  1.0000
  C   C1125     1.0  0.98628  0.95537  0.37130  1.0000
  H   H891      1.0  0.10467  0.94330  0.50507  1.0000
  H   H892      1.0  0.98175  0.90238  0.28475  1.0000
  H   H893      1.0  0.98877  0.96275  0.19546  1.0000
  H   H894      1.0  0.97941  0.98055  0.25632  1.0000
  H   H895      1.0  0.26387  0.75711  0.07487  1.0000
  C   C1126     1.0  0.07316  0.97876  0.07226  1.0000
  C   C1127     1.0  0.26863  0.78318  0.49957  1.0000
  C   C1128     1.0  0.02661  0.87227  0.48095  1.0000
  H   H896      1.0  0.98118  0.85578  0.14042  1.0000
  H   H897      1.0  0.18736  0.75758  0.43452  1.0000
  H   H898      1.0  0.99951  0.82776  0.05021  1.0000
  C   C1129     1.0  0.00914  0.94121  0.02221  1.0000
  C   C1130     1.0  0.01535  0.91817  0.49430  1.0000
  H   H899      1.0  0.05038  0.98510  0.49991  1.0000
  H   H900      1.0  0.01742  0.87693  0.50432  1.0000
  H   H901      1.0  0.01764  0.97488  0.50629  1.0000
  H   H902      1.0  0.01643  0.99712  0.35606  1.0000
  C   C1131     1.0  0.24756  0.75282  0.42106  1.0000
  H   H903      1.0  0.03860  0.93265  0.01950  1.0000
  H   H904      1.0  0.07111  0.99728  0.31271  1.0000
  H   H905      1.0  0.98610  0.79548  0.05597  1.0000
  C   C1132     1.0  0.25011  0.78891  0.50795  1.0000
  C   C1133     1.0  0.97824  0.98007  0.06237  1.0000
  H   H906      1.0  0.97696  0.75636  0.37622  1.0000
  C   C1134     1.0  0.00053  0.93085  0.50368  1.0000
  C   C1135     1.0  0.98220  0.80450  0.03130  1.0000
  H   H907      1.0  0.97880  0.94466  0.01955  1.0000
  H   H908      1.0  0.17400  0.74981  0.36963  1.0000
  Fe  Fe61      1.0  0.19484  0.75157  0.01634  1.0000
  H   H909      1.0  0.09221  0.95334  0.69764  1.0000
  H   H910      1.0  0.06532  0.99368  0.76426  1.0000
  C   C1136     1.0  0.25695  0.81114  0.70489  1.0000
  C   C1137     1.0  0.06421  0.97000  0.88273  1.0000
  C   C1138     1.0  0.08656  0.86997  0.57920  1.0000
  H   H911      1.0  0.08855  0.92293  0.66107  1.0000
  H   H912      1.0  0.29741  0.74892  0.96068  1.0000
  H   H913      1.0  0.20083  0.76927  0.77674  1.0000
  C   C1139     1.0  0.03251  0.99662  0.67088  1.0000
  Fe  Fe62      1.0  0.04398  0.87352  0.80432  1.0000
  S   S129      1.0  0.03766  0.90236  0.77798  1.0000
  S   S130      1.0  0.03167  0.86304  0.86051  1.0000
  Fe  Fe63      1.0  0.07274  0.86235  0.74307  1.0000
  S   S131      1.0  0.06881  0.89024  0.71103  1.0000
  S   S132      1.0  0.09200  0.83643  0.73103  1.0000
  Fe  Fe64      1.0  0.06862  0.90414  0.77049  1.0000
  S   S133      1.0  0.08297  0.93238  0.77959  1.0000
  Fe  Fe65      1.0  0.03788  0.88685  0.72024  1.0000
  S   S134      1.0  0.01605  0.89925  0.67761  1.0000
  S   S135      1.0  0.07521  0.87655  0.80196  1.0000
  S   S136      1.0  0.04162  0.85763  0.74738  1.0000
  Fe  Fe66      1.0  0.18973  0.76711  0.63939  1.0000
  S   S137      1.0  0.16089  0.77241  0.61354  1.0000
  C   C1140     1.0  0.04421  0.99821  0.63842  1.0000
  Fe  Fe67      1.0  0.20967  0.78203  0.56801  1.0000
  S   S138      1.0  0.18263  0.78969  0.53629  1.0000
  S   S139      1.0  0.24008  0.77964  0.55030  1.0000
  Fe  Fe68      1.0  0.17220  0.80060  0.59484  1.0000
  S   S140      1.0  0.15621  0.82900  0.60370  1.0000
  Fe  Fe69      1.0  0.17325  0.76115  0.55740  1.0000
  C   C1141     1.0  0.13388  0.85026  0.92421  1.0000
  S   S141      1.0  0.20039  0.79589  0.62415  1.0000
  C   C1142     1.0  0.16700  0.75772  0.81746  1.0000
  H   H914      1.0  0.06892  0.85434  0.92503  1.0000
  H   H915      1.0  0.08047  0.85345  0.99457  1.0000
  C   C1143     1.0  0.00806  0.87001  0.86747  1.0000
  C   C1144     1.0  0.99980  0.86750  0.90400  1.0000
  H   H916      1.0  0.99046  0.84848  0.99418  1.0000
  C   C1145     1.0  0.14646  0.80550  0.81310  1.0000
  S   S142      1.0  0.26163  0.75852  0.99099  1.0000
  C   C1146     1.0  0.99743  0.87820  0.83690  1.0000
  H   H917      1.0  0.00801  0.86116  0.92774  1.0000
  C   C1147     1.0  0.00130  0.94184  0.53771  1.0000
  C   C1148     1.0  0.99166  0.86910  0.56997  1.0000
  H   H918      1.0  0.00364  0.88003  0.80856  1.0000
  C   C1149     1.0  0.00696  0.88716  0.63652  1.0000
  C   C1150     1.0  0.99752  0.89796  0.60740  1.0000
  H   H919      1.0  0.97490  0.87216  0.93860  1.0000
  C   C1151     1.0  0.97945  0.94527  0.64552  1.0000
  C   C1152     1.0  0.00127  0.85826  0.59884  1.0000
  C   C1153     1.0  0.00881  0.86725  0.63221  1.0000
  P   P38       1.0  0.17486  0.78001  0.83835  1.0000
  H   H920      1.0  0.01829  0.98839  0.92264  1.0000
  H   H921      1.0  0.00277  0.84286  0.59552  1.0000
  H   H922      1.0  0.01599  0.85878  0.65459  1.0000
  C   C1154     1.0  0.10975  0.83495  0.69543  1.0000
  C   C1155     1.0  0.11517  0.85092  0.67425  1.0000
  C   C1156     1.0  0.12942  0.84894  0.64622  1.0000
  C   C1157     1.0  0.13853  0.83107  0.63955  1.0000
  C   C1158     1.0  0.13336  0.81525  0.66143  1.0000
  C   C1159     1.0  0.11901  0.81717  0.68905  1.0000
  H   H923      1.0  0.10842  0.86478  0.67948  1.0000
  H   H924      1.0  0.13344  0.86130  0.62971  1.0000
  H   H925      1.0  0.14034  0.80149  0.65698  1.0000
  H   H926      1.0  0.11507  0.80479  0.70560  1.0000
  H   H927      1.0  0.00271  0.90512  0.93638  1.0000
  C   C1160     1.0  0.97497  0.93109  0.84355  1.0000
  C   C1161     1.0  0.29467  0.76405  0.95544  1.0000
  C   C1162     1.0  0.27787  0.77285  0.96797  1.0000
  C   C1163     1.0  0.27450  0.79245  0.96165  1.0000
  C   C1164     1.0  0.28796  0.80317  0.94246  1.0000
  H   H928      1.0  0.98267  0.89751  0.55200  1.0000
  C   C1165     1.0  0.98884  0.92462  0.97633  1.0000
  H   H929      1.0  0.26155  0.79927  0.97135  1.0000
  H   H930      1.0  0.28537  0.81832  0.93736  1.0000
  H   H931      1.0  0.15267  0.75736  0.89426  1.0000
  C   C1166     1.0  0.22871  0.77185  0.80026  1.0000
  C   C1167     1.0  0.06369  0.93954  0.84747  1.0000
  C   C1168     1.0  0.07533  0.94681  0.81899  1.0000
  C   C1169     1.0  0.08118  0.96581  0.82215  1.0000
  C   C1170     1.0  0.27741  0.75341  0.76885  1.0000
  H   H932      1.0  0.05707  0.91389  0.63683  1.0000
  H   H933      1.0  0.05901  0.92497  0.84501  1.0000
  C   C1171     1.0  0.03102  0.91620  0.51942  1.0000
  H   H934      1.0  0.02965  0.93498  0.64780  1.0000
  H   H935      1.0  0.11975  0.88665  0.92417  1.0000
  H   H936      1.0  0.03972  0.97054  0.00299  1.0000
  H   H937      1.0  0.08088  0.85787  0.63558  1.0000
  H   H938      1.0  0.20517  0.78601  0.89798  1.0000
  H   H939      1.0  0.23534  0.76755  0.77320  1.0000
  P   P39       1.0  0.29636  0.79538  0.62330  1.0000
  C   C1172     1.0  0.00493  0.97594  0.81333  1.0000
  C   C1173     1.0  0.02236  0.91806  0.97613  1.0000
  C   C1174     1.0  0.06072  0.88826  0.54870  1.0000
  C   C1175     1.0  0.04954  0.88439  0.58089  1.0000
  C   C1176     1.0  0.05693  0.87372  0.61231  1.0000
  C   C1177     1.0  0.07922  0.88072  0.54774  1.0000
  H   H940      1.0  0.25480  0.77564  0.83165  1.0000
  H   H941      1.0  0.07434  0.91543  0.00285  1.0000
  C   C1178     1.0  0.02334  0.96980  0.80560  1.0000
  C   C1179     1.0  0.24469  0.78462  0.66776  1.0000
  H   H942      1.0  0.03502  0.88931  0.58147  1.0000
  H   H943      1.0  0.04827  0.87087  0.63725  1.0000
  H   H944      1.0  0.13266  0.82087  0.98359  1.0000
  C   C1180     1.0  0.13859  0.82008  0.78952  1.0000
  C   C1181     1.0  0.99673  0.97982  0.63029  1.0000
  H   H945      1.0  0.09026  0.97146  0.80024  1.0000
  C   C1182     1.0  0.10683  0.83795  0.98344  1.0000
  C   C1183     1.0  0.07857  0.94969  0.68586  1.0000
  C   C1184     1.0  0.07651  0.93254  0.66535  1.0000
  P   P40       1.0  0.02528  0.97328  0.68598  1.0000
  H   H946      1.0  0.17081  0.81752  0.96048  1.0000
  H   H947      1.0  0.97403  0.93127  0.87511  1.0000
  C   C1185     1.0  0.16659  0.80458  0.94555  1.0000
  H   H948      1.0  0.10080  0.86404  0.57843  1.0000
  H   H949      1.0  0.29615  0.79771  0.76846  1.0000
  C   C1186     1.0  0.14961  0.82911  0.76215  1.0000
  C   C1187     1.0  0.27533  0.79678  0.65236  1.0000
  H   H950      1.0  0.17406  0.86374  0.97073  1.0000
  H   H951      1.0  0.26325  0.81458  0.58551  1.0000
  H   H952      1.0  0.17680  0.83024  0.73610  1.0000
  C   C1188     1.0  0.12055  0.82550  0.00014  1.0000
  C   C1189     1.0  0.16003  0.85028  0.87942  1.0000
  C   C1190     1.0  0.05834  0.95104  0.87949  1.0000
  C   C1191     1.0  0.05879  0.92746  0.65169  1.0000
  C   C1192     1.0  0.20027  0.77858  0.83698  1.0000
  H   H953      1.0  0.04992  0.98553  0.62397  1.0000
  H   H954      1.0  0.00525  0.93099  0.84367  1.0000
  H   H955      1.0  0.14044  0.85953  0.98316  1.0000
  C   C1193     1.0  0.04312  0.93945  0.65856  1.0000
  P   P41       1.0  0.10946  0.84618  0.93366  1.0000
  S   S143      1.0  0.19745  0.75644  0.69970  1.0000
  H   H956      1.0  0.13764  0.79844  0.83371  1.0000
  C   C1194     1.0  0.01761  0.97411  0.73608  1.0000
  H   H957      1.0  0.28402  0.82061  0.68859  1.0000
  C   C1195     1.0  0.06545  0.88487  0.92058  1.0000
  C   C1196     1.0  0.98108  0.87361  0.91015  1.0000
  C   C1197     1.0  0.16543  0.79979  0.80934  1.0000
  C   C1198     1.0  0.01718  0.94054  0.56204  1.0000
  H   H958      1.0  0.01799  0.94948  0.58781  1.0000
  H   H959      1.0  0.16546  0.84796  0.85030  1.0000
  H   H960      1.0  0.30538  0.78779  0.83567  1.0000
  H   H961      1.0  0.03269  0.96584  0.82948  1.0000
  C   C1199     1.0  0.99909  0.98030  0.74418  1.0000
  C   C1200     1.0  0.16847  0.82353  0.75816  1.0000
  H   H962      1.0  0.07174  0.98229  0.00961  1.0000
  H   H963      1.0  0.23950  0.78442  0.89387  1.0000
  H   H964      1.0  0.97866  0.92917  0.73075  1.0000
  C   C1201     1.0  0.29756  0.77818  0.81699  1.0000
  C   C1202     1.0  0.04502  0.95671  0.67927  1.0000
  H   H965      1.0  0.00725  0.93051  0.77134  1.0000
  C   C1203     1.0  0.97868  0.88394  0.84283  1.0000
  C   C1204     1.0  0.17641  0.80897  0.78169  1.0000
  C   C1205     1.0  0.20913  0.77283  0.80233  1.0000
  C   C1206     1.0  0.27321  0.81047  0.68237  1.0000
  S   S144      1.0  0.05734  0.98354  0.92392  1.0000
  C   C1207     1.0  0.29341  0.81028  0.58048  1.0000
  C   C1208     1.0  0.02469  0.93093  0.00715  1.0000
  H   H966      1.0  0.17874  0.81239  0.89116  1.0000
  H   H967      1.0  0.29750  0.75583  0.85980  1.0000
  H   H968      1.0  0.14498  0.76280  0.96304  1.0000
  C   C1209     1.0  0.14580  0.85667  0.95424  1.0000
  H   H969      1.0  0.04435  0.92710  0.57175  1.0000
  C   C1210     1.0  0.27369  0.82931  0.53598  1.0000
  H   H970      1.0  0.14340  0.84017  0.74338  1.0000
  C   C1211     1.0  0.07431  0.90236  0.91834  1.0000
  S   S145      1.0  0.98212  0.85759  0.52861  1.0000
  C   C1212     1.0  0.97741  0.92946  0.76216  1.0000
  H   H971      1.0  0.25535  0.82175  0.72791  1.0000
  H   H972      1.0  0.00286  0.99348  0.62432  1.0000
  H   H973      1.0  0.12383  0.82417  0.79169  1.0000
  C   C1213     1.0  0.99159  0.97767  0.93926  1.0000
  C   C1214     1.0  0.07611  0.86780  0.92398  1.0000
  C   C1215     1.0  0.00491  0.96694  0.65749  1.0000
  C   C1216     1.0  0.99110  0.93751  0.00738  1.0000
  H   H974      1.0  0.18667  0.85821  0.90427  1.0000
  H   H975      1.0  0.23349  0.77479  0.66176  1.0000
  C   C1217     1.0  0.16681  0.78428  0.88761  1.0000
  H   H976      1.0  0.15533  0.77041  0.76416  1.0000
  C   C1218     1.0  0.16482  0.85933  0.94713  1.0000
  C   C1219     1.0  0.98461  0.83440  0.99665  1.0000
  C   C1220     1.0  0.99254  0.93080  0.82590  1.0000
  C   C1221     1.0  0.15667  0.77063  0.90788  1.0000
  C   C1222     1.0  0.24272  0.79818  0.69765  1.0000
  C   C1223     1.0  0.29317  0.75999  0.83048  1.0000
  C   C1224     1.0  0.15736  0.79052  0.96608  1.0000
  C   C1225     1.0  0.23964  0.77635  0.83308  1.0000
  C   C1226     1.0  0.00321  0.99075  0.92172  1.0000
  H   H977      1.0  0.03438  0.91017  0.96462  1.0000
  C   C1227     1.0  0.09143  0.84398  0.00615  1.0000
  C   C1228     1.0  0.98005  0.97537  0.61093  1.0000
  C   C1229     1.0  0.98987  0.88899  0.57428  1.0000
  H   H978      1.0  0.25988  0.83465  0.52687  1.0000
  H   H979      1.0  0.05027  0.88447  0.91907  1.0000
  H   H980      1.0  0.26183  0.77375  0.62124  1.0000
  H   H981      1.0  0.04388  0.96346  0.76202  1.0000
  C   C1230     1.0  0.02967  0.96865  0.76714  1.0000
  H   H982      1.0  0.27795  0.77582  0.72608  1.0000
  C   C1231     1.0  0.27567  0.81785  0.56930  1.0000
  C   C1232     1.0  0.30065  0.77052  0.60958  1.0000
  H   H983      1.0  0.97855  0.98612  0.78836  1.0000
  H   H984      1.0  0.15466  0.79249  0.99695  1.0000
  H   H985      1.0  0.08008  0.99208  0.85610  1.0000
  C   C1233     1.0  0.99603  0.94974  0.66527  1.0000
  C   C1234     1.0  0.23099  0.78149  0.86810  1.0000
  H   H986      1.0  0.00198  0.93978  0.68663  1.0000
  C   C1235     1.0  0.07545  0.97748  0.85373  1.0000
  H   H987      1.0  0.19096  0.80481  0.77754  1.0000
  C   C1236     1.0  0.15201  0.77378  0.94700  1.0000
  C   C1237     1.0  0.06293  0.96175  0.69261  1.0000
  H   H988      1.0  0.99627  0.91335  0.61021  1.0000
  H   H989      1.0  0.04936  0.94535  0.90155  1.0000
  C   C1238     1.0  0.21139  0.78247  0.87021  1.0000
  H   H990      1.0  0.23003  0.79874  0.71477  1.0000
  C   C1239     1.0  0.14107  0.84735  0.88659  1.0000
  C   C1240     1.0  0.00448  0.91508  0.96043  1.0000
  C   C1241     1.0  0.07539  0.86647  0.61146  1.0000
  H   H991      1.0  0.10065  0.91650  0.91650  1.0000
  C   C1242     1.0  0.17112  0.80158  0.90637  1.0000
  C   C1243     1.0  0.10462  0.88586  0.92331  1.0000
  H   H992      1.0  0.11444  0.80415  0.93266  1.0000
  H   H993      1.0  0.98970  0.95163  0.54452  1.0000
  H   H994      1.0  0.97384  0.98546  0.59026  1.0000
  C   C1244     1.0  0.08822  0.81908  0.83699  1.0000
  C   C1245     1.0  0.09301  0.79983  0.84397  1.0000
  C   C1246     1.0  0.10236  0.79454  0.87866  1.0000
  C   C1247     1.0  0.10687  0.80852  0.90643  1.0000
  C   C1248     1.0  0.10185  0.82790  0.89987  1.0000
  C   C1249     1.0  0.09275  0.83307  0.86461  1.0000
  H   H995      1.0  0.09506  0.88631  0.00426  1.0000
  S   S146      1.0  0.20699  0.77722  0.98848  1.0000
  C   C1250     1.0  0.09579  0.86818  0.92622  1.0000
  C   C1251     1.0  0.28204  0.77150  0.75531  1.0000
  H   H996      1.0  0.06599  0.91550  0.91551  1.0000
  C   C1252     1.0  0.17193  0.85612  0.90975  1.0000
  C   C1253     1.0  0.09387  0.90287  0.91923  1.0000
  H   H997      1.0  0.08114  0.82326  0.80988  1.0000
  H   H998      1.0  0.08957  0.78908  0.82227  1.0000
  H   H999      1.0  0.10624  0.77963  0.88392  1.0000
  H   H1000     1.0  0.08931  0.84792  0.85800  1.0000
  H   H1001     1.0  0.08785  0.88283  0.52245  1.0000
  H   H1002     1.0  0.99781  0.96528  0.95386  1.0000
  C   C1254     1.0  0.99276  0.98104  0.78257  1.0000
  H   H1003     1.0  0.98954  0.98495  0.72093  1.0000
  C   C1255     1.0  0.29223  0.78384  0.77923  1.0000
  C   C1256     1.0  0.03203  0.92781  0.55291  1.0000
  C   C1257     1.0  0.26080  0.78404  0.64496  1.0000
  H   H1004     1.0  0.13207  0.84293  0.86266  1.0000
  C   C1258     1.0  0.99371  0.93026  0.78519  1.0000
  H   H1005     1.0  0.06479  0.97495  0.70842  1.0000
  S   S147      1.0  0.20075  0.75283  0.58568  1.0000
  H   H1006     1.0  0.00009  0.97669  0.84312  1.0000
  C   C1259     1.0  0.15812  0.75735  0.78050  1.0000
  H   H1007     1.0  0.08376  0.92050  0.53614  1.0000
  H   H1008     1.0  0.29489  0.75946  0.66708  1.0000
  H   H1009     1.0  0.97397  0.81919  0.88414  1.0000
  C   C1260     1.0  0.29821  0.75592  0.63708  1.0000
  C   C1261     1.0  0.30470  0.79427  0.92958  1.0000
  H   H1010     1.0  0.27584  0.77272  0.51797  1.0000
  C   C1262     1.0  0.30525  0.76541  0.57106  1.0000
  H   H1011     1.0  0.97494  0.92193  0.96466  1.0000
  C   C1263     1.0  0.28927  0.83294  0.51318  1.0000
  H   H1012     1.0  0.35497  0.20438  0.48075  1.0000
  Fe  Fe70      1.0  0.33487  0.14240  0.30971  1.0000
  S   S148      1.0  0.36500  0.13143  0.31555  1.0000
  C   C1264     1.0  0.63969  0.10495  0.09730  1.0000
  S   S149      1.0  0.32893  0.17425  0.30720  1.0000
  H   H1013     1.0  0.30703  0.21048  0.13675  1.0000
  H   H1014     1.0  0.34848  0.22454  0.40051  1.0000
  S   S150      1.0  0.46410  0.07919  0.09354  1.0000
  Fe  Fe71      1.0  0.42300  0.06311  0.44835  1.0000
  S   S151      1.0  0.43368  0.03733  0.41481  1.0000
  S   S152      1.0  0.39223  0.07257  0.44724  1.0000
  C   C1265     1.0  0.32102  0.14969  0.45139  1.0000
  C   C1266     1.0  0.40766  0.03250  0.30362  1.0000
  Fe  Fe72      1.0  0.45756  0.05595  0.39938  1.0000
  S   S153      1.0  0.46656  0.05575  0.33640  1.0000
  S   S154      1.0  0.43105  0.04585  0.04242  1.0000
  S   S155      1.0  0.44595  0.08224  0.42976  1.0000
  Fe  Fe73      1.0  0.56437  0.07647  0.16532  1.0000
  S   S156      1.0  0.57309  0.09804  0.21010  1.0000
  S   S157      1.0  0.55199  0.08626  0.10752  1.0000
  Fe  Fe74      1.0  0.58100  0.04270  0.21195  1.0000
  S   S158      1.0  0.59159  0.06186  0.25968  1.0000
  P   P42       1.0  0.37450  0.16685  0.47346  1.0000
  Fe  Fe75      1.0  0.56329  0.07676  0.25381  1.0000
  S   S159      1.0  0.54853  0.08523  0.30955  1.0000
  Fe  Fe76      1.0  0.60049  0.08130  0.21126  1.0000
  S   S160      1.0  0.62765  0.09752  0.21224  1.0000
  S   S161      1.0  0.55211  0.05646  0.20868  1.0000
  S   S162      1.0  0.59233  0.06077  0.16395  1.0000
  C   C1267     1.0  0.33721  0.16048  0.45362  1.0000
  C   C1268     1.0  0.39184  0.01074  0.42020  1.0000
  H   H1015     1.0  0.60570  0.02228  0.27825  1.0000
  C   C1269     1.0  0.48891  0.06495  0.32864  1.0000
  C   C1270     1.0  0.49639  0.06469  0.29094  1.0000
  C   C1271     1.0  0.51468  0.07087  0.28473  1.0000
  C   C1272     1.0  0.52542  0.07772  0.31606  1.0000
  C   C1273     1.0  0.51760  0.07873  0.35342  1.0000
  C   C1274     1.0  0.49948  0.07216  0.35980  1.0000
  H   H1016     1.0  0.48813  0.05961  0.26650  1.0000
  H   H1017     1.0  0.52038  0.07054  0.25568  1.0000
  H   H1018     1.0  0.52559  0.08454  0.37755  1.0000
  H   H1019     1.0  0.49368  0.07273  0.38880  1.0000
  C   C1275     1.0  0.48845  0.08173  0.09734  1.0000
  C   C1276     1.0  0.49939  0.08166  0.06382  1.0000
  C   C1277     1.0  0.51883  0.08374  0.06715  1.0000
  C   C1278     1.0  0.52750  0.08495  0.10407  1.0000
  C   C1279     1.0  0.51657  0.08503  0.13762  1.0000
  C   C1280     1.0  0.49700  0.08388  0.13417  1.0000
  C   C1281     1.0  0.33778  0.12293  0.48183  1.0000
  H   H1020     1.0  0.52716  0.08394  0.04109  1.0000
  H   H1021     1.0  0.52317  0.08626  0.16616  1.0000
  H   H1022     1.0  0.48853  0.08438  0.16012  1.0000
  C   C1282     1.0  0.31693  0.20634  0.19596  1.0000
  C   C1283     1.0  0.61009  0.00466  0.07940  1.0000
  C   C1284     1.0  0.53168  0.01550  0.10634  1.0000
  C   C1285     1.0  0.37217  0.11520  0.35265  1.0000
  C   C1286     1.0  0.39092  0.10848  0.35391  1.0000
  C   C1287     1.0  0.39717  0.09532  0.38259  1.0000
  C   C1288     1.0  0.38473  0.08893  0.41058  1.0000
  C   C1289     1.0  0.36598  0.09573  0.40948  1.0000
  C   C1290     1.0  0.35970  0.10884  0.38061  1.0000
  H   H1023     1.0  0.40068  0.11348  0.33259  1.0000
  H   H1024     1.0  0.41160  0.09010  0.38288  1.0000
  H   H1025     1.0  0.35628  0.09080  0.43094  1.0000
  H   H1026     1.0  0.34524  0.11399  0.38000  1.0000
  C   C1291     1.0  0.37705  0.17949  0.42803  1.0000
  C   C1292     1.0  0.61833  0.18318  0.01423  1.0000
  C   C1293     1.0  0.62042  0.03713  0.09152  1.0000
  C   C1294     1.0  0.38120  0.19872  0.35693  1.0000
  C   C1295     1.0  0.31455  0.21663  0.16116  1.0000
  C   C1296     1.0  0.61835  0.15340  0.20580  1.0000
  C   C1297     1.0  0.39792  0.13472  0.45972  1.0000
  H   H1027     1.0  0.49282  0.08019  0.03535  1.0000
  H   H1028     1.0  0.37642  0.24328  0.14600  1.0000
  C   C1298     1.0  0.32231  0.14716  0.12941  1.0000
  H   H1029     1.0  0.36641  0.12754  0.49819  1.0000
  P   P43       1.0  0.34173  0.18637  0.05225  1.0000
  H   H1030     1.0  0.61362  0.00676  0.34172  1.0000
  H   H1031     1.0  0.30891  0.12241  0.46228  1.0000
  H   H1032     1.0  0.61982  0.18500  0.49957  1.0000
  H   H1033     1.0  0.40196  0.00826  0.47962  1.0000
  C   C1299     1.0  0.56274  0.03809  0.09221  1.0000
  C   C1300     1.0  0.61323  0.16747  0.03640  1.0000
  H   H1034     1.0  0.57461  0.04699  0.08704  1.0000
  S   S163      1.0  0.47537  0.04633  0.45039  1.0000
  C   C1301     1.0  0.59969  0.00873  0.28540  1.0000
  C   C1302     1.0  0.39247  0.00287  0.38259  1.0000
  H   H1035     1.0  0.36717  0.18813  0.24690  1.0000
  C   C1303     1.0  0.60422  0.99990  0.32128  1.0000
  C   C1304     1.0  0.38986  0.16693  0.24495  1.0000
  C   C1305     1.0  0.61243  0.10081  0.49552  1.0000
  C   C1306     1.0  0.35392  0.13380  0.48464  1.0000
  C   C1307     1.0  0.43637  0.01178  0.23036  1.0000
  H   H1036     1.0  0.34655  0.17013  0.20206  1.0000
  C   C1308     1.0  0.62263  0.21981  0.11987  1.0000
  H   H1037     1.0  0.38697  0.12972  0.44026  1.0000
  H   H1038     1.0  0.37090  0.17302  0.32993  1.0000
  C   C1309     1.0  0.39470  0.12997  0.07080  1.0000
  C   C1310     1.0  0.40653  0.11549  0.05575  1.0000
  C   C1311     1.0  0.41462  0.10169  0.08071  1.0000
  C   C1312     1.0  0.41066  0.10213  0.12056  1.0000
  C   C1313     1.0  0.39859  0.11648  0.13601  1.0000
  C   C1314     1.0  0.39064  0.13044  0.11072  1.0000
  P   P44       1.0  0.39157  0.11532  0.18660  1.0000
  C   C1315     1.0  0.38436  0.13884  0.20450  1.0000
  C   C1316     1.0  0.37185  0.09967  0.18951  1.0000
  C   C1317     1.0  0.35864  0.10226  0.21929  1.0000
  C   C1318     1.0  0.34309  0.09058  0.22101  1.0000
  C   C1319     1.0  0.34073  0.07601  0.19339  1.0000
  C   C1320     1.0  0.35394  0.07312  0.16401  1.0000
  C   C1321     1.0  0.36942  0.08491  0.16200  1.0000
  C   C1322     1.0  0.39601  0.14917  0.22988  1.0000
  C   C1323     1.0  0.36654  0.14665  0.19436  1.0000
  C   C1324     1.0  0.41068  0.10580  0.21694  1.0000
  C   C1325     1.0  0.42945  0.10856  0.20677  1.0000
  C   C1326     1.0  0.44415  0.10065  0.22964  1.0000
  C   C1327     1.0  0.44027  0.09034  0.26332  1.0000
  C   C1328     1.0  0.42168  0.08806  0.27433  1.0000
  C   C1329     1.0  0.40693  0.09584  0.25139  1.0000
  H   H1039     1.0  0.38855  0.14067  0.05130  1.0000
  C   C1330     1.0  0.54463  0.03514  0.50244  1.0000
  H   H1040     1.0  0.42387  0.09050  0.06907  1.0000
  H   H1041     1.0  0.41690  0.09108  0.13911  1.0000
  H   H1042     1.0  0.38116  0.14157  0.12147  1.0000
  H   H1043     1.0  0.36029  0.11336  0.24117  1.0000
  H   H1044     1.0  0.33286  0.09286  0.24387  1.0000
  H   H1045     1.0  0.32862  0.06702  0.19475  1.0000
  H   H1046     1.0  0.35214  0.06182  0.14254  1.0000
  H   H1047     1.0  0.37933  0.08249  0.13875  1.0000
  H   H1048     1.0  0.40969  0.14343  0.23873  1.0000
  H   H1049     1.0  0.35720  0.13885  0.17539  1.0000
  H   H1050     1.0  0.43282  0.11674  0.18114  1.0000
  H   H1051     1.0  0.45860  0.10255  0.22136  1.0000
  H   H1052     1.0  0.45168  0.08435  0.28121  1.0000
  H   H1053     1.0  0.41878  0.08042  0.30098  1.0000
  H   H1054     1.0  0.39267  0.09431  0.26096  1.0000
  C   C1331     1.0  0.40420  0.04615  0.13019  1.0000
  S   S164      1.0  0.31085  0.13642  0.34903  1.0000
  C   C1332     1.0  0.32668  0.21439  0.22741  1.0000
  H   H1055     1.0  0.50472  0.02562  0.31733  1.0000
  H   H1056     1.0  0.55331  0.06582  0.39075  1.0000
  C   C1333     1.0  0.40928  0.04020  0.16797  1.0000
  C   C1334     1.0  0.52123  0.01879  0.36877  1.0000
  C   C1335     1.0  0.40157  0.03239  0.26438  1.0000
  C   C1336     1.0  0.32404  0.20716  0.39690  1.0000
  C   C1337     1.0  0.61890  0.21550  0.48977  1.0000
  C   C1338     1.0  0.35382  0.20360  0.08225  1.0000
  C   C1339     1.0  0.34220  0.12958  0.08421  1.0000
  C   C1340     1.0  0.62899  0.03121  0.12656  1.0000
  C   C1341     1.0  0.39929  0.04526  0.33036  1.0000
  C   C1342     1.0  0.38450  0.05757  0.31853  1.0000
  C   C1343     1.0  0.37814  0.05733  0.27983  1.0000
  C   C1344     1.0  0.38658  0.04483  0.25285  1.0000
  C   C1345     1.0  0.56429  0.02302  0.11878  1.0000
  C   C1346     1.0  0.56547  0.00305  0.44978  1.0000
  C   C1347     1.0  0.58784  0.99976  0.25851  1.0000
  H   H1057     1.0  0.31976  0.24282  0.13101  1.0000
  C   C1348     1.0  0.55238  0.02238  0.32124  1.0000
  H   H1058     1.0  0.32795  0.11667  0.13212  1.0000
  H   H1059     1.0  0.40849  0.05987  0.11945  1.0000
  H   H1060     1.0  0.30743  0.23491  0.48920  1.0000
  P   P45       1.0  0.41108  0.01483  0.23031  1.0000
  C   C1349     1.0  0.32567  0.16421  0.10965  1.0000
  H   H1061     1.0  0.41717  0.04970  0.18675  1.0000
  H   H1062     1.0  0.61096  0.24669  0.19931  1.0000
  C   C1350     1.0  0.41102  0.15907  0.50172  1.0000
  H   H1063     1.0  0.36728  0.15604  0.39195  1.0000
  C   C1351     1.0  0.42730  0.14755  0.50704  1.0000
  H   H1064     1.0  0.40406  0.04553  0.36052  1.0000
  H   H1065     1.0  0.37787  0.06722  0.33943  1.0000
  H   H1066     1.0  0.36659  0.06684  0.27088  1.0000
  H   H1067     1.0  0.38103  0.04472  0.22327  1.0000
  H   H1068     1.0  0.39152  0.22198  0.39190  1.0000
  H   H1069     1.0  0.61152  0.05272  0.37102  1.0000
  H   H1070     1.0  0.51383  0.07667  0.45822  1.0000
  H   H1071     1.0  0.34854  0.11615  0.07415  1.0000
  H   H1072     1.0  0.33670  0.17504  0.44268  1.0000
  C   C1352     1.0  0.62561  0.16263  0.17348  1.0000
  C   C1353     1.0  0.39453  0.00985  0.15607  1.0000
  H   H1073     1.0  0.62537  0.15429  0.23400  1.0000
  C   C1354     1.0  0.59391  0.14029  0.16464  1.0000
  C   C1355     1.0  0.60105  0.14953  0.13196  1.0000
  C   C1356     1.0  0.61714  0.16052  0.13666  1.0000
  P   P46       1.0  0.58950  0.14738  0.08471  1.0000
  C   C1357     1.0  0.59590  0.16765  0.05545  1.0000
  C   C1358     1.0  0.59568  0.12444  0.06252  1.0000
  S   S165      1.0  0.58263  0.01018  0.21268  1.0000
  C   C1359     1.0  0.56770  0.06543  0.40137  1.0000
  H   H1074     1.0  0.53246  0.02915  0.27511  1.0000
  C   C1360     1.0  0.59713  0.08962  0.06675  1.0000
  C   C1361     1.0  0.59343  0.10755  0.08384  1.0000
  C   C1362     1.0  0.58430  0.18431  0.05376  1.0000
  C   C1363     1.0  0.60663  0.19958  0.01237  1.0000
  H   H1075     1.0  0.38858  0.20496  0.45439  1.0000
  H   H1076     1.0  0.52528  0.99875  0.19050  1.0000
  C   C1364     1.0  0.37620  0.17949  0.01701  1.0000
  C   C1365     1.0  0.56443  0.14802  0.09243  1.0000
  C   C1366     1.0  0.55652  0.16002  0.12130  1.0000
  C   C1367     1.0  0.53730  0.15963  0.12887  1.0000
  H   H1077     1.0  0.38242  0.18326  0.04496  1.0000
  H   H1078     1.0  0.52054  0.04779  0.41909  1.0000
  C   C1368     1.0  0.53936  0.01626  0.38500  1.0000
  H   H1079     1.0  0.62376  0.08527  0.13131  1.0000
  H   H1080     1.0  0.61927  0.24599  0.48785  1.0000
  H   H1081     1.0  0.60433  0.02899  0.04122  1.0000
  H   H1082     1.0  0.58169  0.13155  0.16183  1.0000
  H   H1083     1.0  0.62347  0.16722  0.11205  1.0000
  C   C1369     1.0  0.59076  0.07167  0.45250  1.0000
  H   H1084     1.0  0.38257  0.20620  0.32951  1.0000
  C   C1370     1.0  0.32180  0.23497  0.15780  1.0000
  H   H1085     1.0  0.59519  0.07680  0.08362  1.0000
  H   H1086     1.0  0.58869  0.10811  0.11371  1.0000
  H   H1087     1.0  0.57116  0.18516  0.06907  1.0000
  H   H1088     1.0  0.32263  0.22436  0.06662  1.0000
  C   C1371     1.0  0.52585  0.14728  0.10771  1.0000
  C   C1372     1.0  0.55274  0.13589  0.07089  1.0000
  H   H1089     1.0  0.62303  0.15531  0.03928  1.0000
  H   H1090     1.0  0.56529  0.16937  0.13850  1.0000
  H   H1091     1.0  0.53136  0.16857  0.15179  1.0000
  H   H1092     1.0  0.59738  0.13443  0.22614  1.0000
  C   C1373     1.0  0.61844  0.22428  0.15861  1.0000
  H   H1093     1.0  0.63646  0.09820  0.06969  1.0000
  C   C1374     1.0  0.42875  0.12951  0.48928  1.0000
  H   H1094     1.0  0.40935  0.11482  0.02469  1.0000
  H   H1095     1.0  0.44133  0.12050  0.49350  1.0000
  S   S166      1.0  0.30771  0.18343  0.19887  1.0000
  C   C1375     1.0  0.58046  0.01558  0.44808  1.0000
  C   C1376     1.0  0.38624  0.20759  0.39209  1.0000
  C   C1377     1.0  0.41411  0.12320  0.46541  1.0000
  C   C1378     1.0  0.62295  0.23432  0.09186  1.0000
  C   C1379     1.0  0.38438  0.19795  0.42752  1.0000
  H   H1096     1.0  0.32854  0.20657  0.25437  1.0000
  H   H1097     1.0  0.31906  0.17749  0.11964  1.0000
  H   H1098     1.0  0.49057  0.00295  0.23143  1.0000
  H   H1099     1.0  0.35450  0.14592  0.03915  1.0000
  C   C1380     1.0  0.32135  0.13086  0.46502  1.0000
  C   C1381     1.0  0.37208  0.17453  0.23479  1.0000
  C   C1382     1.0  0.60102  0.12293  0.02319  1.0000
  C   C1383     1.0  0.54890  0.01157  0.12561  1.0000
  S   S167      1.0  0.31869  0.13642  0.25439  1.0000
  C   C1384     1.0  0.33524  0.22132  0.41359  1.0000
  C   C1385     1.0  0.58193  0.05879  0.37673  1.0000
  C   C1386     1.0  0.31888  0.19665  0.03858  1.0000
  C   C1387     1.0  0.56441  0.00365  0.01982  1.0000
  H   H1100     1.0  0.56911  0.01536  0.37189  1.0000
  H   H1101     1.0  0.51106  0.14655  0.11428  1.0000
  H   H1102     1.0  0.61006  0.10302  0.43228  1.0000
  H   H1103     1.0  0.39011  0.03882  0.07629  1.0000
  C   C1388     1.0  0.45897  0.03430  0.14160  1.0000
  C   C1389     1.0  0.47648  0.04003  0.15524  1.0000
  C   C1390     1.0  0.49272  0.02951  0.14529  1.0000
  C   C1391     1.0  0.61616  0.10873  0.45883  1.0000
  C   C1392     1.0  0.39392  0.03420  0.10570  1.0000
  C   C1393     1.0  0.36508  0.21497  0.14527  1.0000
  Fe  Fe77      1.0  0.45039  0.02998  0.46907  1.0000
  H   H1104     1.0  0.62113  0.05199  0.08274  1.0000
  H   H1105     1.0  0.55848  0.12623  0.04906  1.0000
  C   C1394     1.0  0.53432  0.02516  0.30552  1.0000
  H   H1106     1.0  0.57812  0.03005  0.43768  1.0000
  C   C1395     1.0  0.37242  0.17051  0.39252  1.0000
  C   C1396     1.0  0.45753  0.01754  0.11941  1.0000
  C   C1397     1.0  0.35390  0.15248  0.46963  1.0000
  H   H1107     1.0  0.32881  0.19952  0.37132  1.0000
  C   C1398     1.0  0.37449  0.18011  0.35716  1.0000
  C   C1399     1.0  0.54575  0.04193  0.07275  1.0000
  C   C1400     1.0  0.53017  0.03101  0.08036  1.0000
  C   C1401     1.0  0.62786  0.12440  0.45604  1.0000
  C   C1402     1.0  0.36822  0.23466  0.08785  1.0000
  H   H1108     1.0  0.35213  0.18801  0.13672  1.0000
  C   C1403     1.0  0.36045  0.16439  0.20945  1.0000
  C   C1404     1.0  0.31333  0.21535  0.05012  1.0000
  C   C1405     1.0  0.40206  0.00191  0.45067  1.0000
  P   P47       1.0  0.54202  0.01163  0.43677  1.0000
  H   H1109     1.0  0.44662  0.04304  0.14786  1.0000
  H   H1110     1.0  0.47747  0.05293  0.17271  1.0000
  H   H1111     1.0  0.50621  0.03448  0.15539  1.0000
  C   C1406     1.0  0.52652  0.04865  0.44816  1.0000
  P   P48       1.0  0.59717  0.08078  0.50027  1.0000
  C   C1407     1.0  0.36000  0.22047  0.06497  1.0000
  H   H1112     1.0  0.41534  0.10934  0.45121  1.0000
  C   C1408     1.0  0.52278  0.06521  0.47016  1.0000
  H   H1113     1.0  0.55071  0.99963  0.14537  1.0000
  H   H1114     1.0  0.60677  0.07446  0.01558  1.0000
  H   H1115     1.0  0.38378  0.02391  0.42566  1.0000
  C   C1409     1.0  0.33056  0.12985  0.11671  1.0000
  H   H1116     1.0  0.54458  0.05356  0.05206  1.0000
  H   H1117     1.0  0.51704  0.03444  0.06521  1.0000
  H   H1118     1.0  0.36667  0.21308  0.17655  1.0000
  H   H1119     1.0  0.62587  0.20510  0.11170  1.0000
  H   H1120     1.0  0.61884  0.21307  0.18047  1.0000
  H   H1121     1.0  0.39878  0.17463  0.26511  1.0000
  C   C1410     1.0  0.51874  0.02317  0.32922  1.0000
  C   C1411     1.0  0.32925  0.23152  0.44673  1.0000
  C   C1412     1.0  0.60344  0.08834  0.02841  1.0000
  H   H1122     1.0  0.35787  0.22295  0.03394  1.0000
  Fe  Fe78      1.0  0.46149  0.07080  0.48280  1.0000
  C   C1413     1.0  0.53355  0.13550  0.07861  1.0000
  H   H1123     1.0  0.50900  0.01797  0.38700  1.0000
  H   H1124     1.0  0.61772  0.21402  0.45831  1.0000
  H   H1125     1.0  0.44392  0.01302  0.10910  1.0000
  H   H1126     1.0  0.61945  0.06384  0.43784  1.0000
  C   C1414     1.0  0.61094  0.02397  0.06807  1.0000
  C   C1415     1.0  0.35669  0.20080  0.12252  1.0000
  H   H1127     1.0  0.52475  0.12558  0.06291  1.0000
  Fe  Fe79      1.0  0.45498  0.06566  0.03684  1.0000
  C   C1416     1.0  0.33763  0.16417  0.07751  1.0000
  C   C1417     1.0  0.60052  0.05798  0.39019  1.0000
  H   H1128     1.0  0.58099  0.21323  0.03193  1.0000
  H   H1129     1.0  0.38464  0.00978  0.35893  1.0000
  H   H1130     1.0  0.57848  0.05437  0.34713  1.0000
  C   C1418     1.0  0.60493  0.06429  0.42800  1.0000
  H   H1131     1.0  0.61013  0.01906  0.45711  1.0000
  H   H1132     1.0  0.44219  0.03458  0.27193  1.0000
  C   C1419     1.0  0.60256  0.14219  0.20134  1.0000
  C   C1420     1.0  0.57203  0.07177  0.43920  1.0000
  C   C1421     1.0  0.55496  0.01769  0.36071  1.0000
  H   H1133     1.0  0.34149  0.23901  0.24836  1.0000
  C   C1422     1.0  0.33398  0.23276  0.22397  1.0000
  H   H1134     1.0  0.63506  0.00749  0.16511  1.0000
  H   H1135     1.0  0.51640  0.00776  0.50329  1.0000
  C   C1423     1.0  0.39589  0.15240  0.47919  1.0000
  H   H1136     1.0  0.56439  0.02413  0.30281  1.0000
  H   H1137     1.0  0.38133  0.00674  0.09933  1.0000
  C   C1424     1.0  0.53763  0.03352  0.46400  1.0000
  H   H1138     1.0  0.57752  0.02019  0.13392  1.0000
  C   C1425     1.0  0.37062  0.23199  0.12806  1.0000
  Fe  Fe80      1.0  0.31048  0.16766  0.25569  1.0000
  C   C1426     1.0  0.38902  0.01612  0.11870  1.0000
  H   H1139     1.0  0.63831  0.17074  0.17660  1.0000
  C   C1427     1.0  0.49144  0.01303  0.12186  1.0000
  H   H1140     1.0  0.56073  0.07674  0.45761  1.0000
  C   C1428     1.0  0.59857  0.00944  0.45949  1.0000
  H   H1141     1.0  0.56687  0.10889  0.48313  1.0000
  C   C1429     1.0  0.34567  0.14664  0.06455  1.0000
  C   C1430     1.0  0.47370  0.00671  0.11017  1.0000
  H   H1142     1.0  0.33811  0.10828  0.49218  1.0000
  C   C1431     1.0  0.63563  0.13246  0.48976  1.0000
  H   H1143     1.0  0.47615  0.02827  0.27344  1.0000
  C   C1432     1.0  0.31208  0.22730  0.46341  1.0000
  C   C1433     1.0  0.40437  0.02205  0.18130  1.0000
  H   H1144     1.0  0.41871  0.02263  0.31377  1.0000
  C   C1434     1.0  0.44794  0.02311  0.25397  1.0000
  C   C1435     1.0  0.58977  0.20028  0.03262  1.0000
  C   C1436     1.0  0.46739  0.01974  0.25456  1.0000
  C   C1437     1.0  0.47549  0.00542  0.23101  1.0000
  S   S168      1.0  0.43752  0.05391  0.50444  1.0000
  H   H1145     1.0  0.48979  0.01207  0.03981  1.0000
  C   C1438     1.0  0.63252  0.09761  0.13213  1.0000
  H   H1146     1.0  0.31334  0.14745  0.15475  1.0000
  H   H1147     1.0  0.56222  0.08118  0.02694  1.0000
  H   H1148     1.0  0.63094  0.13032  0.42771  1.0000
  H   H1149     1.0  0.30825  0.15589  0.43862  1.0000
  H   H1150     1.0  0.62658  0.23060  0.06204  1.0000
  H   H1151     1.0  0.55820  0.99913  0.04673  1.0000
  H   H1152     1.0  0.57644  0.23584  0.46708  1.0000
  C   C1439     1.0  0.63690  0.10611  0.16803  1.0000
  C   C1440     1.0  0.61400  0.24323  0.16918  1.0000
  H   H1153     1.0  0.37210  0.00365  0.23361  1.0000
  H   H1154     1.0  0.41908  0.00148  0.04581  1.0000
  P   P49       1.0  0.51233  0.99950  0.10878  1.0000
  C   C1441     1.0  0.36036  0.20022  0.50929  1.0000
  C   C1442     1.0  0.61934  0.99874  0.11404  1.0000
  C   C1443     1.0  0.33140  0.24314  0.18925  1.0000
  S   S169      1.0  0.45771  0.99989  0.48915  1.0000
  C   C1444     1.0  0.53016  0.06684  0.50795  1.0000
  H   H1155     1.0  0.63603  0.04153  0.14505  1.0000
  C   C1445     1.0  0.62845  0.01202  0.13782  1.0000
  C   C1446     1.0  0.62014  0.23369  0.50679  1.0000
  C   C1447     1.0  0.49970  0.00084  0.03118  1.0000
  H   H1156     1.0  0.63659  0.24755  0.30574  1.0000
  H   H1157     1.0  0.37238  0.24789  0.07440  1.0000
  C   C1448     1.0  0.58357  0.00013  0.01304  1.0000
  S   S170      1.0  0.35035  0.19899  0.73638  1.0000
  Fe  Fe81      1.0  0.34849  0.15233  0.84298  1.0000
  S   S171      1.0  0.37494  0.13442  0.85452  1.0000
  H   H1158     1.0  0.36010  0.22560  0.67767  1.0000
  S   S172      1.0  0.35205  0.18416  0.84320  1.0000
  H   H1159     1.0  0.54069  0.12213  0.52253  1.0000
  C   C1449     1.0  0.48854  0.00697  0.84448  1.0000
  H   H1160     1.0  0.55172  0.02501  0.93369  1.0000
  C   C1450     1.0  0.62118  0.18404  0.70319  1.0000
  S   S173      1.0  0.43148  0.04180  0.94724  1.0000
  C   C1451     1.0  0.63763  0.11675  0.83546  1.0000
  C   C1452     1.0  0.55303  0.01291  0.99158  1.0000
  H   H1161     1.0  0.30962  0.17081  0.01041  1.0000
  Fe  Fe82      1.0  0.45565  0.06169  0.94812  1.0000
  S   S174      1.0  0.46541  0.07083  0.88879  1.0000
  H   H1162     1.0  0.37774  0.18563  0.61315  1.0000
  H   H1163     1.0  0.59896  0.24230  0.93985  1.0000
  Fe  Fe83      1.0  0.54779  0.04420  0.67784  1.0000
  S   S175      1.0  0.54791  0.07161  0.71261  1.0000
  S   S176      1.0  0.52761  0.03335  0.63238  1.0000
  Fe  Fe84      1.0  0.58248  0.02762  0.71863  1.0000
  S   S177      1.0  0.58633  0.05399  0.75532  1.0000
  C   C1453     1.0  0.62064  0.11602  0.77365  1.0000
  Fe  Fe85      1.0  0.55525  0.05292  0.76454  1.0000
  S   S178      1.0  0.54781  0.05407  0.82866  1.0000
  Fe  Fe86      1.0  0.57899  0.07048  0.70076  1.0000
  S   S179      1.0  0.59163  0.09912  0.68725  1.0000
  S   S180      1.0  0.55195  0.02572  0.73075  1.0000
  S   S181      1.0  0.57830  0.04412  0.66264  1.0000
  H   H1164     1.0  0.58712  0.16118  0.96651  1.0000
  H   H1165     1.0  0.60602  0.00405  0.97200  1.0000
  H   H1166     1.0  0.58219  0.01805  0.79437  1.0000
  C   C1454     1.0  0.48805  0.06460  0.87222  1.0000
  C   C1455     1.0  0.49179  0.06595  0.83218  1.0000
  C   C1456     1.0  0.50991  0.06187  0.81813  1.0000
  C   C1457     1.0  0.52449  0.05697  0.84429  1.0000
  C   C1458     1.0  0.52072  0.05551  0.88430  1.0000
  C   C1459     1.0  0.50250  0.05909  0.89822  1.0000
  H   H1167     1.0  0.48067  0.07034  0.81201  1.0000
  H   H1168     1.0  0.51271  0.06307  0.78727  1.0000
  H   H1169     1.0  0.53197  0.05182  0.90467  1.0000
  H   H1170     1.0  0.49976  0.05817  0.92912  1.0000
  C   C1460     1.0  0.49040  0.07382  0.55802  1.0000
  C   C1461     1.0  0.48952  0.05393  0.55393  1.0000
  C   C1462     1.0  0.50099  0.04178  0.57707  1.0000
  C   C1463     1.0  0.51320  0.04938  0.60509  1.0000
  C   C1464     1.0  0.51378  0.06928  0.61024  1.0000
  C   C1465     1.0  0.50233  0.08151  0.58669  1.0000
  H   H1171     1.0  0.32227  0.13736  0.96575  1.0000
  H   H1172     1.0  0.50045  0.02641  0.57301  1.0000
  H   H1173     1.0  0.52313  0.07521  0.63197  1.0000
  H   H1174     1.0  0.50297  0.09690  0.59011  1.0000
  H   H1175     1.0  0.51141  0.01418  0.88311  1.0000
  Fe  Fe87      1.0  0.30765  0.15651  0.81527  1.0000
  H   H1176     1.0  0.62599  0.22007  0.60190  1.0000
  C   C1466     1.0  0.37827  0.11813  0.89345  1.0000
  C   C1467     1.0  0.39496  0.10697  0.89502  1.0000
  C   C1468     1.0  0.39826  0.09366  0.92512  1.0000
  C   C1469     1.0  0.38491  0.09141  0.95410  1.0000
  C   C1470     1.0  0.36825  0.10274  0.95294  1.0000
  C   C1471     1.0  0.36492  0.11610  0.92262  1.0000
  H   H1177     1.0  0.40535  0.10850  0.87260  1.0000
  H   H1178     1.0  0.41109  0.08496  0.92555  1.0000
  H   H1179     1.0  0.35795  0.10112  0.97544  1.0000
  H   H1180     1.0  0.35211  0.12479  0.92167  1.0000
  H   H1181     1.0  0.33416  0.17632  0.96893  1.0000
  C   C1472     1.0  0.34628  0.22199  0.93263  1.0000
  C   C1473     1.0  0.57760  0.08987  0.52858  1.0000
  H   H1182     1.0  0.35302  0.21062  0.91590  1.0000
  C   C1474     1.0  0.34524  0.22752  0.68297  1.0000
  C   C1475     1.0  0.50500  0.00292  0.86609  1.0000
  H   H1183     1.0  0.59831  0.01715  0.56218  1.0000
  S   S182      1.0  0.33470  0.15164  0.78348  1.0000
  C   C1476     1.0  0.33464  0.24148  0.66224  1.0000
  H   H1184     1.0  0.38177  0.21167  0.84750  1.0000
  C   C1477     1.0  0.62009  0.19910  0.51304  1.0000
  H   H1185     1.0  0.37207  0.23633  0.94568  1.0000
  C   C1478     1.0  0.49427  0.01151  0.69823  1.0000
  C   C1479     1.0  0.63714  0.12070  0.63527  1.0000
  H   H1186     1.0  0.45328  0.03086  0.66205  1.0000
  H   H1187     1.0  0.54612  0.05286  0.55410  1.0000
  S   S183      1.0  0.59808  0.99931  0.72676  1.0000
  H   H1188     1.0  0.58347  0.04435  0.52631  1.0000
  C   C1480     1.0  0.62784  0.06089  0.53517  1.0000
  C   C1481     1.0  0.44618  0.01731  0.81133  1.0000
  H   H1189     1.0  0.33086  0.16911  0.67472  1.0000
  H   H1190     1.0  0.62574  0.10062  0.88212  1.0000
  H   H1191     1.0  0.63857  0.24692  0.92873  1.0000
  C   C1482     1.0  0.57978  0.01537  0.94954  1.0000
  H   H1192     1.0  0.53082  0.18471  0.95905  1.0000
  H   H1193     1.0  0.44220  0.06616  0.81517  1.0000
  H   H1194     1.0  0.61653  0.07039  0.65083  1.0000
  C   C1483     1.0  0.62289  0.23559  0.54737  1.0000
  H   H1195     1.0  0.30880  0.12747  0.56472  1.0000
  H   H1196     1.0  0.59600  0.09889  0.77217  1.0000
  C   C1484     1.0  0.48790  0.00433  0.73354  1.0000
  H   H1197     1.0  0.63933  0.23903  0.67127  1.0000
  C   C1485     1.0  0.56953  0.06659  0.97341  1.0000
  S   S184      1.0  0.31290  0.20370  0.91990  1.0000
  C   C1486     1.0  0.36084  0.16834  0.94534  1.0000
  C   C1487     1.0  0.33152  0.09826  0.65546  1.0000
  H   H1198     1.0  0.35612  0.23284  0.82205  1.0000
  C   C1488     1.0  0.30993  0.13009  0.95536  1.0000
  H   H1199     1.0  0.62081  0.16175  0.79128  1.0000
  C   C1489     1.0  0.31695  0.08623  0.66507  1.0000
  H   H1200     1.0  0.36073  0.21676  0.60298  1.0000
  C   C1490     1.0  0.32810  0.11811  0.65136  1.0000
  C   C1491     1.0  0.62561  0.02958  0.56501  1.0000
  P   P50       1.0  0.34712  0.13370  0.63995  1.0000
  C   C1492     1.0  0.36055  0.13845  0.68411  1.0000
  C   C1493     1.0  0.36280  0.12228  0.60505  1.0000
  C   C1494     1.0  0.38170  0.12739  0.60385  1.0000
  C   C1495     1.0  0.39399  0.11838  0.57750  1.0000
  C   C1496     1.0  0.38759  0.10406  0.55241  1.0000
  C   C1497     1.0  0.36880  0.09897  0.55319  1.0000
  C   C1498     1.0  0.35635  0.10826  0.57887  1.0000
  C   C1499     1.0  0.36910  0.15616  0.68962  1.0000
  C   C1500     1.0  0.37982  0.15961  0.72332  1.0000
  C   C1501     1.0  0.38225  0.14540  0.75169  1.0000
  C   C1502     1.0  0.37404  0.12766  0.74629  1.0000
  C   C1503     1.0  0.36325  0.12416  0.71267  1.0000
  C   C1504     1.0  0.33722  0.15563  0.61893  1.0000
  C   C1505     1.0  0.33009  0.17039  0.64314  1.0000
  C   C1506     1.0  0.61280  0.10070  0.66144  1.0000
  H   H1201     1.0  0.49252  0.00424  0.97027  1.0000
  C   C1507     1.0  0.32719  0.17425  0.56196  1.0000
  C   C1508     1.0  0.33565  0.15769  0.57818  1.0000
  C   C1509     1.0  0.31162  0.11128  0.94137  1.0000
  C   C1510     1.0  0.54104  0.05182  0.52417  1.0000
  S   S185      1.0  0.32120  0.15411  0.87460  1.0000
  C   C1511     1.0  0.63153  0.12502  0.52634  1.0000
  H   H1202     1.0  0.34550  0.09205  0.65166  1.0000
  H   H1203     1.0  0.38704  0.13824  0.62343  1.0000
  S   S186      1.0  0.30826  0.18857  0.81226  1.0000
  H   H1204     1.0  0.57571  0.00666  0.86053  1.0000
  H   H1205     1.0  0.34178  0.10435  0.57840  1.0000
  H   H1206     1.0  0.36731  0.16750  0.66838  1.0000
  H   H1207     1.0  0.38580  0.17355  0.72803  1.0000
  H   H1208     1.0  0.39015  0.14824  0.77831  1.0000
  H   H1209     1.0  0.37569  0.11682  0.76882  1.0000
  H   H1210     1.0  0.35697  0.11035  0.70950  1.0000
  C   C1512     1.0  0.32170  0.18694  0.62677  1.0000
  S   S187      1.0  0.44168  0.08306  0.98848  1.0000
  C   C1513     1.0  0.60868  0.06079  0.52504  1.0000
  C   C1514     1.0  0.60661  0.02927  0.55441  1.0000
  H   H1211     1.0  0.34085  0.14654  0.55883  1.0000
  C   C1515     1.0  0.43091  0.01308  0.83497  1.0000
  P   P51       1.0  0.46054  0.99836  0.78976  1.0000
  C   C1516     1.0  0.56106  0.09228  0.59018  1.0000
  H   H1212     1.0  0.59906  0.08920  0.84148  1.0000
  C   C1517     1.0  0.61560  0.17952  0.74094  1.0000
  C   C1518     1.0  0.32028  0.18891  0.58624  1.0000
  C   C1519     1.0  0.34907  0.17542  0.97475  1.0000
  C   C1520     1.0  0.31754  0.21871  0.71782  1.0000
  H   H1213     1.0  0.38322  0.16357  0.55752  1.0000
  C   C1521     1.0  0.56063  0.01843  0.95614  1.0000
  H   H1214     1.0  0.40810  0.22512  0.88560  1.0000
  H   H1215     1.0  0.48675  0.02642  0.64516  1.0000
  H   H1216     1.0  0.50892  0.00976  0.69056  1.0000
  C   C1522     1.0  0.33672  0.21626  0.71102  1.0000
  C   C1523     1.0  0.59125  0.00647  0.97799  1.0000
  C   C1524     1.0  0.61990  0.10933  0.52930  1.0000
  H   H1217     1.0  0.52696  0.07955  0.52504  1.0000
  H   H1218     1.0  0.31395  0.20185  0.57368  1.0000
  H   H1219     1.0  0.61906  0.12000  0.74316  1.0000
  C   C1525     1.0  0.31551  0.24416  0.66948  1.0000
  H   H1220     1.0  0.34930  0.22595  0.53677  1.0000
  H   H1221     1.0  0.58570  0.01943  0.92192  1.0000
  H   H1222     1.0  0.55974  0.08806  0.62047  1.0000
  H   H1223     1.0  0.48015  0.04780  0.53260  1.0000
  C   C1526     1.0  0.32688  0.22199  0.93843  1.0000
  C   C1527     1.0  0.55047  0.11160  0.53512  1.0000
  C   C1528     1.0  0.62370  0.21899  0.57060  1.0000
  C   C1529     1.0  0.62220  0.08442  0.64655  1.0000
  C   C1530     1.0  0.37303  0.18971  0.58407  1.0000
  H   H1224     1.0  0.31972  0.07096  0.66846  1.0000
  H   H1225     1.0  0.32607  0.17583  0.53052  1.0000
  C   C1531     1.0  0.46890  0.00674  0.74346  1.0000
  C   C1532     1.0  0.60926  0.09859  0.82910  1.0000
  H   H1226     1.0  0.40813  0.02459  0.86960  1.0000
  Fe  Fe88      1.0  0.41867  0.06210  0.99117  1.0000
  H   H1227     1.0  0.42765  0.99843  0.84153  1.0000
  C   C1533     1.0  0.63598  0.12224  0.79606  1.0000
  C   C1534     1.0  0.59822  0.04473  0.53421  1.0000
  H   H1228     1.0  0.36396  0.08787  0.53348  1.0000
  Fe  Fe89      1.0  0.33665  0.18367  0.78572  1.0000
  C   C1535     1.0  0.42365  0.04700  0.84336  1.0000
  C   C1536     1.0  0.41970  0.02789  0.85085  1.0000
  H   H1229     1.0  0.53824  0.01555  0.99695  1.0000
  C   C1537     1.0  0.63647  0.17419  0.68665  1.0000
  H   H1230     1.0  0.35498  0.16371  0.91772  1.0000
  C   C1538     1.0  0.38792  0.17264  0.98729  1.0000
  C   C1539     1.0  0.62535  0.16519  0.76214  1.0000
  C   C1540     1.0  0.56492  0.12648  0.80641  1.0000
  C   C1541     1.0  0.55461  0.11493  0.78106  1.0000
  C   C1542     1.0  0.53953  0.10483  0.79519  1.0000
  C   C1543     1.0  0.53484  0.10613  0.83461  1.0000
  C   C1544     1.0  0.54508  0.11771  0.86029  1.0000
  C   C1545     1.0  0.56029  0.12778  0.84596  1.0000
  P   P52       1.0  0.53968  0.11789  0.91174  1.0000
  C   C1546     1.0  0.51455  0.11625  0.91705  1.0000
  C   C1547     1.0  0.55187  0.09804  0.93562  1.0000
  C   C1548     1.0  0.55301  0.09740  0.97655  1.0000
  C   C1549     1.0  0.35703  0.23654  0.94946  1.0000
  C   C1550     1.0  0.62428  0.10499  0.85187  1.0000
  C   C1551     1.0  0.56885  0.06734  0.93262  1.0000
  C   C1552     1.0  0.56005  0.08299  0.91378  1.0000
  C   C1553     1.0  0.50231  0.12612  0.89098  1.0000
  C   C1554     1.0  0.48287  0.12500  0.89476  1.0000
  C   C1555     1.0  0.47550  0.11414  0.92471  1.0000
  C   C1556     1.0  0.48754  0.10430  0.95076  1.0000
  C   C1557     1.0  0.50698  0.10525  0.94693  1.0000
  C   C1558     1.0  0.54727  0.13998  0.93378  1.0000
  C   C1559     1.0  0.53453  0.15547  0.93949  1.0000
  C   C1560     1.0  0.54072  0.17280  0.95488  1.0000
  C   C1561     1.0  0.55966  0.17485  0.96442  1.0000
  C   C1562     1.0  0.57241  0.15947  0.95929  1.0000
  C   C1563     1.0  0.56624  0.14202  0.94434  1.0000
  H   H1231     1.0  0.57671  0.13416  0.79541  1.0000
  H   H1232     1.0  0.55845  0.11359  0.75056  1.0000
  H   H1233     1.0  0.53164  0.09563  0.77587  1.0000
  H   H1234     1.0  0.52342  0.09779  0.84516  1.0000
  H   H1235     1.0  0.56871  0.13649  0.86511  1.0000
  C   C1564     1.0  0.46289  0.02344  0.68210  1.0000
  C   C1565     1.0  0.62037  0.11882  0.65582  1.0000
  H   H1236     1.0  0.62347  0.18808  0.57137  1.0000
  H   H1237     1.0  0.57478  0.05567  0.91528  1.0000
  H   H1238     1.0  0.55941  0.08305  0.88219  1.0000
  H   H1239     1.0  0.50777  0.13455  0.86747  1.0000
  H   H1240     1.0  0.47347  0.13220  0.87402  1.0000
  C   C1566     1.0  0.54836  0.10571  0.57376  1.0000
  H   H1241     1.0  0.46044  0.11274  0.92690  1.0000
  H   H1242     1.0  0.51585  0.09707  0.96697  1.0000
  H   H1243     1.0  0.51982  0.15435  0.93194  1.0000
  H   H1244     1.0  0.60367  0.18708  0.75369  1.0000
  H   H1245     1.0  0.57612  0.05434  0.98808  1.0000
  H   H1246     1.0  0.57631  0.13024  0.94027  1.0000
  H   H1247     1.0  0.39716  0.09692  0.53222  1.0000
  C   C1567     1.0  0.45016  0.03659  0.80432  1.0000
  Fe  Fe90      1.0  0.44634  0.02762  0.99831  1.0000
  C   C1568     1.0  0.57571  0.08449  0.56787  1.0000
  C   C1569     1.0  0.62231  0.20085  0.55348  1.0000
  H   H1248     1.0  0.40860  0.12227  0.57684  1.0000
  C   C1570     1.0  0.48177  0.02099  0.67253  1.0000
  H   H1249     1.0  0.55256  0.02338  0.51595  1.0000
  H   H1250     1.0  0.48176  0.09542  0.97319  1.0000
  H   H1251     1.0  0.46217  0.04030  0.78722  1.0000
  H   H1252     1.0  0.41528  0.05850  0.85648  1.0000
  H   H1253     1.0  0.56446  0.18842  0.97553  1.0000
  C   C1571     1.0  0.36750  0.23903  0.83876  1.0000
  H   H1254     1.0  0.41035  0.17316  0.51505  1.0000
  C   C1572     1.0  0.60749  0.10408  0.79002  1.0000
  C   C1573     1.0  0.37629  0.17737  0.55237  1.0000
  S   S188      1.0  0.38898  0.07446  0.99165  1.0000
  C   C1574     1.0  0.56165  0.08166  0.99531  1.0000
  Fe  Fe91      1.0  0.32359  0.18593  0.86974  1.0000
  H   H1255     1.0  0.58568  0.07462  0.58188  1.0000
  C   C1575     1.0  0.38021  0.16692  0.95153  1.0000
  C   C1576     1.0  0.58554  0.00332  0.80180  1.0000
  H   H1256     1.0  0.38915  0.16120  0.92858  1.0000
  H   H1257     1.0  0.60984  0.10400  0.97657  1.0000
  C   C1577     1.0  0.43881  0.05132  0.81994  1.0000
  H   H1258     1.0  0.42461  0.00926  0.53622  1.0000
  C   C1578     1.0  0.38204  0.22696  0.85304  1.0000
  H   H1259     1.0  0.61322  0.13147  0.66740  1.0000
  H   H1260     1.0  0.61365  0.19512  0.68670  1.0000
  C   C1579     1.0  0.45648  0.01646  0.71754  1.0000
  C   C1580     1.0  0.35701  0.21246  0.54107  1.0000
  C   C1581     1.0  0.36346  0.20728  0.57839  1.0000
  C   C1582     1.0  0.30993  0.12573  0.65805  1.0000
  H   H1261     1.0  0.53697  0.11162  0.59111  1.0000
  S   S189      1.0  0.47751  0.08893  0.52565  1.0000
  H   H1262     1.0  0.61686  0.10377  0.55796  1.0000
  H   H1263     1.0  0.44183  0.01872  0.72482  1.0000
  C   C1583     1.0  0.31825  0.23684  0.95984  1.0000
  H   H1264     1.0  0.54677  0.10884  0.99396  1.0000
  H   H1265     1.0  0.32524  0.10392  0.94095  1.0000
  C   C1584     1.0  0.39697  0.23456  0.87428  1.0000
  H   H1266     1.0  0.48249  0.02141  0.84523  1.0000
  H   H1267     1.0  0.40296  0.17145  0.99214  1.0000
  H   H1268     1.0  0.31083  0.20987  0.73898  1.0000
  S   S190      1.0  0.47151  0.04630  0.99641  1.0000
  C   C1585     1.0  0.63624  0.04531  0.55511  1.0000
  H   H1269     1.0  0.63636  0.07295  0.52813  1.0000
  H   H1270     1.0  0.63206  0.01771  0.58112  1.0000
  C   C1586     1.0  0.37047  0.18280  0.51449  1.0000
  H   H1271     1.0  0.43888  0.15262  0.52475  1.0000
  C   C1587     1.0  0.35663  0.18097  0.01102  1.0000
  H   H1272     1.0  0.63754  0.13125  0.55247  1.0000
  C   C1588     1.0  0.56516  0.10388  0.51274  1.0000
  H   H1273     1.0  0.31632  0.19830  0.64557  1.0000
  C   C1589     1.0  0.63898  0.08632  0.62594  1.0000
  H   H1274     1.0  0.58902  0.24384  0.58458  1.0000
  H   H1275     1.0  0.56796  0.24594  0.64112  1.0000
  H   H1276     1.0  0.63169  0.18284  0.99942  1.0000
  H   H1277     1.0  0.61088  0.21187  0.99585  1.0000
  C   C1590     1.0  0.30693  0.23254  0.69680  1.0000
  H   H1278     1.0  0.56487  0.24527  0.95388  1.0000
  C   C1591     1.0  0.60519  0.10499  0.00649  1.0000
  H   H1279     1.0  0.60199  0.13543  0.00513  1.0000
  Fe  Fe92      1.0  0.34510  0.31990  0.09314  1.0000
  S   S191      1.0  0.35748  0.34886  0.10527  1.0000
  C   C1592     1.0  0.49703  0.44497  0.36240  1.0000
  H   H1280     1.0  0.37962  0.38019  0.13281  1.0000
  S   S192      1.0  0.36119  0.29190  0.09795  1.0000
  Fe  Fe93      1.0  0.47554  0.40433  0.22832  1.0000
  S   S193      1.0  0.47256  0.37575  0.25686  1.0000
  S   S194      1.0  0.49936  0.41559  0.19403  1.0000
  Fe  Fe94      1.0  0.43939  0.42082  0.26042  1.0000
  S   S195      1.0  0.43267  0.39382  0.29241  1.0000
  S   S196      1.0  0.42355  0.44920  0.25537  1.0000
  Fe  Fe95      1.0  0.46331  0.39268  0.30922  1.0000
  S   S197      1.0  0.47333  0.38395  0.36954  1.0000
  Fe  Fe96      1.0  0.44222  0.37859  0.23781  1.0000
  S   S198      1.0  0.42911  0.35105  0.21778  1.0000
  S   S199      1.0  0.46904  0.42108  0.28257  1.0000
  S   S200      1.0  0.44620  0.40567  0.20406  1.0000
  H   H1281     1.0  0.40763  0.38150  0.17702  1.0000
  S   S201      1.0  0.58974  0.38106  0.05025  1.0000
  H   H1282     1.0  0.35216  0.26740  0.39295  1.0000
  Fe  Fe97      1.0  0.57130  0.40323  0.46038  1.0000
  H   H1283     1.0  0.50478  0.48844  0.16424  1.0000
  S   S202      1.0  0.55870  0.40256  0.39956  1.0000
  C   C1593     1.0  0.52612  0.29798  0.30691  1.0000
  S   S203      1.0  0.54510  0.35745  0.08854  1.0000
  H   H1284     1.0  0.37700  0.34552  0.03073  1.0000
  H   H1285     1.0  0.63445  0.29465  0.12841  1.0000
  C   C1594     1.0  0.60151  0.26393  0.02920  1.0000
  S   S204      1.0  0.60232  0.40741  0.45838  1.0000
  C   C1595     1.0  0.56246  0.45727  0.14147  1.0000
  C   C1596     1.0  0.56964  0.44578  0.11086  1.0000
  C   C1597     1.0  0.58546  0.45146  0.09069  1.0000
  C   C1598     1.0  0.59385  0.46872  0.10110  1.0000
  H   H1286     1.0  0.37488  0.35397  0.39038  1.0000
  H   H1287     1.0  0.55057  0.45261  0.15774  1.0000
  H   H1288     1.0  0.56310  0.43247  0.10322  1.0000
  H   H1289     1.0  0.60624  0.47303  0.08600  1.0000
  C   C1599     1.0  0.49713  0.38873  0.37804  1.0000
  C   C1600     1.0  0.50810  0.39545  0.34784  1.0000
  C   C1601     1.0  0.52698  0.39957  0.35492  1.0000
  C   C1602     1.0  0.53494  0.39730  0.39234  1.0000
  C   C1603     1.0  0.52400  0.39062  0.42271  1.0000
  C   C1604     1.0  0.50512  0.38622  0.41548  1.0000
  H   H1290     1.0  0.50207  0.39745  0.31890  1.0000
  H   H1291     1.0  0.53538  0.40457  0.33124  1.0000
  H   H1292     1.0  0.53007  0.38882  0.45168  1.0000
  H   H1293     1.0  0.49664  0.38109  0.43897  1.0000
  C   C1605     1.0  0.51255  0.39871  0.16736  1.0000
  C   C1606     1.0  0.50739  0.37956  0.16475  1.0000
  C   C1607     1.0  0.51803  0.36650  0.14214  1.0000
  C   C1608     1.0  0.53344  0.37280  0.12137  1.0000
  C   C1609     1.0  0.53877  0.39182  0.12477  1.0000
  C   C1610     1.0  0.52839  0.40474  0.14783  1.0000
  H   H1294     1.0  0.49501  0.37493  0.17948  1.0000
  H   H1295     1.0  0.51384  0.35178  0.13939  1.0000
  H   H1296     1.0  0.55091  0.39662  0.10954  1.0000
  H   H1297     1.0  0.53251  0.41948  0.15008  1.0000
  C   C1611     1.0  0.40747  0.46746  0.36257  1.0000
  C   C1612     1.0  0.41107  0.45563  0.32999  1.0000
  C   C1613     1.0  0.42193  0.46222  0.29939  1.0000
  C   C1614     1.0  0.42969  0.48039  0.30212  1.0000
  H   H1298     1.0  0.40488  0.44169  0.32784  1.0000
  H   H1299     1.0  0.59166  0.30254  0.03865  1.0000
  C   C1615     1.0  0.32319  0.27784  0.33697  1.0000
  C   C1616     1.0  0.37718  0.34955  0.13719  1.0000
  C   C1617     1.0  0.38475  0.33278  0.15415  1.0000
  C   C1618     1.0  0.40059  0.33353  0.17894  1.0000
  C   C1619     1.0  0.40897  0.35105  0.18718  1.0000
  C   C1620     1.0  0.40129  0.36792  0.17071  1.0000
  C   C1621     1.0  0.38545  0.36714  0.14568  1.0000
  H   H1300     1.0  0.37847  0.31920  0.14814  1.0000
  H   H1301     1.0  0.40643  0.32044  0.19165  1.0000
  C   C1622     1.0  0.62938  0.38042  0.32065  1.0000
  C   C1623     1.0  0.47660  0.46877  0.25063  1.0000
  H   H1302     1.0  0.45922  0.39632  0.44685  1.0000
  C   C1624     1.0  0.60945  0.26174  0.29970  1.0000
  S   S205      1.0  0.62648  0.36038  0.50428  1.0000
  C   C1625     1.0  0.54048  0.47937  0.46666  1.0000
  H   H1303     1.0  0.63857  0.38808  0.44697  1.0000
  C   C1626     1.0  0.55526  0.49289  0.41023  1.0000
  C   C1627     1.0  0.33333  0.33777  0.25208  1.0000
  H   H1304     1.0  0.40306  0.34896  0.28084  1.0000
  H   H1305     1.0  0.45723  0.36910  0.09116  1.0000
  C   C1628     1.0  0.37941  0.36171  0.50328  1.0000
  C   C1629     1.0  0.47448  0.47087  0.34918  1.0000
  H   H1306     1.0  0.53231  0.47716  0.10049  1.0000
  H   H1307     1.0  0.43532  0.34763  0.38766  1.0000
  H   H1308     1.0  0.37464  0.32678  0.46096  1.0000
  C   C1630     1.0  0.55788  0.47812  0.48591  1.0000
  C   C1631     1.0  0.42652  0.36331  0.46772  1.0000
  C   C1632     1.0  0.52681  0.28580  0.33927  1.0000
  C   C1633     1.0  0.63008  0.28073  0.50360  1.0000
  C   C1634     1.0  0.60677  0.44796  0.32351  1.0000
  C   C1635     1.0  0.38786  0.35258  0.37448  1.0000
  H   H1309     1.0  0.54130  0.31781  0.27223  1.0000
  S   S206      1.0  0.32183  0.27085  0.07370  1.0000
  C   C1636     1.0  0.57611  0.28087  0.42818  1.0000
  H   H1310     1.0  0.51273  0.37637  0.04738  1.0000
  H   H1311     1.0  0.61664  0.31186  0.37414  1.0000
  C   C1637     1.0  0.61366  0.31103  0.49112  1.0000
  H   H1312     1.0  0.50506  0.41035  0.03352  1.0000
  C   C1638     1.0  0.61917  0.32170  0.12843  1.0000
  H   H1313     1.0  0.57023  0.31493  0.31255  1.0000
  C   C1639     1.0  0.54186  0.30833  0.29728  1.0000
  C   C1640     1.0  0.47837  0.47745  0.18232  1.0000
  S   S207      1.0  0.61483  0.45449  0.50644  1.0000
  H   H1314     1.0  0.60181  0.34741  0.12085  1.0000
  H   H1315     1.0  0.58304  0.27708  0.30159  1.0000
  C   C1641     1.0  0.49071  0.44758  0.06008  1.0000
  C   C1642     1.0  0.55901  0.29449  0.35280  1.0000
  C   C1643     1.0  0.58755  0.31710  0.39031  1.0000
  C   C1644     1.0  0.45683  0.38220  0.50234  1.0000
  H   H1316     1.0  0.60274  0.36946  0.40923  1.0000
  C   C1645     1.0  0.48555  0.43830  0.39185  1.0000
  Fe  Fe98      1.0  0.55912  0.37554  0.04399  1.0000
  C   C1646     1.0  0.60615  0.32224  0.38398  1.0000
  C   C1647     1.0  0.39485  0.29636  0.36119  1.0000
  H   H1317     1.0  0.52802  0.47447  0.48088  1.0000
  Fe  Fe99      1.0  0.34590  0.28384  0.04285  1.0000
  C   C1648     1.0  0.46295  0.39732  0.06974  1.0000
  C   C1649     1.0  0.42162  0.31658  0.46950  1.0000
  C   C1650     1.0  0.38709  0.35171  0.33366  1.0000
  C   C1651     1.0  0.61147  0.34114  0.39013  1.0000
  H   H1318     1.0  0.43373  0.34637  0.31552  1.0000
  C   C1652     1.0  0.46863  0.44792  0.40014  1.0000
  C   C1653     1.0  0.49517  0.47435  0.25705  1.0000
  H   H1319     1.0  0.49362  0.43212  0.11487  1.0000
  P   P53       1.0  0.58018  0.29280  0.38233  1.0000
  Fe  Fe100     1.0  0.58182  0.41074  0.02943  1.0000
  H   H1320     1.0  0.48909  0.35576  0.07689  1.0000
  H   H1321     1.0  0.38639  0.47990  0.24778  1.0000
  H   H1322     1.0  0.34572  0.33634  0.19488  1.0000
  C   C1654     1.0  0.33266  0.33741  0.43038  1.0000
  H   H1323     1.0  0.57752  0.27080  0.06524  1.0000
  C   C1655     1.0  0.59557  0.27300  0.31808  1.0000
  P   P54       1.0  0.50696  0.47062  0.30387  1.0000
  C   C1656     1.0  0.61279  0.29560  0.08324  1.0000
  C   C1657     1.0  0.59506  0.32588  0.07841  1.0000
  C   C1658     1.0  0.60497  0.33299  0.11053  1.0000
  S   S208      1.0  0.57382  0.37863  0.50267  1.0000
  H   H1324     1.0  0.61127  0.32365  0.47309  1.0000
  H   H1325     1.0  0.45971  0.44269  0.42285  1.0000
  H   H1326     1.0  0.62974  0.40037  0.36888  1.0000
  S   S209      1.0  0.56639  0.42610  0.50612  1.0000
  H   H1327     1.0  0.61108  0.46156  0.41870  1.0000
  H   H1328     1.0  0.40747  0.49610  0.20342  1.0000
  C   C1659     1.0  0.54320  0.28400  0.36215  1.0000
  C   C1660     1.0  0.52671  0.45419  0.29699  1.0000
  C   C1661     1.0  0.54102  0.45269  0.32561  1.0000
  C   C1662     1.0  0.55662  0.44042  0.31980  1.0000
  C   C1663     1.0  0.55824  0.42995  0.28503  1.0000
  C   C1664     1.0  0.54394  0.43126  0.25667  1.0000
  C   C1665     1.0  0.52816  0.44313  0.26284  1.0000
  H   H1329     1.0  0.61182  0.28651  0.22135  1.0000
  H   H1330     1.0  0.46856  0.46270  0.27373  1.0000
  H   H1331     1.0  0.53998  0.46079  0.35259  1.0000
  H   H1332     1.0  0.56733  0.43892  0.34249  1.0000
  H   H1333     1.0  0.57046  0.42070  0.28028  1.0000
  H   H1334     1.0  0.54479  0.42313  0.22976  1.0000
  H   H1335     1.0  0.51718  0.44365  0.24070  1.0000
  H   H1336     1.0  0.61014  0.27220  0.14996  1.0000
  P   P55       1.0  0.61846  0.27176  0.06510  1.0000
  P   P56       1.0  0.40604  0.35215  0.44722  1.0000
  C   C1666     1.0  0.38676  0.36631  0.46684  1.0000
  C   C1667     1.0  0.45155  0.38609  0.46364  1.0000
  H   H1337     1.0  0.31881  0.27605  0.39953  1.0000
  C   C1668     1.0  0.38687  0.29983  0.47929  1.0000
  S   S210      1.0  0.55087  0.40598  0.02822  1.0000
  C   C1669     1.0  0.37990  0.38283  0.44740  1.0000
  C   C1670     1.0  0.40503  0.32745  0.46242  1.0000
  H   H1338     1.0  0.32416  0.27519  0.27366  1.0000
  C   C1671     1.0  0.56826  0.28185  0.49707  1.0000
  H   H1339     1.0  0.35527  0.32433  0.39825  1.0000
  C   C1672     1.0  0.41498  0.48576  0.36497  1.0000
  H   H1340     1.0  0.60986  0.43584  0.30449  1.0000
  C   C1673     1.0  0.36134  0.29073  0.35696  1.0000
  Fe  Fe101     1.0  0.59770  0.42803  0.50791  1.0000
  H   H1341     1.0  0.58127  0.25228  0.40466  1.0000
  H   H1342     1.0  0.38606  0.38726  0.42026  1.0000
  S   S211      1.0  0.32064  0.31021  0.12738  1.0000
  H   H1343     1.0  0.40545  0.45933  0.05771  1.0000
  Fe  Fe102     1.0  0.60464  0.38460  0.50378  1.0000
  C   C1674     1.0  0.61145  0.30933  0.26383  1.0000
  C   C1675     1.0  0.60610  0.30062  0.22874  1.0000
  C   C1676     1.0  0.59353  0.31016  0.20322  1.0000
  C   C1677     1.0  0.58688  0.32873  0.21206  1.0000
  C   C1678     1.0  0.59268  0.33780  0.24669  1.0000
  C   C1679     1.0  0.60441  0.32767  0.27329  1.0000
  P   P57       1.0  0.58425  0.36190  0.25704  1.0000
  C   C1680     1.0  0.59859  0.37375  0.29319  1.0000
  C   C1681     1.0  0.58656  0.37654  0.21422  1.0000
  C   C1682     1.0  0.57445  0.39250  0.20822  1.0000
  C   C1683     1.0  0.57717  0.40488  0.17697  1.0000
  C   C1684     1.0  0.59195  0.40138  0.15132  1.0000
  C   C1685     1.0  0.60418  0.38558  0.15725  1.0000
  C   C1686     1.0  0.60163  0.37328  0.18879  1.0000
  C   C1687     1.0  0.59049  0.38707  0.31935  1.0000
  C   C1688     1.0  0.60173  0.39665  0.34641  1.0000
  C   C1689     1.0  0.62113  0.39317  0.34739  1.0000
  S   S212      1.0  0.33088  0.30053  0.49930  1.0000
  C   C1690     1.0  0.61821  0.37099  0.29322  1.0000
  C   C1691     1.0  0.56016  0.36011  0.27202  1.0000
  C   C1692     1.0  0.55607  0.35714  0.31148  1.0000
  C   C1693     1.0  0.53747  0.35589  0.32338  1.0000
  C   C1694     1.0  0.52283  0.35723  0.29586  1.0000
  C   C1695     1.0  0.52681  0.35955  0.25636  1.0000
  C   C1696     1.0  0.54540  0.36084  0.24432  1.0000
  H   H1344     1.0  0.47207  0.47824  0.15339  1.0000
  H   H1345     1.0  0.58922  0.30335  0.17616  1.0000
  H   H1346     1.0  0.57739  0.33609  0.19164  1.0000
  H   H1347     1.0  0.60839  0.33393  0.30104  1.0000
  H   H1348     1.0  0.56299  0.39540  0.22786  1.0000
  H   H1349     1.0  0.56778  0.41720  0.17249  1.0000
  H   H1350     1.0  0.59397  0.41096  0.12692  1.0000
  C   C1697     1.0  0.59362  0.48007  0.33297  1.0000
  H   H1351     1.0  0.61151  0.36139  0.19352  1.0000
  H   H1352     1.0  0.57551  0.39019  0.31910  1.0000
  H   H1353     1.0  0.59530  0.40663  0.36695  1.0000
  H   H1354     1.0  0.63414  0.29805  0.45269  1.0000
  C   C1698     1.0  0.61392  0.25776  0.14110  1.0000
  H   H1355     1.0  0.62493  0.36155  0.27211  1.0000
  H   H1356     1.0  0.56720  0.35613  0.33319  1.0000
  H   H1357     1.0  0.53433  0.35442  0.35410  1.0000
  H   H1358     1.0  0.50838  0.35677  0.30526  1.0000
  H   H1359     1.0  0.51541  0.36064  0.23515  1.0000
  H   H1360     1.0  0.54813  0.36262  0.21349  1.0000
  H   H1361     1.0  0.34185  0.34530  0.44970  1.0000
  C   C1699     1.0  0.42093  0.34799  0.33216  1.0000
  C   C1700     1.0  0.58628  0.48048  0.13076  1.0000
  H   H1362     1.0  0.51918  0.48360  0.03395  1.0000
  P   P58       1.0  0.33802  0.29841  0.34087  1.0000
  S   S213      1.0  0.33999  0.26638  0.18621  1.0000
  C   C1701     1.0  0.50519  0.48150  0.22542  1.0000
  H   H1363     1.0  0.35720  0.28766  0.26846  1.0000
  C   C1702     1.0  0.51341  0.47253  0.05183  1.0000
  H   H1364     1.0  0.41107  0.27741  0.39905  1.0000
  C   C1703     1.0  0.49861  0.44366  0.09716  1.0000
  H   H1365     1.0  0.32283  0.33537  0.31018  1.0000
  H   H1366     1.0  0.59286  0.49374  0.13849  1.0000
  C   C1704     1.0  0.42080  0.29759  0.48220  1.0000
  C   C1705     1.0  0.34020  0.32545  0.40127  1.0000
  H   H1367     1.0  0.61848  0.43430  0.37524  1.0000
  H   H1368     1.0  0.37339  0.29341  0.48356  1.0000
  C   C1706     1.0  0.37698  0.30121  0.34623  1.0000
  C   C1707     1.0  0.53919  0.48666  0.42878  1.0000
  H   H1369     1.0  0.51885  0.45158  0.14093  1.0000
  H   H1370     1.0  0.43783  0.48566  0.27828  1.0000
  C   C1708     1.0  0.31880  0.26957  0.30054  1.0000
  C   C1709     1.0  0.36520  0.39395  0.46329  1.0000
  H   H1371     1.0  0.61662  0.27694  0.40779  1.0000
  H   H1372     1.0  0.37538  0.31329  0.32661  1.0000
  C   C1710     1.0  0.49680  0.48312  0.18837  1.0000
  C   C1711     1.0  0.51331  0.45447  0.11184  1.0000
  C   C1712     1.0  0.40342  0.28927  0.48743  1.0000
  C   C1713     1.0  0.62825  0.26167  0.35904  1.0000
  H   H1373     1.0  0.37697  0.49533  0.31014  1.0000
  C   C1714     1.0  0.47648  0.40921  0.05401  1.0000
  C   C1715     1.0  0.33116  0.32839  0.28776  1.0000
  H   H1374     1.0  0.62577  0.34511  0.38487  1.0000
  H   H1375     1.0  0.59354  0.46505  0.27780  1.0000
  H   H1376     1.0  0.51457  0.27782  0.34672  1.0000
  C   C1716     1.0  0.34403  0.32911  0.22259  1.0000
  H   H1377     1.0  0.34622  0.39751  0.51147  1.0000
  C   C1717     1.0  0.38178  0.27061  0.39818  1.0000
  H   H1378     1.0  0.63433  0.49080  0.40232  1.0000
  C   C1718     1.0  0.43401  0.44879  0.05108  1.0000
  H   H1379     1.0  0.52571  0.48724  0.41381  1.0000
  H   H1380     1.0  0.48976  0.42559  0.40818  1.0000
  C   C1719     1.0  0.59765  0.46443  0.30845  1.0000
  H   H1381     1.0  0.45403  0.46573  0.20899  1.0000
  H   H1382     1.0  0.55983  0.32779  0.40658  1.0000
  H   H1383     1.0  0.32674  0.35177  0.24719  1.0000
  H   H1384     1.0  0.60767  0.25742  0.26951  1.0000
  H   H1385     1.0  0.35996  0.40669  0.44817  1.0000
  C   C1720     1.0  0.59908  0.30736  0.06448  1.0000
  C   C1721     1.0  0.49165  0.46140  0.34080  1.0000
  H   H1386     1.0  0.61569  0.38302  0.13742  1.0000
  H   H1387     1.0  0.50997  0.43711  0.35665  1.0000
  C   C1722     1.0  0.33978  0.31027  0.29421  1.0000
  C   C1723     1.0  0.40525  0.35181  0.39444  1.0000
  C   C1724     1.0  0.38764  0.31879  0.46654  1.0000
  H   H1388     1.0  0.56970  0.36092  0.41885  1.0000
  H   H1389     1.0  0.46987  0.48349  0.33296  1.0000
  C   C1725     1.0  0.46825  0.47039  0.21351  1.0000
  C   C1726     1.0  0.55821  0.30669  0.32022  1.0000
  C   C1727     1.0  0.61445  0.27289  0.37754  1.0000
  C   C1728     1.0  0.60754  0.46262  0.38781  1.0000
  H   H1390     1.0  0.56990  0.30680  0.46147  1.0000
  C   C1729     1.0  0.57437  0.33125  0.40238  1.0000
  H   H1391     1.0  0.43364  0.28940  0.48853  1.0000
  C   C1730     1.0  0.30882  0.31648  0.38183  1.0000
  C   C1731     1.0  0.39726  0.28103  0.38711  1.0000
  C   C1732     1.0  0.42176  0.34893  0.37301  1.0000
  C   C1733     1.0  0.40363  0.34949  0.31252  1.0000
  C   C1734     1.0  0.57045  0.47488  0.15084  1.0000
  C   C1735     1.0  0.45044  0.44181  0.07014  1.0000
  S   S214      1.0  0.56041  0.48957  0.18767  1.0000
  C   C1736     1.0  0.41811  0.45408  0.07260  1.0000
  C   C1737     1.0  0.41841  0.45243  0.11328  1.0000
  C   C1738     1.0  0.43464  0.44554  0.13251  1.0000
  C   C1739     1.0  0.45055  0.44022  0.11114  1.0000
  C   C1740     1.0  0.59806  0.27880  0.35715  1.0000
  H   H1392     1.0  0.54341  0.27454  0.38713  1.0000
  C   C1741     1.0  0.58230  0.26484  0.03770  1.0000
  P   P59       1.0  0.47094  0.43404  0.04275  1.0000
  H   H1393     1.0  0.40679  0.30462  0.35292  1.0000
  C   C1742     1.0  0.31571  0.27002  0.37098  1.0000
  H   H1394     1.0  0.39871  0.46249  0.38575  1.0000
  C   C1743     1.0  0.52078  0.46889  0.08918  1.0000
  C   C1744     1.0  0.62580  0.25614  0.32012  1.0000
  H   H1395     1.0  0.51337  0.29947  0.28935  1.0000
  H   H1396     1.0  0.44896  0.40281  0.07605  1.0000
  S   S215      1.0  0.33178  0.31283  0.03497  1.0000
  C   C1745     1.0  0.57395  0.48445  0.46752  1.0000
  C   C1746     1.0  0.57127  0.29134  0.46190  1.0000
  H   H1397     1.0  0.40607  0.45634  0.13001  1.0000
  H   H1398     1.0  0.43476  0.44400  0.16408  1.0000
  H   H1399     1.0  0.46269  0.43436  0.12684  1.0000
  C   C1747     1.0  0.57987  0.35004  0.40931  1.0000
  C   C1748     1.0  0.59845  0.35494  0.40345  1.0000
  H   H1400     1.0  0.37371  0.35273  0.31826  1.0000
  C   C1749     1.0  0.49841  0.46204  0.03739  1.0000
  C   C1750     1.0  0.46752  0.37810  0.07800  1.0000
  C   C1751     1.0  0.59895  0.47941  0.37266  1.0000
  H   H1401     1.0  0.43226  0.38053  0.41673  1.0000
  C   C1752     1.0  0.57270  0.49226  0.42982  1.0000
  H   H1402     1.0  0.62125  0.30188  0.28351  1.0000
  C   C1753     1.0  0.62644  0.29661  0.47957  1.0000
  C   C1754     1.0  0.46317  0.46426  0.37902  1.0000
  H   H1403     1.0  0.43519  0.32285  0.46570  1.0000
  H   H1404     1.0  0.45016  0.47179  0.38596  1.0000
  H   H1405     1.0  0.38346  0.25899  0.41900  1.0000
  C   C1755     1.0  0.36391  0.27547  0.38331  1.0000
  Fe  Fe103     1.0  0.33582  0.28155  0.12847  1.0000
  S   S216      1.0  0.59560  0.43724  0.05323  1.0000
  C   C1756     1.0  0.43633  0.37686  0.44644  1.0000
  H   H1406     1.0  0.62718  0.32738  0.15277  1.0000
  H   H1407     1.0  0.36063  0.30421  0.20568  1.0000
  H   H1408     1.0  0.51971  0.48533  0.22883  1.0000
  C   C1757     1.0  0.61881  0.25347  0.10235  1.0000
  C   C1758     1.0  0.61163  0.44706  0.36322  1.0000
  C   C1759     1.0  0.62318  0.30312  0.11467  1.0000
  C   C1760     1.0  0.49880  0.38220  0.05348  1.0000
  H   H1409     1.0  0.37256  0.31138  0.01357  1.0000
  C   C1761     1.0  0.49442  0.40148  0.04584  1.0000
  S   S217      1.0  0.34375  0.24909  0.46693  1.0000
  C   C1762     1.0  0.35050  0.30169  0.26437  1.0000
  C   C1763     1.0  0.57776  0.26075  0.43029  1.0000
  C   C1764     1.0  0.35255  0.31106  0.22874  1.0000
  H   H1410     1.0  0.58733  0.48293  0.48259  1.0000
  C   C1765     1.0  0.48544  0.37056  0.06992  1.0000
  H   H1411     1.0  0.58437  0.33487  0.06394  1.0000
  C   C1766     1.0  0.32834  0.31472  0.37707  1.0000
  C   C1767     1.0  0.35751  0.38884  0.49899  1.0000
  H   H1412     1.0  0.53989  0.49144  0.27950  1.0000
  H   H1413     1.0  0.30738  0.34732  0.45907  1.0000
  H   H1414     1.0  0.44145  0.48639  0.10459  1.0000
  H   H1415     1.0  0.58625  0.49255  0.32087  1.0000
  C   C1768     1.0  0.39096  0.49421  0.25478  1.0000
  C   C1769     1.0  0.57021  0.26189  0.49901  1.0000
  H   H1416     1.0  0.40271  0.27469  0.49797  1.0000
  H   H1417     1.0  0.62935  0.35697  0.04589  1.0000
  Fe  Fe104     1.0  0.30867  0.30045  0.06965  1.0000
  C   C1770     1.0  0.42638  0.49203  0.33505  1.0000
  C   C1771     1.0  0.51655  0.49311  0.31970  1.0000
  C   C1772     1.0  0.31324  0.33865  0.43561  1.0000
  H   H1418     1.0  0.43320  0.44995  0.01966  1.0000
  H   H1419     1.0  0.47001  0.32151  0.01547  1.0000
  C   C1773     1.0  0.57496  0.25134  0.46562  1.0000
  C   C1774     1.0  0.43173  0.35974  0.50686  1.0000
  C   C1775     1.0  0.30731  0.25367  0.29839  1.0000
  H   H1420     1.0  0.55419  0.49792  0.38047  1.0000
  H   H1421     1.0  0.55428  0.25936  0.01688  1.0000
  Fe  Fe105     1.0  0.34248  0.30394  0.56043  1.0000
  S   S218      1.0  0.36786  0.32260  0.56781  1.0000
  C   C1776     1.0  0.48375  0.44742  0.65831  1.0000
  H   H1422     1.0  0.35070  0.32754  0.64435  1.0000
  S   S219      1.0  0.34483  0.27221  0.57150  1.0000
  Fe  Fe106     1.0  0.45892  0.38776  0.68264  1.0000
  S   S220      1.0  0.44929  0.36367  0.71997  1.0000
  S   S221      1.0  0.47212  0.38216  0.62380  1.0000
  Fe  Fe107     1.0  0.44297  0.41846  0.73721  1.0000
  S   S222      1.0  0.43168  0.39692  0.77892  1.0000
  S   S223      1.0  0.44334  0.45087  0.74105  1.0000
  Fe  Fe108     1.0  0.45945  0.38137  0.77074  1.0000
  S   S224      1.0  0.47533  0.36614  0.82003  1.0000
  Fe  Fe109     1.0  0.42233  0.38089  0.72473  1.0000
  S   S225      1.0  0.39400  0.36652  0.72216  1.0000
  S   S226      1.0  0.47140  0.40401  0.73291  1.0000
  S   S227      1.0  0.43119  0.40392  0.68382  1.0000
  H   H1423     1.0  0.36088  0.34547  0.70370  1.0000
  S   S228      1.0  0.60260  0.40550  0.55342  1.0000
  C   C1777     1.0  0.41562  0.41216  0.90236  1.0000
  Fe  Fe110     1.0  0.55529  0.39621  0.96635  1.0000
  S   S229      1.0  0.56057  0.36528  0.98198  1.0000
  S   S230      1.0  0.53649  0.40961  0.91963  1.0000
  Fe  Fe111     1.0  0.57147  0.40179  0.54852  1.0000
  S   S231      1.0  0.55811  0.40022  0.60758  1.0000
  Fe  Fe112     1.0  0.59092  0.37291  0.98678  1.0000
  S   S232      1.0  0.61320  0.35065  0.97056  1.0000
  C   C1778     1.0  0.63165  0.36938  0.86584  1.0000
  S   S233      1.0  0.58589  0.40315  0.96607  1.0000
  C   C1779     1.0  0.58571  0.47790  0.90184  1.0000
  H   H1424     1.0  0.57970  0.48927  0.68942  1.0000
  C   C1780     1.0  0.61456  0.47119  0.54520  1.0000
  H   H1425     1.0  0.41813  0.33588  0.76571  1.0000
  H   H1426     1.0  0.32210  0.26282  0.99250  1.0000
  C   C1781     1.0  0.55079  0.48113  0.68675  1.0000
  H   H1427     1.0  0.60775  0.33371  0.83386  1.0000
  C   C1782     1.0  0.34838  0.25104  0.97198  1.0000
  C   C1783     1.0  0.49241  0.37828  0.84738  1.0000
  C   C1784     1.0  0.49400  0.39814  0.84458  1.0000
  C   C1785     1.0  0.50762  0.40746  0.86713  1.0000
  C   C1786     1.0  0.51965  0.39707  0.89254  1.0000
  C   C1787     1.0  0.51809  0.37722  0.89540  1.0000
  C   C1788     1.0  0.50449  0.36785  0.87276  1.0000
  H   H1428     1.0  0.48463  0.40627  0.82528  1.0000
  H   H1429     1.0  0.50890  0.42281  0.86512  1.0000
  H   H1430     1.0  0.52734  0.36911  0.91494  1.0000
  H   H1431     1.0  0.50331  0.35246  0.87496  1.0000
  C   C1789     1.0  0.49597  0.38748  0.61914  1.0000
  C   C1790     1.0  0.50647  0.39366  0.65130  1.0000
  C   C1791     1.0  0.52554  0.39746  0.64735  1.0000
  C   C1792     1.0  0.53412  0.39561  0.61092  1.0000
  C   C1793     1.0  0.52359  0.38981  0.57841  1.0000
  C   C1794     1.0  0.50457  0.38557  0.58263  1.0000
  H   H1432     1.0  0.49999  0.39528  0.67937  1.0000
  H   H1433     1.0  0.53365  0.40174  0.67269  1.0000
  H   H1434     1.0  0.53015  0.38832  0.55022  1.0000
  H   H1435     1.0  0.49652  0.38078  0.55762  1.0000
  C   C1795     1.0  0.42537  0.46267  0.85070  1.0000
  C   C1796     1.0  0.42981  0.45282  0.81600  1.0000
  C   C1797     1.0  0.43892  0.46224  0.78609  1.0000
  C   C1798     1.0  0.44382  0.48143  0.79131  1.0000
  H   H1436     1.0  0.42575  0.43814  0.81191  1.0000
  C   C1799     1.0  0.58143  0.25270  0.64247  1.0000
  C   C1800     1.0  0.59691  0.46973  0.87258  1.0000
  C   C1801     1.0  0.37490  0.33446  0.61126  1.0000
  C   C1802     1.0  0.39203  0.34392  0.61206  1.0000
  C   C1803     1.0  0.39804  0.35374  0.64582  1.0000
  C   C1804     1.0  0.38686  0.35437  0.67905  1.0000
  C   C1805     1.0  0.36965  0.34501  0.67818  1.0000
  C   C1806     1.0  0.36378  0.33493  0.64458  1.0000
  H   H1437     1.0  0.40079  0.34359  0.58653  1.0000
  H   H1438     1.0  0.41131  0.36088  0.64608  1.0000
  H   H1439     1.0  0.41478  0.38589  0.87016  1.0000
  H   H1440     1.0  0.50490  0.43585  0.55677  1.0000
  C   C1807     1.0  0.59823  0.47625  0.56579  1.0000
  C   C1808     1.0  0.63829  0.33831  0.91590  1.0000
  H   H1441     1.0  0.36521  0.26735  0.68556  1.0000
  H   H1442     1.0  0.34493  0.30529  0.95532  1.0000
  C   C1809     1.0  0.62435  0.34961  0.60643  1.0000
  H   H1443     1.0  0.35909  0.36889  0.54716  1.0000
  H   H1444     1.0  0.61224  0.37987  0.90954  1.0000
  H   H1445     1.0  0.47753  0.45040  0.68647  1.0000
  H   H1446     1.0  0.62943  0.27714  0.64823  1.0000
  C   C1810     1.0  0.38322  0.26649  0.86594  1.0000
  H   H1447     1.0  0.41151  0.31563  0.92009  1.0000
  C   C1811     1.0  0.60420  0.27127  0.67801  1.0000
  H   H1448     1.0  0.40923  0.26025  0.89690  1.0000
  H   H1449     1.0  0.58547  0.46868  0.56014  1.0000
  H   H1450     1.0  0.47315  0.40615  0.97699  1.0000
  C   C1812     1.0  0.62219  0.36857  0.90159  1.0000
  C   C1813     1.0  0.49891  0.43930  0.58494  1.0000
  H   H1451     1.0  0.55465  0.46736  0.97738  1.0000
  C   C1814     1.0  0.36777  0.30024  0.77702  1.0000
  C   C1815     1.0  0.58186  0.49083  0.82488  1.0000
  H   H1452     1.0  0.34135  0.25035  0.64123  1.0000
  C   C1816     1.0  0.30785  0.33012  0.67679  1.0000
  C   C1817     1.0  0.46776  0.33267  0.99384  1.0000
  C   C1818     1.0  0.58685  0.26252  0.67629  1.0000
  H   H1453     1.0  0.60058  0.29278  0.57787  1.0000
  C   C1819     1.0  0.38187  0.31993  0.99654  1.0000
  C   C1820     1.0  0.53950  0.48468  0.93403  1.0000
  H   H1454     1.0  0.32923  0.25302  0.88198  1.0000
  C   C1821     1.0  0.37529  0.30613  0.74169  1.0000
  C   C1822     1.0  0.62535  0.35288  0.92646  1.0000
  C   C1823     1.0  0.63107  0.48083  0.55310  1.0000
  H   H1455     1.0  0.33097  0.33587  0.92979  1.0000
  C   C1824     1.0  0.50673  0.49565  0.67088  1.0000
  C   C1825     1.0  0.57717  0.45973  0.67213  1.0000
  C   C1826     1.0  0.37408  0.29443  0.70858  1.0000
  C   C1827     1.0  0.52905  0.45443  0.95946  1.0000
  C   C1828     1.0  0.62057  0.27880  0.53884  1.0000
  H   H1456     1.0  0.36190  0.47612  0.82103  1.0000
  C   C1829     1.0  0.46037  0.45604  0.93310  1.0000
  H   H1457     1.0  0.61064  0.35218  0.59292  1.0000
  H   H1458     1.0  0.31879  0.33521  0.65820  1.0000
  H   H1459     1.0  0.57027  0.43099  0.65558  1.0000
  H   H1460     1.0  0.41795  0.45554  0.87346  1.0000
  H   H1461     1.0  0.32479  0.33957  0.85846  1.0000
  C   C1830     1.0  0.56483  0.44496  0.66456  1.0000
  H   H1462     1.0  0.50943  0.42491  0.78997  1.0000
  C   C1831     1.0  0.51052  0.47114  0.90973  1.0000
  C   C1832     1.0  0.40390  0.32244  0.94383  1.0000
  C   C1833     1.0  0.46707  0.42210  0.92506  1.0000
  C   C1834     1.0  0.46958  0.42022  0.96549  1.0000
  H   H1463     1.0  0.41808  0.43641  0.94111  1.0000
  H   H1464     1.0  0.37986  0.29907  0.68116  1.0000
  C   C1835     1.0  0.59506  0.47627  0.83414  1.0000
  C   C1836     1.0  0.48201  0.43130  0.59561  1.0000
  H   H1465     1.0  0.52168  0.49729  0.88847  1.0000
  C   C1837     1.0  0.47443  0.43540  0.63220  1.0000
  H   H1466     1.0  0.51865  0.43521  0.72476  1.0000
  Fe  Fe113     1.0  0.31527  0.27561  0.59319  1.0000
  C   C1838     1.0  0.41868  0.42090  0.93862  1.0000
  H   H1467     1.0  0.32150  0.27012  0.76160  1.0000
  S   S234      1.0  0.36187  0.26865  0.99485  1.0000
  C   C1839     1.0  0.54546  0.44826  0.66788  1.0000
  P   P60       1.0  0.51300  0.47083  0.68181  1.0000
  H   H1468     1.0  0.38517  0.34966  0.51981  1.0000
  C   C1840     1.0  0.61613  0.27023  0.64601  1.0000
  C   C1841     1.0  0.31699  0.26275  0.78733  1.0000
  H   H1469     1.0  0.61831  0.32113  0.62572  1.0000
  H   H1470     1.0  0.49604  0.34270  0.99874  1.0000
  C   C1842     1.0  0.33127  0.32641  0.86964  1.0000
  H   H1471     1.0  0.62896  0.38135  0.84643  1.0000
  H   H1472     1.0  0.63064  0.29433  0.99938  1.0000
  C   C1843     1.0  0.54220  0.46886  0.95894  1.0000
  H   H1473     1.0  0.41013  0.49681  0.72864  1.0000
  H   H1474     1.0  0.46080  0.46686  0.99182  1.0000
  C   C1844     1.0  0.32798  0.26228  0.82169  1.0000
  H   H1475     1.0  0.47496  0.42156  0.57593  1.0000
  H   H1476     1.0  0.50342  0.44399  0.93469  1.0000
  H   H1477     1.0  0.44913  0.33353  0.79961  1.0000
  C   C1845     1.0  0.44005  0.49103  0.82663  1.0000
  H   H1478     1.0  0.49833  0.47193  0.89049  1.0000
  C   C1846     1.0  0.41919  0.33872  0.79684  1.0000
  H   H1479     1.0  0.46145  0.42895  0.64061  1.0000
  C   C1847     1.0  0.32895  0.25134  0.97646  1.0000
  H   H1480     1.0  0.58559  0.49613  0.60742  1.0000
  H   H1481     1.0  0.60682  0.45811  0.87966  1.0000
  H   H1482     1.0  0.41267  0.42085  0.87670  1.0000
  H   H1483     1.0  0.45697  0.46996  0.92051  1.0000
  H   H1484     1.0  0.42813  0.38117  0.99340  1.0000
  C   C1848     1.0  0.33467  0.32433  0.90977  1.0000
  H   H1485     1.0  0.45067  0.48884  0.76803  1.0000
  C   C1849     1.0  0.49082  0.47037  0.79197  1.0000
  C   C1850     1.0  0.40320  0.34429  0.81762  1.0000
  C   C1851     1.0  0.57015  0.47777  0.68349  1.0000
  C   C1852     1.0  0.34724  0.29216  0.89870  1.0000
  C   C1853     1.0  0.43821  0.34192  0.85570  1.0000
  C   C1854     1.0  0.42225  0.34776  0.87666  1.0000
  C   C1855     1.0  0.40468  0.34868  0.85744  1.0000
  P   P61       1.0  0.42398  0.35497  0.92731  1.0000
  C   C1856     1.0  0.42074  0.38071  0.93177  1.0000
  C   C1857     1.0  0.40680  0.34174  0.95367  1.0000
  C   C1858     1.0  0.60779  0.29346  0.55037  1.0000
  C   C1859     1.0  0.59344  0.25151  0.61051  1.0000
  C   C1860     1.0  0.42419  0.38965  0.96794  1.0000
  C   C1861     1.0  0.42295  0.40962  0.97141  1.0000
  C   C1862     1.0  0.41668  0.39218  0.89885  1.0000
  C   C1863     1.0  0.44710  0.34983  0.94786  1.0000
  C   C1864     1.0  0.46200  0.36161  0.93831  1.0000
  C   C1865     1.0  0.47949  0.35913  0.95695  1.0000
  C   C1866     1.0  0.39682  0.35007  0.98484  1.0000
  H   H1486     1.0  0.48267  0.47996  0.81055  1.0000
  C   C1867     1.0  0.62872  0.33209  0.62453  1.0000
  H   H1487     1.0  0.38979  0.34575  0.80241  1.0000
  H   H1488     1.0  0.35285  0.27882  0.91076  1.0000
  C   C1868     1.0  0.50095  0.45521  0.64814  1.0000
  H   H1489     1.0  0.45197  0.34125  0.86950  1.0000
  H   H1490     1.0  0.39221  0.35331  0.87302  1.0000
  C   C1869     1.0  0.37228  0.48081  0.80066  1.0000
  C   C1870     1.0  0.36782  0.25886  0.84583  1.0000
  H   H1491     1.0  0.35251  0.25644  0.74808  1.0000
  C   C1871     1.0  0.36470  0.37277  0.51906  1.0000
  H   H1492     1.0  0.46006  0.37284  0.91666  1.0000
  H   H1493     1.0  0.49078  0.36854  0.95014  1.0000
  C   C1872     1.0  0.57507  0.25028  0.97507  1.0000
  H   H1494     1.0  0.43892  0.32613  0.98414  1.0000
  H   H1495     1.0  0.57765  0.26333  0.70121  1.0000
  C   C1873     1.0  0.49568  0.45188  0.80473  1.0000
  C   C1874     1.0  0.33592  0.31138  0.84399  1.0000
  C   C1875     1.0  0.50826  0.45139  0.61090  1.0000
  H   H1496     1.0  0.63388  0.37720  0.59077  1.0000
  C   C1876     1.0  0.59830  0.49178  0.59249  1.0000
  H   H1497     1.0  0.46060  0.44142  0.87747  1.0000
  H   H1498     1.0  0.60862  0.27872  0.70433  1.0000
  C   C1877     1.0  0.46263  0.45421  0.97358  1.0000
  C   C1878     1.0  0.35877  0.28264  0.77939  1.0000
  C   C1879     1.0  0.46251  0.44000  0.90884  1.0000
  S   S235      1.0  0.31391  0.30768  0.58652  1.0000
  C   C1880     1.0  0.50652  0.46394  0.73049  1.0000
  H   H1499     1.0  0.39856  0.36486  0.99315  1.0000
  C   C1881     1.0  0.63767  0.36390  0.60529  1.0000
  C   C1882     1.0  0.51326  0.45551  0.93481  1.0000
  H   H1500     1.0  0.59215  0.45723  0.66893  1.0000
  H   H1501     1.0  0.46871  0.40963  0.90624  1.0000
  H   H1502     1.0  0.49105  0.49030  0.74490  1.0000
  C   C1883     1.0  0.61101  0.26010  0.61222  1.0000
  H   H1503     1.0  0.62218  0.25355  0.98781  1.0000
  H   H1504     1.0  0.36929  0.30934  0.80249  1.0000
  C   C1884     1.0  0.35839  0.27057  0.74644  1.0000
  H   H1505     1.0  0.45080  0.36640  0.55430  1.0000
  C   C1885     1.0  0.45013  0.33530  0.97577  1.0000
  C   C1886     1.0  0.52370  0.48559  0.90897  1.0000
  H   H1506     1.0  0.38222  0.31973  0.73998  1.0000
  C   C1887     1.0  0.56912  0.25823  0.01051  1.0000
  C   C1888     1.0  0.36576  0.27660  0.71103  1.0000
  C   C1889     1.0  0.57279  0.49293  0.89296  1.0000
  H   H1507     1.0  0.32196  0.30289  0.68826  1.0000
  C   C1890     1.0  0.62206  0.39416  0.72763  1.0000
  C   C1891     1.0  0.61753  0.39632  0.68798  1.0000
  C   C1892     1.0  0.59878  0.39684  0.67561  1.0000
  C   C1893     1.0  0.58452  0.39468  0.70267  1.0000
  C   C1894     1.0  0.58896  0.39151  0.74230  1.0000
  C   C1895     1.0  0.60780  0.39213  0.75480  1.0000
  P   P62       1.0  0.57062  0.38855  0.77747  1.0000
  C   C1896     1.0  0.57661  0.37072  0.81417  1.0000
  C   C1897     1.0  0.56519  0.41216  0.79710  1.0000
  C   C1898     1.0  0.55851  0.42669  0.77173  1.0000
  C   C1899     1.0  0.55380  0.44498  0.78622  1.0000
  C   C1900     1.0  0.55530  0.44875  0.82623  1.0000
  C   C1901     1.0  0.56232  0.43452  0.85153  1.0000
  C   C1902     1.0  0.56753  0.41637  0.83703  1.0000
  C   C1903     1.0  0.59162  0.35742  0.80900  1.0000
  C   C1904     1.0  0.59572  0.34344  0.83729  1.0000
  C   C1905     1.0  0.58467  0.34234  0.87050  1.0000
  C   C1906     1.0  0.56916  0.35485  0.87486  1.0000
  C   C1907     1.0  0.56505  0.36887  0.84672  1.0000
  C   C1908     1.0  0.54974  0.37931  0.75483  1.0000
  C   C1909     1.0  0.53203  0.38454  0.76952  1.0000
  C   C1910     1.0  0.51589  0.37652  0.75360  1.0000
  C   C1911     1.0  0.51726  0.36326  0.72303  1.0000
  C   C1912     1.0  0.53486  0.35781  0.70856  1.0000
  C   C1913     1.0  0.55109  0.36555  0.72482  1.0000
  C   C1914     1.0  0.39144  0.31162  0.96515  1.0000
  C   C1915     1.0  0.43061  0.48171  0.85618  1.0000
  H   H1508     1.0  0.59525  0.39886  0.64495  1.0000
  H   H1509     1.0  0.57007  0.39540  0.69238  1.0000
  H   H1510     1.0  0.61151  0.39070  0.78548  1.0000
  H   H1511     1.0  0.55683  0.42384  0.74076  1.0000
  H   H1512     1.0  0.54874  0.45618  0.76654  1.0000
  H   H1513     1.0  0.55110  0.46272  0.83766  1.0000
  H   H1514     1.0  0.56348  0.43743  0.88262  1.0000
  H   H1515     1.0  0.57314  0.40575  0.85732  1.0000
  H   H1516     1.0  0.60022  0.35764  0.78329  1.0000
  C   C1916     1.0  0.34441  0.29432  0.85828  1.0000
  H   H1517     1.0  0.58821  0.33188  0.89297  1.0000
  H   H1518     1.0  0.56034  0.35374  0.90011  1.0000
  H   H1519     1.0  0.55284  0.37831  0.85047  1.0000
  H   H1520     1.0  0.53065  0.39445  0.79382  1.0000
  H   H1521     1.0  0.50228  0.38044  0.76518  1.0000
  H   H1522     1.0  0.50463  0.35733  0.71041  1.0000
  H   H1523     1.0  0.53588  0.34763  0.68465  1.0000
  H   H1524     1.0  0.56464  0.36078  0.71396  1.0000
  C   C1917     1.0  0.39586  0.47325  0.75252  1.0000
  H   H1525     1.0  0.60361  0.46982  0.81139  1.0000
  H   H1526     1.0  0.58699  0.47233  0.93133  1.0000
  H   H1527     1.0  0.38409  0.28181  0.87045  1.0000
  H   H1528     1.0  0.52129  0.45754  0.60208  1.0000
  C   C1918     1.0  0.50584  0.43935  0.78046  1.0000
  C   C1919     1.0  0.51117  0.44531  0.74347  1.0000
  C   C1920     1.0  0.48242  0.34460  0.98449  1.0000
  C   C1921     1.0  0.49590  0.47630  0.75472  1.0000
  H   H1529     1.0  0.49121  0.44716  0.83308  1.0000
  H   H1530     1.0  0.33276  0.31300  0.81310  1.0000
  P   P63       1.0  0.34977  0.27467  0.82543  1.0000
  H   H1531     1.0  0.55896  0.47201  0.51491  1.0000
  P   P64       1.0  0.62629  0.25868  0.57052  1.0000
  C   C1922     1.0  0.38249  0.46725  0.77880  1.0000
  H   H1532     1.0  0.40381  0.46270  0.73563  1.0000
  H   H1533     1.0  0.42561  0.41632  0.99943  1.0000
  H   H1534     1.0  0.53623  0.43658  0.66158  1.0000
  H   H1535     1.0  0.38016  0.45207  0.78227  1.0000
  H   H1536     1.0  0.59498  0.32107  0.53596  1.0000
  C   C1923     1.0  0.53818  0.46649  0.67845  1.0000
  C   C1924     1.0  0.43664  0.33741  0.81594  1.0000
  H   H1537     1.0  0.62846  0.39771  0.66676  1.0000
  C   C1925     1.0  0.34255  0.30716  0.92423  1.0000
  C   C1926     1.0  0.60741  0.25535  0.99414  1.0000
  C   C1927     1.0  0.46741  0.43630  0.99025  1.0000
  H   H1538     1.0  0.63659  0.39393  0.73746  1.0000
  C   C1928     1.0  0.39941  0.49274  0.74869  1.0000
  H   H1539     1.0  0.38933  0.29668  0.95784  1.0000
  Fe  Fe114     1.0  0.33119  0.26906  0.51233  1.0000
  C   C1929     1.0  0.44687  0.36910  0.52400  1.0000
  H   H1540     1.0  0.49316  0.46539  0.00848  1.0000
  C   C1930     1.0  0.63129  0.49580  0.58034  1.0000
  H   H1541     1.0  0.49357  0.48960  0.61470  1.0000
  S   S236      1.0  0.42491  0.49359  0.90002  1.0000
  C   C1931     1.0  0.39759  0.25433  0.88065  1.0000
  H   H1542     1.0  0.54590  0.49522  0.69562  1.0000
  C   C1932     1.0  0.60448  0.30955  0.52667  1.0000
  H   H1543     1.0  0.53136  0.44209  0.97829  1.0000
  H   H1544     1.0  0.42392  0.34995  0.52440  1.0000
  C   C1933     1.0  0.59423  0.24871  0.96703  1.0000
  H   H1545     1.0  0.56453  0.29004  0.52296  1.0000
  H   H1546     1.0  0.63705  0.43454  0.56555  1.0000
  C   C1934     1.0  0.32118  0.25319  0.85490  1.0000
  H   H1547     1.0  0.63865  0.45415  0.62585  1.0000
  H   H1548     1.0  0.58012  0.49560  0.79490  1.0000
  H   H1549     1.0  0.46851  0.38948  0.51576  1.0000
  H   H1550     1.0  0.56795  0.25458  0.52631  1.0000
  C   C1935     1.0  0.30965  0.31198  0.69385  1.0000
  C   C1936     1.0  0.38445  0.33915  0.00623  1.0000
  Fe  Fe115     1.0  0.42880  0.52585  0.41182  1.0000
  S   S237      1.0  0.42206  0.55520  0.38793  1.0000
  H   H1551     1.0  0.46229  0.53655  0.17169  1.0000
  Fe  Fe116     1.0  0.46577  0.53735  0.44769  1.0000
  S   S238      1.0  0.46270  0.56774  0.42693  1.0000
  C   C1937     1.0  0.53288  0.49969  0.30221  1.0000
  Fe  Fe117     1.0  0.43278  0.56592  0.44567  1.0000
  C   C1938     1.0  0.63902  0.62744  0.45255  1.0000
  Fe  Fe118     1.0  0.45225  0.55506  0.37077  1.0000
  S   S239      1.0  0.45899  0.56649  0.31137  1.0000
  S   S240      1.0  0.43669  0.53658  0.47181  1.0000
  S   S241      1.0  0.45818  0.52465  0.38946  1.0000
  Fe  Fe119     1.0  0.35479  0.63323  0.11391  1.0000
  H   H1552     1.0  0.49560  0.53027  0.12351  1.0000
  S   S242      1.0  0.36701  0.66246  0.10962  1.0000
  Fe  Fe120     1.0  0.59743  0.55187  0.20043  1.0000
  S   S243      1.0  0.58158  0.53436  0.24290  1.0000
  S   S244      1.0  0.62805  0.55852  0.21002  1.0000
  Fe  Fe121     1.0  0.56305  0.55877  0.14864  1.0000
  S   S245      1.0  0.54418  0.54253  0.18761  1.0000
  S   S246      1.0  0.55205  0.57315  0.09406  1.0000
  Fe  Fe122     1.0  0.55912  0.55745  0.23643  1.0000
  S   S247      1.0  0.54663  0.57036  0.29093  1.0000
  Fe  Fe123     1.0  0.56822  0.52086  0.19006  1.0000
  C   C1939     1.0  0.45359  0.52366  0.26498  1.0000
  S   S248      1.0  0.57580  0.57581  0.19719  1.0000
  S   S249      1.0  0.58618  0.53627  0.14758  1.0000
  C   C1940     1.0  0.61679  0.58586  0.26341  1.0000
  H   H1553     1.0  0.35973  0.61354  0.36060  1.0000
  H   H1554     1.0  0.60287  0.58046  0.25935  1.0000
  C   C1941     1.0  0.58813  0.55674  0.33936  1.0000
  H   H1555     1.0  0.37294  0.62248  0.03645  1.0000
  C   C1942     1.0  0.33475  0.72860  0.45576  1.0000
  C   C1943     1.0  0.51020  0.53387  0.03473  1.0000
  C   C1944     1.0  0.52257  0.52673  0.06372  1.0000
  C   C1945     1.0  0.53561  0.53872  0.08152  1.0000
  C   C1946     1.0  0.53651  0.55787  0.07014  1.0000
  C   C1947     1.0  0.63950  0.64567  0.46941  1.0000
  C   C1948     1.0  0.46007  0.56768  0.07937  1.0000
  H   H1556     1.0  0.52168  0.51210  0.07347  1.0000
  H   H1557     1.0  0.54490  0.53312  0.10423  1.0000
  Fe  Fe124     1.0  0.34958  0.66953  0.16238  1.0000
  H   H1558     1.0  0.41291  0.60675  0.14063  1.0000
  C   C1949     1.0  0.48324  0.56832  0.30517  1.0000
  C   C1950     1.0  0.49079  0.56821  0.26760  1.0000
  C   C1951     1.0  0.51032  0.56818  0.26275  1.0000
  C   C1952     1.0  0.52219  0.56966  0.29542  1.0000
  C   C1953     1.0  0.51452  0.57077  0.33276  1.0000
  C   C1954     1.0  0.49516  0.56958  0.33771  1.0000
  H   H1559     1.0  0.48161  0.56749  0.24229  1.0000
  H   H1560     1.0  0.51614  0.56738  0.23380  1.0000
  H   H1561     1.0  0.52363  0.57172  0.35809  1.0000
  H   H1562     1.0  0.48951  0.56974  0.36674  1.0000
  H   H1563     1.0  0.36640  0.64671  0.25683  1.0000
  H   H1564     1.0  0.61561  0.51615  0.34346  1.0000
  H   H1565     1.0  0.58694  0.57031  0.32404  1.0000
  C   C1955     1.0  0.43377  0.57207  0.22168  1.0000
  C   C1956     1.0  0.59577  0.59938  0.42200  1.0000
  C   C1957     1.0  0.59257  0.58354  0.44585  1.0000
  C   C1958     1.0  0.53542  0.59238  0.48332  1.0000
  C   C1959     1.0  0.42331  0.50928  0.08264  1.0000
  C   C1960     1.0  0.35056  0.70588  0.23188  1.0000
  C   C1961     1.0  0.57625  0.53467  0.38687  1.0000
  C   C1962     1.0  0.51410  0.62799  0.03198  1.0000
  H   H1566     1.0  0.50119  0.56458  0.13175  1.0000
  H   H1567     1.0  0.50132  0.52164  0.26393  1.0000
  C   C1963     1.0  0.63180  0.57771  0.24277  1.0000
  H   H1568     1.0  0.32197  0.73177  0.34977  1.0000
  C   C1964     1.0  0.38259  0.61020  0.03677  1.0000
  C   C1965     1.0  0.55811  0.54867  0.48319  1.0000
  C   C1966     1.0  0.55157  0.59249  0.46025  1.0000
  C   C1967     1.0  0.51535  0.60830  0.21751  1.0000
  H   H1569     1.0  0.31110  0.63671  0.29809  1.0000
  H   H1570     1.0  0.54972  0.55322  0.45808  1.0000
  C   C1968     1.0  0.32616  0.63450  0.30138  1.0000
  C   C1969     1.0  0.42606  0.68792  0.32293  1.0000
  C   C1970     1.0  0.42085  0.68223  0.28523  1.0000
  C   C1971     1.0  0.40209  0.67862  0.27649  1.0000
  C   C1972     1.0  0.38846  0.68085  0.30529  1.0000
  C   C1973     1.0  0.39352  0.68690  0.34301  1.0000
  C   C1974     1.0  0.41249  0.69010  0.35182  1.0000
  P   P65       1.0  0.37641  0.68813  0.38135  1.0000
  C   C1975     1.0  0.38334  0.70629  0.41606  1.0000
  C   C1976     1.0  0.35321  0.69412  0.36180  1.0000
  C   C1977     1.0  0.34564  0.71293  0.36358  1.0000
  C   C1978     1.0  0.32758  0.71716  0.34891  1.0000
  C   C1979     1.0  0.62573  0.62334  0.12327  1.0000
  C   C1980     1.0  0.32434  0.68403  0.33009  1.0000
  C   C1981     1.0  0.34229  0.67967  0.34527  1.0000
  C   C1982     1.0  0.38368  0.70267  0.45641  1.0000
  C   C1983     1.0  0.39349  0.73870  0.42909  1.0000
  H   H1571     1.0  0.39686  0.74636  0.48972  1.0000
  H   H1572     1.0  0.56337  0.50526  0.07429  1.0000
  C   C1984     1.0  0.38856  0.72434  0.40259  1.0000
  C   C1985     1.0  0.37548  0.66490  0.40408  1.0000
  C   C1986     1.0  0.38903  0.65034  0.39640  1.0000
  C   C1987     1.0  0.38762  0.63227  0.41347  1.0000
  C   C1988     1.0  0.37275  0.62866  0.43821  1.0000
  C   C1989     1.0  0.35952  0.64321  0.44670  1.0000
  C   C1990     1.0  0.36076  0.66118  0.42932  1.0000
  H   H1573     1.0  0.44065  0.69055  0.32984  1.0000
  H   H1574     1.0  0.39804  0.67423  0.24723  1.0000
  H   H1575     1.0  0.37400  0.67807  0.29779  1.0000
  H   H1576     1.0  0.41685  0.69413  0.38111  1.0000
  H   H1577     1.0  0.35349  0.72449  0.37609  1.0000
  H   H1578     1.0  0.45027  0.57786  0.06567  1.0000
  H   H1579     1.0  0.31811  0.72949  0.14977  1.0000
  H   H1580     1.0  0.63368  0.65801  0.45371  1.0000
  H   H1581     1.0  0.34773  0.66506  0.34391  1.0000
  H   H1582     1.0  0.37964  0.68902  0.46787  1.0000
  C   C1991     1.0  0.63122  0.49865  0.42890  1.0000
  C   C1992     1.0  0.40998  0.52148  0.23981  1.0000
  C   C1993     1.0  0.39242  0.52085  0.30016  1.0000
  H   H1583     1.0  0.38833  0.72748  0.37160  1.0000
  H   H1584     1.0  0.40068  0.65280  0.37739  1.0000
  H   H1585     1.0  0.39820  0.62107  0.40805  1.0000
  H   H1586     1.0  0.31585  0.62059  0.45277  1.0000
  C   C1994     1.0  0.58987  0.50942  0.04671  1.0000
  H   H1587     1.0  0.35033  0.67231  0.43582  1.0000
  H   H1588     1.0  0.61228  0.73943  0.31121  1.0000
  H   H1589     1.0  0.32376  0.65040  0.40458  1.0000
  C   C1995     1.0  0.37354  0.72977  0.16030  1.0000
  C   C1996     1.0  0.34440  0.73858  0.48477  1.0000
  H   H1590     1.0  0.42295  0.50368  0.05304  1.0000
  C   C1997     1.0  0.52398  0.60264  0.18279  1.0000
  C   C1998     1.0  0.60923  0.51483  0.47202  1.0000
  S   S250      1.0  0.37310  0.60603  0.11385  1.0000
  H   H1591     1.0  0.31451  0.59866  0.28585  1.0000
  C   C1999     1.0  0.61974  0.60087  0.28993  1.0000
  C   C2000     1.0  0.52459  0.56491  0.04036  1.0000
  C   C2001     1.0  0.49188  0.60720  0.06259  1.0000
  S   S251      1.0  0.49299  0.51880  0.01537  1.0000
  H   H1592     1.0  0.43134  0.68058  0.26276  1.0000
  H   H1593     1.0  0.36495  0.70113  0.08179  1.0000
  C   C2002     1.0  0.36509  0.62961  0.30914  1.0000
  H   H1594     1.0  0.47480  0.51722  0.30867  1.0000
  C   C2003     1.0  0.63011  0.72915  0.35839  1.0000
  H   H1595     1.0  0.40641  0.61296  0.22195  1.0000
  C   C2004     1.0  0.60274  0.54367  0.33082  1.0000
  P   P66       1.0  0.31809  0.61336  0.36732  1.0000
  H   H1596     1.0  0.38510  0.70240  0.14171  1.0000
  C   C2005     1.0  0.60426  0.56703  0.44233  1.0000
  C   C2006     1.0  0.50821  0.50410  0.34968  1.0000
  C   C2007     1.0  0.40160  0.56532  0.20405  1.0000
  C   C2008     1.0  0.36376  0.71321  0.10159  1.0000
  C   C2009     1.0  0.41431  0.53381  0.12974  1.0000
  H   H1597     1.0  0.61295  0.54720  0.30897  1.0000
  C   C2010     1.0  0.61264  0.50378  0.43842  1.0000
  H   H1598     1.0  0.43204  0.50614  0.33687  1.0000
  C   C2011     1.0  0.53189  0.60223  0.40453  1.0000
  C   C2012     1.0  0.51597  0.60198  0.42773  1.0000
  C   C2013     1.0  0.42021  0.55879  0.21082  1.0000
  H   H1599     1.0  0.53050  0.60573  0.37374  1.0000
  H   H1600     1.0  0.50223  0.60523  0.41497  1.0000
  H   H1601     1.0  0.60238  0.55470  0.46063  1.0000
  C   C2014     1.0  0.35934  0.71750  0.25991  1.0000
  C   C2015     1.0  0.59066  0.52132  0.37789  1.0000
  H   H1602     1.0  0.60419  0.61312  0.49222  1.0000
  S   S252      1.0  0.32456  0.67975  0.12739  1.0000
  H   H1603     1.0  0.32560  0.70213  0.19718  1.0000
  S   S253      1.0  0.40972  0.50083  0.40499  1.0000
  C   C2016     1.0  0.32980  0.70957  0.46202  1.0000
  S   S254      1.0  0.49053  0.52373  0.47978  1.0000
  C   C2017     1.0  0.42187  0.63077  0.10751  1.0000
  H   H1604     1.0  0.62975  0.71425  0.34927  1.0000
  C   C2018     1.0  0.45699  0.54811  0.07521  1.0000
  H   H1605     1.0  0.39081  0.55531  0.19638  1.0000
  C   C2019     1.0  0.33792  0.64280  0.27432  1.0000
  C   C2020     1.0  0.54952  0.59709  0.42036  1.0000
  H   H1606     1.0  0.56120  0.59626  0.40074  1.0000
  H   H1607     1.0  0.43926  0.60149  0.23549  1.0000
  H   H1608     1.0  0.44501  0.54338  0.05852  1.0000
  C   C2021     1.0  0.51320  0.60012  0.14884  1.0000
  C   C2022     1.0  0.42877  0.59149  0.22602  1.0000
  C   C2023     1.0  0.57498  0.55230  0.36752  1.0000
  H   H1609     1.0  0.56604  0.53154  0.40876  1.0000
  H   H1610     1.0  0.56367  0.56250  0.37384  1.0000
  H   H1611     1.0  0.59510  0.51951  0.47901  1.0000
  H   H1612     1.0  0.36145  0.56637  0.43176  1.0000
  C   C2024     1.0  0.38531  0.59966  0.07105  1.0000
  C   C2025     1.0  0.49365  0.60335  0.14925  1.0000
  P   P67       1.0  0.57403  0.58470  0.48144  1.0000
  C   C2026     1.0  0.40312  0.50342  0.22980  1.0000
  C   C2027     1.0  0.35337  0.62140  0.33648  1.0000
  C   C2028     1.0  0.58736  0.55810  0.02621  1.0000
  H   H1613     1.0  0.37346  0.71393  0.26983  1.0000
  P   P68       1.0  0.42609  0.53340  0.20850  1.0000
  C   C2029     1.0  0.50485  0.62192  0.06528  1.0000
  C   C2030     1.0  0.33163  0.73861  0.26236  1.0000
  P   P69       1.0  0.47979  0.59933  0.10547  1.0000
  H   H1614     1.0  0.46032  0.60489  0.48275  1.0000
  C   C2031     1.0  0.51599  0.52131  0.36177  1.0000
  C   C2032     1.0  0.53213  0.52767  0.34405  1.0000
  H   H1615     1.0  0.55291  0.52221  0.30025  1.0000
  C   C2033     1.0  0.35040  0.72779  0.09391  1.0000
  H   H1616     1.0  0.52371  0.60969  0.24407  1.0000
  H   H1617     1.0  0.58743  0.61254  0.42501  1.0000
  H   H1618     1.0  0.49587  0.49953  0.36443  1.0000
  H   H1619     1.0  0.34114  0.72655  0.06866  1.0000
  H   H1620     1.0  0.30920  0.73122  0.22301  1.0000
  C   C2034     1.0  0.32314  0.72733  0.23356  1.0000
  C   C2035     1.0  0.61855  0.56626  0.41474  1.0000
  H   H1621     1.0  0.50788  0.62874  0.09304  1.0000
  H   H1622     1.0  0.60793  0.60707  0.30546  1.0000
  H   H1623     1.0  0.50946  0.52971  0.38494  1.0000
  H   H1624     1.0  0.53819  0.54093  0.35341  1.0000
  C   C2036     1.0  0.38896  0.71696  0.48276  1.0000
  H   H1625     1.0  0.35662  0.74257  0.29712  1.0000
  C   C2037     1.0  0.43371  0.49953  0.11166  1.0000
  C   C2038     1.0  0.40789  0.57852  0.03750  1.0000
  C   C2039     1.0  0.39673  0.58483  0.20748  1.0000
  S   S255      1.0  0.33906  0.63974  0.16920  1.0000
  H   H1626     1.0  0.33197  0.65149  0.25073  1.0000
  C   C2040     1.0  0.33376  0.62359  0.33253  1.0000
  C   C2041     1.0  0.60862  0.59401  0.11611  1.0000
  H   H1627     1.0  0.61174  0.61054  0.37509  1.0000
  H   H1628     1.0  0.38020  0.62784  0.31225  1.0000
  C   C2042     1.0  0.51774  0.59695  0.46705  1.0000
  C   C2043     1.0  0.46964  0.53465  0.09156  1.0000
  H   H1629     1.0  0.46996  0.61096  0.18582  1.0000
  Fe  Fe125     1.0  0.34080  0.67027  0.07489  1.0000
  C   C2044     1.0  0.60972  0.59837  0.39387  1.0000
  C   C2045     1.0  0.36055  0.74470  0.15210  1.0000
  C   C2046     1.0  0.40452  0.53014  0.27519  1.0000
  C   C2047     1.0  0.32586  0.60892  0.44751  1.0000
  C   C2048     1.0  0.42466  0.61332  0.12685  1.0000
  C   C2049     1.0  0.33247  0.71093  0.21867  1.0000
  H   H1630     1.0  0.53902  0.59981  0.18232  1.0000
  C   C2050     1.0  0.44987  0.52904  0.22619  1.0000
  C   C2051     1.0  0.46495  0.53170  0.20117  1.0000
  C   C2052     1.0  0.48345  0.52868  0.21452  1.0000
  C   C2053     1.0  0.48699  0.52322  0.25316  1.0000
  H   H1631     1.0  0.40550  0.53398  0.06921  1.0000
  C   C2054     1.0  0.47207  0.52068  0.27834  1.0000
  H   H1632     1.0  0.44810  0.56746  0.22804  1.0000
  C   C2055     1.0  0.41026  0.59789  0.21890  1.0000
  C   C2056     1.0  0.48860  0.56032  0.11646  1.0000
  S   S256      1.0  0.32995  0.64037  0.07467  1.0000
  C   C2057     1.0  0.54049  0.51701  0.31411  1.0000
  H   H1633     1.0  0.63207  0.58131  0.36839  1.0000
  H   H1634     1.0  0.41010  0.54380  0.28415  1.0000
  C   C2058     1.0  0.51131  0.55297  0.02294  1.0000
  C   C2059     1.0  0.35737  0.64023  0.27796  1.0000
  C   C2060     1.0  0.31706  0.70278  0.33165  1.0000
  C   C2061     1.0  0.43422  0.50676  0.14981  1.0000
  C   C2062     1.0  0.41352  0.52635  0.09174  1.0000
  H   H1635     1.0  0.43469  0.65270  0.07392  1.0000
  H   H1636     1.0  0.46593  0.63649  0.07396  1.0000
  C   C2063     1.0  0.45734  0.61205  0.10753  1.0000
  S   S257      1.0  0.36241  0.68512  0.21391  1.0000
  C   C2064     1.0  0.60407  0.52605  0.35014  1.0000
  C   C2065     1.0  0.42466  0.52406  0.15914  1.0000
  H   H1637     1.0  0.52010  0.59530  0.12242  1.0000
  H   H1638     1.0  0.34579  0.58195  0.37483  1.0000
  H   H1639     1.0  0.48917  0.61506  0.24566  1.0000
  H   H1640     1.0  0.44235  0.52251  0.28539  1.0000
  C   C2066     1.0  0.34273  0.58724  0.40394  1.0000
  C   C2067     1.0  0.39793  0.58377  0.07133  1.0000
  C   C2068     1.0  0.62516  0.58332  0.12359  1.0000
  H   H1641     1.0  0.41768  0.56637  0.03794  1.0000
  C   C2069     1.0  0.34905  0.74391  0.11842  1.0000
  H   H1642     1.0  0.46762  0.51946  0.08713  1.0000
  C   C2070     1.0  0.55581  0.53029  0.49812  1.0000
  S   S258      1.0  0.42061  0.59347  0.47014  1.0000
  H   H1643     1.0  0.39863  0.62387  0.50170  1.0000
  C   C2071     1.0  0.48547  0.54076  0.11201  1.0000
  H   H1644     1.0  0.33160  0.60461  0.50908  1.0000
  C   C2072     1.0  0.43687  0.63914  0.08889  1.0000
  H   H1645     1.0  0.40686  0.54717  0.13580  1.0000
  H   H1646     1.0  0.54567  0.52096  0.48467  1.0000
  H   H1647     1.0  0.40013  0.57568  0.09792  1.0000
  H   H1648     1.0  0.40801  0.63765  0.10672  1.0000
  C   C2073     1.0  0.48503  0.60884  0.18436  1.0000
  H   H1649     1.0  0.62563  0.63887  0.12375  1.0000
  H   H1650     1.0  0.52432  0.63913  0.03440  1.0000
  H   H1651     1.0  0.44211  0.49890  0.17215  1.0000
  C   C2074     1.0  0.34989  0.73383  0.27518  1.0000
  H   H1652     1.0  0.32279  0.70185  0.43894  1.0000
  H   H1653     1.0  0.62738  0.55341  0.41187  1.0000
  C   C2075     1.0  0.37523  0.71409  0.13494  1.0000
  C   C2076     1.0  0.44234  0.60406  0.12730  1.0000
  H   H1654     1.0  0.38243  0.58984  0.20132  1.0000
  C   C2077     1.0  0.45457  0.62987  0.08896  1.0000
  C   C2078     1.0  0.49587  0.61130  0.21835  1.0000
  H   H1655     1.0  0.44414  0.59045  0.14221  1.0000
  H   H1656     1.0  0.33138  0.73549  0.42828  1.0000
  H   H1657     1.0  0.61482  0.55442  0.05249  1.0000
  S   S259      1.0  0.33388  0.69000  0.02432  1.0000
  H   H1658     1.0  0.49512  0.53111  0.19549  1.0000
  C   C2079     1.0  0.47584  0.57397  0.10032  1.0000
  H   H1659     1.0  0.59750  0.51088  0.07410  1.0000
  Fe  Fe126     1.0  0.31529  0.64946  0.12957  1.0000
  C   C2080     1.0  0.34736  0.58449  0.47389  1.0000
  C   C2081     1.0  0.33460  0.59980  0.47962  1.0000
  H   H1660     1.0  0.59599  0.62230  0.11103  1.0000
  C   C2082     1.0  0.62119  0.58190  0.39026  1.0000
  C   C2083     1.0  0.48778  0.59921  0.02583  1.0000
  H   H1661     1.0  0.38896  0.52715  0.32825  1.0000
  S   S260      1.0  0.32798  0.67652  0.50399  1.0000
  H   H1662     1.0  0.38199  0.73012  0.18686  1.0000
  C   C2084     1.0  0.39366  0.73502  0.46916  1.0000
  H   H1663     1.0  0.31604  0.67298  0.31678  1.0000
  H   H1664     1.0  0.37176  0.61467  0.45140  1.0000
  H   H1665     1.0  0.34841  0.64072  0.46715  1.0000
  P   P70       1.0  0.59354  0.49925  0.40481  1.0000
  H   H1666     1.0  0.48435  0.62949  0.49315  1.0000
  C   C2085     1.0  0.57060  0.50629  0.04679  1.0000
  H   H1667     1.0  0.59551  0.58679  0.11124  1.0000
  H   H1668     1.0  0.63700  0.65309  0.25970  1.0000
  C   C2086     1.0  0.60890  0.61403  0.11603  1.0000
  H   H1669     1.0  0.58037  0.55058  0.04925  1.0000
  C   C2087     1.0  0.33011  0.60288  0.40932  1.0000
  H   H1670     1.0  0.47761  0.58813  0.02276  1.0000
  C   C2088     1.0  0.33407  0.70055  0.49771  1.0000
  C   C2089     1.0  0.35147  0.57823  0.43609  1.0000
  C   C2090     1.0  0.38565  0.50290  0.28996  1.0000
  C   C2091     1.0  0.57093  0.56101  0.50090  1.0000
  H   H1671     1.0  0.52536  0.57970  0.03143  1.0000
  C   C2092     1.0  0.62031  0.74334  0.33699  1.0000
  C   C2093     1.0  0.62404  0.52002  0.49667  1.0000
  C   C2094     1.0  0.60676  0.56033  0.02804  1.0000
  H   H1672     1.0  0.62482  0.56782  0.12522  1.0000
  C   C2095     1.0  0.30894  0.64937  0.39795  1.0000
  H   H1673     1.0  0.63298  0.62576  0.42358  1.0000
  C   C2096     1.0  0.63778  0.60779  0.29656  1.0000
  H   H1674     1.0  0.35412  0.57747  0.49877  1.0000
  H   H1675     1.0  0.50536  0.59615  0.48478  1.0000
  C   C2097     1.0  0.40357  0.59339  0.50645  1.0000
  H   H1676     1.0  0.48446  0.56339  0.50324  1.0000
  H   H1677     1.0  0.54575  0.50220  0.01195  1.0000
  Fe  Fe127     1.0  0.44253  0.51875  0.91604  1.0000
  S   S261      1.0  0.43816  0.54802  0.89087  1.0000
  H   H1678     1.0  0.55903  0.59097  0.55979  1.0000
  Fe  Fe128     1.0  0.47198  0.53205  0.97303  1.0000
  S   S262      1.0  0.46942  0.56278  0.95376  1.0000
  C   C2098     1.0  0.39455  0.61082  0.51584  1.0000
  Fe  Fe129     1.0  0.43833  0.55869  0.95269  1.0000
  S   S263      1.0  0.41710  0.58331  0.95976  1.0000
  Fe  Fe130     1.0  0.46923  0.55005  0.89372  1.0000
  S   S264      1.0  0.48417  0.56623  0.84774  1.0000
  S   S265      1.0  0.44071  0.52901  0.97808  1.0000
  S   S266      1.0  0.47387  0.51953  0.91278  1.0000
  Fe  Fe131     1.0  0.34350  0.62559  0.60209  1.0000
  S   S267      1.0  0.31757  0.67473  0.61816  1.0000
  S   S268      1.0  0.35799  0.65348  0.59519  1.0000
  Fe  Fe132     1.0  0.58415  0.57634  0.69887  1.0000
  S   S269      1.0  0.59373  0.54685  0.71822  1.0000
  S   S270      1.0  0.59297  0.60594  0.71751  1.0000
  Fe  Fe133     1.0  0.55441  0.56110  0.64269  1.0000
  S   S271      1.0  0.56137  0.53016  0.65628  1.0000
  S   S272      1.0  0.53096  0.57468  0.60627  1.0000
  Fe  Fe134     1.0  0.56318  0.54019  0.71866  1.0000
  S   S273      1.0  0.55097  0.52181  0.76514  1.0000
  Fe  Fe135     1.0  0.59141  0.53879  0.65466  1.0000
  S   S274      1.0  0.61608  0.52213  0.62970  1.0000
  S   S275      1.0  0.55365  0.57033  0.70527  1.0000
  S   S276      1.0  0.58441  0.56896  0.63516  1.0000
  H   H1679     1.0  0.33693  0.65782  0.86382  1.0000
  C   C2099     1.0  0.37980  0.61146  0.54223  1.0000
  H   H1680     1.0  0.60876  0.63947  0.75131  1.0000
  C   C2100     1.0  0.50780  0.52960  0.68735  1.0000
  C   C2101     1.0  0.35512  0.70346  0.75329  1.0000
  H   H1681     1.0  0.36225  0.69421  0.77442  1.0000
  H   H1682     1.0  0.61418  0.51321  0.01140  1.0000
  C   C2102     1.0  0.35070  0.72259  0.76306  1.0000
  C   C2103     1.0  0.52447  0.54080  0.56793  1.0000
  C   C2104     1.0  0.51934  0.56014  0.57243  1.0000
  H   H1683     1.0  0.56763  0.61215  0.61422  1.0000
  C   C2105     1.0  0.39085  0.54354  0.89861  1.0000
  H   H1684     1.0  0.62226  0.62086  0.66513  1.0000
  H   H1685     1.0  0.53557  0.53447  0.58594  1.0000
  H   H1686     1.0  0.59689  0.50994  0.94887  1.0000
  H   H1687     1.0  0.31501  0.66481  0.96855  1.0000
  C   C2106     1.0  0.50335  0.55344  0.82794  1.0000
  C   C2107     1.0  0.50384  0.53338  0.82621  1.0000
  C   C2108     1.0  0.51886  0.52360  0.80795  1.0000
  C   C2109     1.0  0.53322  0.53391  0.79116  1.0000
  C   C2110     1.0  0.53302  0.55388  0.79424  1.0000
  C   C2111     1.0  0.51811  0.56362  0.81259  1.0000
  H   H1688     1.0  0.49246  0.52542  0.83789  1.0000
  H   H1689     1.0  0.51907  0.50811  0.80584  1.0000
  H   H1690     1.0  0.54446  0.56183  0.78289  1.0000
  H   H1691     1.0  0.51801  0.57910  0.81481  1.0000
  H   H1692     1.0  0.57732  0.58196  0.94191  1.0000
  C   C2112     1.0  0.62622  0.65132  0.66256  1.0000
  H   H1693     1.0  0.38055  0.56451  0.56853  1.0000
  H   H1694     1.0  0.63425  0.71525  0.69895  1.0000
  H   H1695     1.0  0.31021  0.56047  0.65977  1.0000
  C   C2113     1.0  0.58574  0.57578  0.96553  1.0000
  H   H1696     1.0  0.60934  0.55603  0.89000  1.0000
  C   C2114     1.0  0.62378  0.63071  0.92065  1.0000
  C   C2115     1.0  0.36340  0.54804  0.85747  1.0000
  C   C2116     1.0  0.61573  0.57029  0.99860  1.0000
  H   H1697     1.0  0.45149  0.62573  0.68022  1.0000
  H   H1698     1.0  0.44606  0.58941  0.53877  1.0000
  H   H1699     1.0  0.48679  0.52336  0.59858  1.0000
  H   H1700     1.0  0.39681  0.60237  0.83214  1.0000
  C   C2117     1.0  0.60251  0.62383  0.97309  1.0000
  C   C2118     1.0  0.32398  0.58249  0.69261  1.0000
  C   C2119     1.0  0.39264  0.56966  0.85318  1.0000
  H   H1701     1.0  0.39247  0.69742  0.95355  1.0000
  H   H1702     1.0  0.55992  0.50970  0.84596  1.0000
  C   C2120     1.0  0.45363  0.55801  0.58859  1.0000
  C   C2121     1.0  0.57037  0.60066  0.55598  1.0000
  C   C2122     1.0  0.36783  0.69487  0.98890  1.0000
  H   H1703     1.0  0.49391  0.59894  0.96437  1.0000
  H   H1704     1.0  0.33044  0.55308  0.84112  1.0000
  H   H1705     1.0  0.40388  0.52235  0.85062  1.0000
  C   C2123     1.0  0.58040  0.60077  0.52099  1.0000
  H   H1706     1.0  0.34491  0.70936  0.85359  1.0000
  C   C2124     1.0  0.63594  0.66605  0.64507  1.0000
  H   H1707     1.0  0.33590  0.60276  0.73222  1.0000
  C   C2125     1.0  0.42481  0.56500  0.62321  1.0000
  C   C2126     1.0  0.50105  0.53781  0.51602  1.0000
  H   H1708     1.0  0.33067  0.58835  0.66721  1.0000
  H   H1709     1.0  0.41616  0.57425  0.64140  1.0000
  H   H1710     1.0  0.40731  0.56733  0.86161  1.0000
  C   C2127     1.0  0.34417  0.72025  0.98072  1.0000
  S   S277      1.0  0.38587  0.73073  0.90559  1.0000
  C   C2128     1.0  0.56608  0.52421  0.53114  1.0000
  C   C2129     1.0  0.44243  0.57078  0.61069  1.0000
  H   H1711     1.0  0.40426  0.54294  0.62047  1.0000
  H   H1712     1.0  0.34659  0.70383  0.55492  1.0000
  H   H1713     1.0  0.32577  0.67554  0.80468  1.0000
  H   H1714     1.0  0.33041  0.72638  0.98725  1.0000
  C   C2130     1.0  0.33109  0.65006  0.83925  1.0000
  C   C2131     1.0  0.61300  0.60879  0.74748  1.0000
  C   C2132     1.0  0.34853  0.72965  0.52069  1.0000
  C   C2133     1.0  0.41777  0.53481  0.75355  1.0000
  C   C2134     1.0  0.30907  0.70095  0.91501  1.0000
  H   H1715     1.0  0.39781  0.53555  0.92205  1.0000
  S   S278      1.0  0.31829  0.63477  0.56651  1.0000
  H   H1716     1.0  0.37247  0.68141  0.00191  1.0000
  C   C2135     1.0  0.62303  0.65010  0.93103  1.0000
  C   C2136     1.0  0.59456  0.56295  0.83647  1.0000
  H   H1717     1.0  0.37236  0.62486  0.54743  1.0000
  C   C2137     1.0  0.37906  0.70389  0.96145  1.0000
  C   C2138     1.0  0.34157  0.70846  0.68868  1.0000
  H   H1718     1.0  0.38874  0.62637  0.61578  1.0000
  H   H1719     1.0  0.51938  0.51467  0.53617  1.0000
  H   H1720     1.0  0.44803  0.53093  0.67708  1.0000
  C   C2139     1.0  0.39228  0.60475  0.00286  1.0000
  C   C2140     1.0  0.54789  0.52588  0.91950  1.0000
  H   H1721     1.0  0.39624  0.56556  0.71586  1.0000
  C   C2141     1.0  0.61486  0.50176  0.59923  1.0000
  H   H1722     1.0  0.47089  0.53838  0.72994  1.0000
  C   C2142     1.0  0.52979  0.53139  0.93169  1.0000
  C   C2143     1.0  0.52250  0.54978  0.92347  1.0000
  C   C2144     1.0  0.53334  0.56297  0.90416  1.0000
  C   C2145     1.0  0.55157  0.55779  0.89296  1.0000
  C   C2146     1.0  0.34011  0.62276  0.97373  1.0000
  H   H1723     1.0  0.34233  0.52916  0.66499  1.0000
  C   C2147     1.0  0.37927  0.54081  0.72399  1.0000
  C   C2148     1.0  0.57895  0.53637  0.54868  1.0000
  H   H1724     1.0  0.52127  0.52156  0.94757  1.0000
  H   H1725     1.0  0.50833  0.55374  0.93172  1.0000
  H   H1726     1.0  0.52747  0.57708  0.89730  1.0000
  H   H1727     1.0  0.55987  0.56801  0.87765  1.0000
  C   C2149     1.0  0.44691  0.54018  0.57728  1.0000
  H   H1728     1.0  0.59177  0.56374  0.54719  1.0000
  C   C2150     1.0  0.42908  0.53480  0.58861  1.0000
  C   C2151     1.0  0.47551  0.61900  0.58805  1.0000
  H   H1729     1.0  0.33035  0.73695  0.67731  1.0000
  H   H1730     1.0  0.47952  0.62347  0.61724  1.0000
  S   S279      1.0  0.33021  0.63334  0.65912  1.0000
  S   S280      1.0  0.35679  0.59601  0.59607  1.0000
  H   H1731     1.0  0.63074  0.57186  0.00075  1.0000
  C   C2152     1.0  0.58156  0.55462  0.53341  1.0000
  C   C2153     1.0  0.49697  0.60538  0.99254  1.0000
  C   C2154     1.0  0.35944  0.55372  0.65730  1.0000
  H   H1732     1.0  0.32356  0.58513  0.89411  1.0000
  H   H1733     1.0  0.49392  0.63865  0.56054  1.0000
  C   C2155     1.0  0.32466  0.66008  0.80614  1.0000
  C   C2156     1.0  0.31770  0.64952  0.97073  1.0000
  C   C2157     1.0  0.32245  0.61992  0.80875  1.0000
  C   C2158     1.0  0.37267  0.72089  0.94311  1.0000
  P   P71       1.0  0.32215  0.59397  0.80992  1.0000
  H   H1734     1.0  0.62088  0.57878  0.74971  1.0000
  H   H1735     1.0  0.63260  0.62606  0.89658  1.0000
  H   H1736     1.0  0.50058  0.58314  0.55323  1.0000
  H   H1737     1.0  0.62856  0.71655  0.82898  1.0000
  C   C2159     1.0  0.59047  0.62468  0.58385  1.0000
  C   C2160     1.0  0.45679  0.59980  0.54413  1.0000
  C   C2161     1.0  0.35403  0.53715  0.67636  1.0000
  C   C2162     1.0  0.35014  0.70281  0.99769  1.0000
  H   H1738     1.0  0.57314  0.53564  0.89246  1.0000
  H   H1739     1.0  0.31018  0.74236  0.53014  1.0000
  C   C2163     1.0  0.36367  0.59729  0.82208  1.0000
  C   C2164     1.0  0.39859  0.57661  0.52550  1.0000
  H   H1740     1.0  0.33504  0.62251  0.86648  1.0000
  H   H1741     1.0  0.51745  0.62431  0.96990  1.0000
  H   H1742     1.0  0.61203  0.67143  0.97078  1.0000
  H   H1743     1.0  0.38872  0.71427  0.51389  1.0000
  H   H1744     1.0  0.41445  0.52816  0.69192  1.0000
  C   C2165     1.0  0.57687  0.56568  0.99484  1.0000
  H   H1745     1.0  0.50273  0.57933  0.74937  1.0000
  C   C2166     1.0  0.48358  0.62776  0.55597  1.0000
  H   H1746     1.0  0.63442  0.74540  0.78928  1.0000
  C   C2167     1.0  0.43772  0.62547  0.66645  1.0000
  H   H1747     1.0  0.59433  0.63381  0.60819  1.0000
  C   C2168     1.0  0.57533  0.61260  0.58714  1.0000
  C   C2169     1.0  0.30692  0.74611  0.56008  1.0000
  Fe  Fe136     1.0  0.33147  0.66348  0.56394  1.0000
  C   C2170     1.0  0.61751  0.62727  0.76020  1.0000
  C   C2171     1.0  0.60072  0.62478  0.54940  1.0000
  C   C2172     1.0  0.37784  0.65901  0.90373  1.0000
  C   C2173     1.0  0.38809  0.64982  0.93368  1.0000
  C   C2174     1.0  0.40491  0.63998  0.92533  1.0000
  C   C2175     1.0  0.41157  0.63936  0.88716  1.0000
  C   C2176     1.0  0.40135  0.64845  0.85664  1.0000
  C   C2177     1.0  0.38435  0.65826  0.86538  1.0000
  P   P72       1.0  0.41047  0.64940  0.80745  1.0000
  C   C2178     1.0  0.40824  0.67428  0.79274  1.0000
  C   C2179     1.0  0.43488  0.64125  0.80571  1.0000
  C   C2180     1.0  0.44870  0.65340  0.79206  1.0000
  C   C2181     1.0  0.46741  0.64681  0.78967  1.0000
  C   C2182     1.0  0.47250  0.62810  0.80095  1.0000
  C   C2183     1.0  0.45888  0.61593  0.81456  1.0000
  C   C2184     1.0  0.44016  0.62239  0.81665  1.0000
  C   C2185     1.0  0.40320  0.67918  0.75414  1.0000
  C   C2186     1.0  0.40062  0.69843  0.74352  1.0000
  C   C2187     1.0  0.40288  0.71293  0.77136  1.0000
  C   C2188     1.0  0.40808  0.70820  0.80971  1.0000
  C   C2189     1.0  0.41097  0.68898  0.82031  1.0000
  C   C2190     1.0  0.39637  0.63507  0.77463  1.0000
  C   C2191     1.0  0.37730  0.63998  0.76854  1.0000
  C   C2192     1.0  0.36657  0.62996  0.74121  1.0000
  C   C2193     1.0  0.37474  0.61506  0.71936  1.0000
  C   C2194     1.0  0.39367  0.61004  0.72514  1.0000
  C   C2195     1.0  0.40447  0.62000  0.75245  1.0000
  H   H1748     1.0  0.36517  0.66729  0.91050  1.0000
  H   H1749     1.0  0.38325  0.65066  0.96353  1.0000
  H   H1750     1.0  0.41304  0.63304  0.94864  1.0000
  H   H1751     1.0  0.42499  0.63225  0.88248  1.0000
  H   H1752     1.0  0.37657  0.66619  0.84303  1.0000
  H   H1753     1.0  0.44516  0.66796  0.78322  1.0000
  H   H1754     1.0  0.47802  0.65627  0.77928  1.0000
  H   H1755     1.0  0.48701  0.62303  0.79937  1.0000
  H   H1756     1.0  0.46289  0.60148  0.82376  1.0000
  H   H1757     1.0  0.42981  0.61261  0.82686  1.0000
  H   H1758     1.0  0.40068  0.66824  0.73237  1.0000
  H   H1759     1.0  0.39605  0.70210  0.71405  1.0000
  H   H1760     1.0  0.40023  0.72781  0.76339  1.0000
  H   H1761     1.0  0.40951  0.71946  0.83149  1.0000
  H   H1762     1.0  0.41488  0.68568  0.85031  1.0000
  H   H1763     1.0  0.37080  0.65212  0.78339  1.0000
  H   H1764     1.0  0.35208  0.63444  0.73585  1.0000
  H   H1765     1.0  0.36659  0.60791  0.69693  1.0000
  H   H1766     1.0  0.40026  0.59913  0.70694  1.0000
  H   H1767     1.0  0.41926  0.61634  0.75454  1.0000
  C   C2196     1.0  0.44318  0.53343  0.70661  1.0000
  H   H1768     1.0  0.58691  0.53168  0.57422  1.0000
  H   H1769     1.0  0.35197  0.55858  0.63115  1.0000
  H   H1770     1.0  0.37677  0.56663  0.94312  1.0000
  C   C2197     1.0  0.33626  0.64248  0.97106  1.0000
  H   H1771     1.0  0.56402  0.51012  0.54328  1.0000
  C   C2198     1.0  0.33692  0.72748  0.69868  1.0000
  C   C2199     1.0  0.31776  0.58361  0.76229  1.0000
  C   C2200     1.0  0.61351  0.61741  0.94161  1.0000
  C   C2201     1.0  0.59926  0.51069  0.01135  1.0000
  C   C2202     1.0  0.51530  0.52963  0.53978  1.0000
  C   C2203     1.0  0.32681  0.59072  0.72946  1.0000
  H   H1772     1.0  0.61577  0.65465  0.68449  1.0000
  C   C2204     1.0  0.37749  0.56293  0.91238  1.0000
  H   H1773     1.0  0.35967  0.51764  0.72361  1.0000
  H   H1774     1.0  0.51868  0.50707  0.72434  1.0000
  C   C2205     1.0  0.41809  0.54714  0.61180  1.0000
  C   C2206     1.0  0.33064  0.70857  0.86389  1.0000
  C   C2207     1.0  0.34441  0.58329  0.82501  1.0000
  C   C2208     1.0  0.37483  0.59489  0.56167  1.0000
  P   P73       1.0  0.39322  0.53182  0.76464  1.0000
  C   C2209     1.0  0.58683  0.57757  0.81292  1.0000
  C   C2210     1.0  0.58804  0.59669  0.82468  1.0000
  C   C2211     1.0  0.59711  0.60130  0.85982  1.0000
  H   H1775     1.0  0.38981  0.61269  0.97623  1.0000
  P   P74       1.0  0.61619  0.59220  0.92998  1.0000
  H   H1776     1.0  0.41271  0.60209  0.59628  1.0000
  C   C2212     1.0  0.40660  0.63999  0.65799  1.0000
  C   C2213     1.0  0.42413  0.53198  0.71515  1.0000
  H   H1777     1.0  0.36177  0.53344  0.86819  1.0000
  H   H1778     1.0  0.36726  0.51061  0.81311  1.0000
  H   H1779     1.0  0.44609  0.58668  0.70682  1.0000
  H   H1780     1.0  0.33862  0.70334  0.65950  1.0000
  C   C2214     1.0  0.51161  0.51040  0.69689  1.0000
  H   H1781     1.0  0.61260  0.63402  0.54700  1.0000
  C   C2215     1.0  0.36389  0.53069  0.70965  1.0000
  C   C2216     1.0  0.49882  0.53426  0.65195  1.0000
  C   C2217     1.0  0.38667  0.54427  0.80909  1.0000
  H   H1782     1.0  0.35586  0.73741  0.54337  1.0000
  C   C2218     1.0  0.60484  0.58671  0.88383  1.0000
  H   H1783     1.0  0.58016  0.57416  0.78519  1.0000
  H   H1784     1.0  0.58240  0.60799  0.80583  1.0000
  H   H1785     1.0  0.59811  0.61625  0.86778  1.0000
  C   C2219     1.0  0.38437  0.57743  0.55365  1.0000
  S   S281      1.0  0.35756  0.67301  0.70324  1.0000
  H   H1786     1.0  0.49640  0.54910  0.64384  1.0000
  H   H1787     1.0  0.51456  0.58364  0.68260  1.0000
  H   H1788     1.0  0.35449  0.61732  0.97437  1.0000
  C   C2220     1.0  0.51022  0.61967  0.99565  1.0000
  H   H1789     1.0  0.59357  0.64819  0.00797  1.0000
  C   C2221     1.0  0.49348  0.51972  0.62632  1.0000
  H   H1790     1.0  0.32841  0.59484  0.97924  1.0000
  H   H1791     1.0  0.42380  0.52109  0.57919  1.0000
  C   C2222     1.0  0.38628  0.59168  0.83484  1.0000
  H   H1792     1.0  0.62122  0.52811  0.52321  1.0000
  C   C2223     1.0  0.41591  0.61212  0.61952  1.0000
  H   H1793     1.0  0.42771  0.65066  0.69742  1.0000
  C   C2224     1.0  0.38942  0.50649  0.77094  1.0000
  C   C2225     1.0  0.40241  0.62612  0.62992  1.0000
  C   C2226     1.0  0.47823  0.62260  0.51802  1.0000
  C   C2227     1.0  0.35542  0.72931  0.95357  1.0000
  C   C2228     1.0  0.61219  0.65639  0.96249  1.0000
  P   P75       1.0  0.45130  0.59397  0.62376  1.0000
  C   C2229     1.0  0.32994  0.63006  0.84065  1.0000
  C   C2230     1.0  0.55892  0.53937  0.90094  1.0000
  H   H1794     1.0  0.35042  0.74244  0.93972  1.0000
  C   C2231     1.0  0.62426  0.59306  0.75935  1.0000
  H   H1795     1.0  0.51094  0.74303  0.73601  1.0000
  C   C2232     1.0  0.46243  0.60454  0.58236  1.0000
  C   C2233     1.0  0.31640  0.65019  0.77509  1.0000
  C   C2234     1.0  0.63318  0.63004  0.78476  1.0000
  H   H1796     1.0  0.59466  0.61392  0.99017  1.0000
  C   C2235     1.0  0.60188  0.64328  0.98343  1.0000
  C   C2236     1.0  0.42432  0.63974  0.67608  1.0000
  Fe  Fe137     1.0  0.34279  0.66197  0.64983  1.0000
  H   H1797     1.0  0.39610  0.65095  0.66555  1.0000
  H   H1798     1.0  0.46858  0.58039  0.76157  1.0000
  H   H1799     1.0  0.35444  0.72810  0.79163  1.0000
  H   H1800     1.0  0.33894  0.69555  0.91851  1.0000
  H   H1801     1.0  0.36124  0.61162  0.81119  1.0000
  C   C2237     1.0  0.34155  0.73456  0.73572  1.0000
  C   C2238     1.0  0.50470  0.56819  0.54950  1.0000
  H   H1802     1.0  0.30798  0.62307  0.75269  1.0000
  H   H1803     1.0  0.31851  0.72204  0.81288  1.0000
  H   H1804     1.0  0.51222  0.54085  0.70710  1.0000
  C   C2239     1.0  0.43083  0.53929  0.78299  1.0000
  C   C2240     1.0  0.44988  0.54060  0.77446  1.0000
  C   C2241     1.0  0.32731  0.70097  0.90069  1.0000
  C   C2242     1.0  0.58943  0.50868  0.97599  1.0000
  C   C2243     1.0  0.34369  0.56023  0.84102  1.0000
  C   C2244     1.0  0.37205  0.56438  0.80767  1.0000
  C   C2245     1.0  0.36583  0.57712  0.87881  1.0000
  C   C2246     1.0  0.35075  0.69648  0.71593  1.0000
  C   C2247     1.0  0.37452  0.56405  0.67186  1.0000
  C   C2248     1.0  0.38437  0.55766  0.70518  1.0000
  H   H1805     1.0  0.42646  0.54139  0.81268  1.0000
  H   H1806     1.0  0.45993  0.54365  0.79759  1.0000
  H   H1807     1.0  0.34759  0.65246  0.97026  1.0000
  P   P76       1.0  0.55743  0.50223  0.93042  1.0000
  C   C2249     1.0  0.48705  0.58788  0.65683  1.0000
  H   H1808     1.0  0.36713  0.56955  0.77908  1.0000
  H   H1809     1.0  0.35785  0.58955  0.88995  1.0000
  H   H1810     1.0  0.37869  0.57686  0.65686  1.0000
  C   C2250     1.0  0.59577  0.61287  0.51813  1.0000
  C   C2251     1.0  0.46768  0.58927  0.66345  1.0000
  C   C2252     1.0  0.46101  0.58631  0.70131  1.0000
  C   C2253     1.0  0.47364  0.58277  0.73232  1.0000
  C   C2254     1.0  0.49292  0.58203  0.72557  1.0000
  C   C2255     1.0  0.49960  0.58453  0.68792  1.0000
  H   H1811     1.0  0.31116  0.65802  0.74966  1.0000
  H   H1812     1.0  0.50182  0.55865  0.00089  1.0000
  H   H1813     1.0  0.45543  0.53066  0.55908  1.0000
  C   C2256     1.0  0.32538  0.61009  0.97639  1.0000
  H   H1814     1.0  0.59370  0.54814  0.82702  1.0000
  C   C2257     1.0  0.43349  0.61137  0.63846  1.0000
  C   C2258     1.0  0.45607  0.53761  0.73633  1.0000
  C   C2259     1.0  0.39493  0.53517  0.85240  1.0000
  C   C2260     1.0  0.34328  0.71067  0.52726  1.0000
  H   H1815     1.0  0.49260  0.58914  0.62772  1.0000
  C   C2261     1.0  0.60525  0.57821  0.96720  1.0000
  C   C2262     1.0  0.31565  0.71579  0.84101  1.0000
  H   H1816     1.0  0.46747  0.56195  0.57950  1.0000
  C   C2263     1.0  0.60343  0.56748  0.87195  1.0000
  C   C2264     1.0  0.57017  0.50502  0.97588  1.0000
  C   C2265     1.0  0.62990  0.63226  0.65168  1.0000
  C   C2266     1.0  0.30920  0.58424  0.88381  1.0000
  H   H1817     1.0  0.44412  0.50571  0.83070  1.0000
  C   C2267     1.0  0.57056  0.49896  0.85404  1.0000
  C   C2268     1.0  0.40509  0.58906  0.00316  1.0000
  C   C2269     1.0  0.31494  0.63026  0.77666  1.0000
  C   C2270     1.0  0.49748  0.50051  0.63557  1.0000
  H   H1818     1.0  0.63113  0.66027  0.91510  1.0000
  H   H1819     1.0  0.56179  0.56396  0.99372  1.0000
  C   C2271     1.0  0.30700  0.56716  0.75813  1.0000
  H   H1820     1.0  0.53628  0.58800  0.51358  1.0000
  C   C2272     1.0  0.37554  0.50036  0.79639  1.0000
  C   C2273     1.0  0.63849  0.72695  0.83923  1.0000
  H   H1821     1.0  0.40568  0.56311  0.51859  1.0000
  C   C2274     1.0  0.31251  0.56672  0.68842  1.0000
  C   C2275     1.0  0.49558  0.55706  0.52122  1.0000
  H   H1822     1.0  0.63298  0.68087  0.65326  1.0000
  H   H1823     1.0  0.63656  0.64431  0.79445  1.0000
  H   H1824     1.0  0.63939  0.72120  0.00786  1.0000
  C   C2276     1.0  0.63985  0.59581  0.78410  1.0000
  C   C2277     1.0  0.46479  0.60868  0.51214  1.0000
  C   C2278     1.0  0.56072  0.50432  0.01148  1.0000
  Fe  Fe138     1.0  0.43020  0.91974  0.15599  1.0000
  S   S282      1.0  0.43137  0.88989  0.13116  1.0000
  S   S283      1.0  0.41470  0.94525  0.12931  1.0000
  Fe  Fe139     1.0  0.45077  0.90771  0.22940  1.0000
  S   S284      1.0  0.45388  0.87687  0.21140  1.0000
  S   S285      1.0  0.46179  0.91952  0.28572  1.0000
  Fe  Fe140     1.0  0.46126  0.88898  0.15311  1.0000
  S   S286      1.0  0.48518  0.87425  0.12095  1.0000
  Fe  Fe141     1.0  0.42385  0.88019  0.19128  1.0000
  S   S287      1.0  0.40305  0.85631  0.19536  1.0000
  S   S288      1.0  0.46067  0.91970  0.17306  1.0000
  S   S289      1.0  0.42010  0.91017  0.21444  1.0000
  Fe  Fe142     1.0  0.34918  0.80901  0.36590  1.0000
  S   S290      1.0  0.36908  0.83353  0.35879  1.0000
  S   S291      1.0  0.35671  0.77739  0.36362  1.0000
  Fe  Fe143     1.0  0.56322  0.91375  0.35254  1.0000
  S   S292      1.0  0.55794  0.94182  0.38289  1.0000
  S   S293      1.0  0.54947  0.90589  0.29536  1.0000
  Fe  Fe144     1.0  0.59450  0.90101  0.40883  1.0000
  S   S294      1.0  0.59188  0.92824  0.44378  1.0000
  S   S295      1.0  0.61824  0.87900  0.41742  1.0000
  Fe  Fe145     1.0  0.56078  0.92455  0.43798  1.0000
  H   H1825     1.0  0.31283  0.76864  0.18329  1.0000
  Fe  Fe146     1.0  0.58916  0.94327  0.38610  1.0000
  S   S296      1.0  0.60373  0.97080  0.37462  1.0000
  S   S297      1.0  0.56349  0.89589  0.40734  1.0000
  S   S298      1.0  0.59440  0.91648  0.35144  1.0000
  H   H1826     1.0  0.40100  0.85194  0.10324  1.0000
  C   C2279     1.0  0.58036  0.98202  0.26787  1.0000
  C   C2280     1.0  0.58475  0.97327  0.30394  1.0000
  C   C2281     1.0  0.59688  0.98210  0.33053  1.0000
  H   H1827     1.0  0.39668  0.75286  0.41866  1.0000
  H   H1828     1.0  0.57123  0.97497  0.24717  1.0000
  H   H1829     1.0  0.57908  0.95949  0.31076  1.0000
  C   C2282     1.0  0.35291  0.85392  0.05149  1.0000
  C   C2283     1.0  0.49728  0.88786  0.08678  1.0000
  C   C2284     1.0  0.51151  0.87903  0.06443  1.0000
  H   H1830     1.0  0.39567  0.78431  0.05964  1.0000
  C   C2285     1.0  0.51691  0.90916  0.03189  1.0000
  H   H1831     1.0  0.47302  0.89186  0.44106  1.0000
  C   C2286     1.0  0.49295  0.90737  0.08167  1.0000
  H   H1832     1.0  0.51491  0.86393  0.06832  1.0000
  C   C2287     1.0  0.40348  0.98632  0.37538  1.0000
  H   H1833     1.0  0.61672  0.93791  0.29161  1.0000
  C   C2288     1.0  0.49892  0.90291  0.42073  1.0000
  C   C2289     1.0  0.48632  0.91748  0.28664  1.0000
  C   C2290     1.0  0.49674  0.92676  0.31569  1.0000
  C   C2291     1.0  0.51637  0.92419  0.31736  1.0000
  C   C2292     1.0  0.52543  0.91190  0.29076  1.0000
  C   C2293     1.0  0.51500  0.90341  0.26083  1.0000
  C   C2294     1.0  0.49552  0.90620  0.25865  1.0000
  H   H1834     1.0  0.48965  0.93568  0.33717  1.0000
  H   H1835     1.0  0.52436  0.93125  0.33990  1.0000
  H   H1836     1.0  0.52190  0.89418  0.23985  1.0000
  H   H1837     1.0  0.48761  0.89915  0.23589  1.0000
  C   C2295     1.0  0.37818  0.83967  0.31295  1.0000
  C   C2296     1.0  0.37555  0.82818  0.27986  1.0000
  C   C2297     1.0  0.38333  0.83337  0.24399  1.0000
  C   C2298     1.0  0.39362  0.85013  0.24088  1.0000
  C   C2299     1.0  0.39613  0.86167  0.27388  1.0000
  C   C2300     1.0  0.38856  0.85640  0.30987  1.0000
  H   H1838     1.0  0.36773  0.81519  0.28203  1.0000
  H   H1839     1.0  0.38157  0.82426  0.21868  1.0000
  H   H1840     1.0  0.40393  0.87463  0.27149  1.0000
  H   H1841     1.0  0.39072  0.86528  0.33543  1.0000
  C   C2301     1.0  0.45117  0.96435  0.04880  1.0000
  C   C2302     1.0  0.44303  0.95307  0.07766  1.0000
  C   C2303     1.0  0.42608  0.95916  0.09450  1.0000
  C   C2304     1.0  0.41752  0.97656  0.08273  1.0000
  C   C2305     1.0  0.52511  0.81723  0.42227  1.0000
  H   H1842     1.0  0.44970  0.93958  0.08637  1.0000
  H   H1843     1.0  0.56678  0.96372  0.16735  1.0000
  C   C2306     1.0  0.38933  0.83303  0.05913  1.0000
  C   C2307     1.0  0.46492  0.97039  0.31032  1.0000
  C   C2308     1.0  0.47798  0.98122  0.33091  1.0000
  C   C2309     1.0  0.44468  0.99775  0.20592  1.0000
  H   H1844     1.0  0.45953  0.97886  0.42149  1.0000
  C   C2310     1.0  0.44796  0.96517  0.37026  1.0000
  C   C2311     1.0  0.44981  0.96262  0.32979  1.0000
  P   P77       1.0  0.42812  0.95621  0.39605  1.0000
  C   C2312     1.0  0.41538  0.93892  0.36766  1.0000
  C   C2313     1.0  0.43551  0.94335  0.43964  1.0000
  C   C2314     1.0  0.45427  0.93697  0.44505  1.0000
  C   C2315     1.0  0.61976  0.90760  0.11626  1.0000
  C   C2316     1.0  0.50988  0.96169  0.13441  1.0000
  C   C2317     1.0  0.32313  0.86363  0.45418  1.0000
  H   H1845     1.0  0.60455  0.86274  0.15738  1.0000
  C   C2318     1.0  0.39567  0.93974  0.36539  1.0000
  C   C2319     1.0  0.38607  0.92613  0.34335  1.0000
  C   C2320     1.0  0.39605  0.91161  0.32356  1.0000
  C   C2321     1.0  0.41562  0.91035  0.32682  1.0000
  C   C2322     1.0  0.42519  0.92371  0.34951  1.0000
  C   C2323     1.0  0.41347  0.97716  0.40608  1.0000
  H   H1846     1.0  0.32145  0.82957  0.10491  1.0000
  C   C2324     1.0  0.45193  0.87148  0.04274  1.0000
  H   H1847     1.0  0.47042  0.98351  0.18790  1.0000
  C   C2325     1.0  0.63509  0.91915  0.48374  1.0000
  S   S299      1.0  0.31858  0.75812  0.28205  1.0000
  H   H1848     1.0  0.46658  0.96778  0.27931  1.0000
  H   H1849     1.0  0.47409  0.92195  0.48329  1.0000
  C   C2326     1.0  0.33619  0.77382  0.06110  1.0000
  C   C2327     1.0  0.61563  0.79644  0.43359  1.0000
  H   H1850     1.0  0.43983  0.95446  0.31312  1.0000
  H   H1851     1.0  0.46483  0.94015  0.42385  1.0000
  H   H1852     1.0  0.50714  0.93270  0.15481  1.0000
  C   C2328     1.0  0.51826  0.95102  0.19986  1.0000
  S   S300      1.0  0.31309  0.77029  0.39185  1.0000
  H   H1853     1.0  0.40758  0.94308  0.46360  1.0000
  H   H1854     1.0  0.38766  0.95072  0.38085  1.0000
  H   H1855     1.0  0.38859  0.90124  0.30606  1.0000
  H   H1856     1.0  0.42346  0.89908  0.31177  1.0000
  H   H1857     1.0  0.44032  0.92232  0.35268  1.0000
  C   C2329     1.0  0.53206  0.80145  0.40108  1.0000
  C   C2330     1.0  0.33724  0.80862  0.20388  1.0000
  C   C2331     1.0  0.62268  0.88320  0.18553  1.0000
  Fe  Fe147     1.0  0.34103  0.77580  0.42024  1.0000
  H   H1858     1.0  0.40429  0.98070  0.34588  1.0000
  C   C2332     1.0  0.42213  0.93843  0.46729  1.0000
  C   C2333     1.0  0.49950  0.87177  0.36840  1.0000
  C   C2334     1.0  0.51533  0.98036  0.14390  1.0000
  C   C2335     1.0  0.61919  0.95722  0.24340  1.0000
  C   C2336     1.0  0.40374  0.91052  0.04852  1.0000
  S   S301      1.0  0.33575  0.80753  0.42480  1.0000
  H   H1859     1.0  0.55362  0.88201  0.09570  1.0000
  C   C2337     1.0  0.38345  0.95789  0.26088  1.0000
  C   C2338     1.0  0.40294  0.95912  0.26334  1.0000
  H   H1860     1.0  0.37695  0.94438  0.26661  1.0000
  H   H1861     1.0  0.41153  0.94657  0.27115  1.0000
  H   H1862     1.0  0.49036  0.95472  0.47683  1.0000
  H   H1863     1.0  0.30957  0.86282  0.43955  1.0000
  C   C2339     1.0  0.41807  0.86796  0.49423  1.0000
  P   P78       1.0  0.50018  0.85087  0.33686  1.0000
  C   C2340     1.0  0.51261  0.85472  0.29187  1.0000
  C   C2341     1.0  0.50310  0.85476  0.25552  1.0000
  C   C2342     1.0  0.51306  0.85603  0.22075  1.0000
  C   C2343     1.0  0.53258  0.85725  0.22187  1.0000
  C   C2344     1.0  0.54216  0.85731  0.25779  1.0000
  C   C2345     1.0  0.53226  0.85587  0.29260  1.0000
  C   C2346     1.0  0.51429  0.88456  0.36948  1.0000
  C   C2347     1.0  0.47619  0.84480  0.32623  1.0000
  C   C2348     1.0  0.46347  0.85910  0.31251  1.0000
  C   C2349     1.0  0.44484  0.85472  0.30422  1.0000
  C   C2350     1.0  0.43869  0.83612  0.30986  1.0000
  C   C2351     1.0  0.45122  0.82186  0.32383  1.0000
  C   C2352     1.0  0.46994  0.82614  0.33199  1.0000
  H   H1864     1.0  0.48803  0.85372  0.25355  1.0000
  H   H1865     1.0  0.50557  0.85633  0.19288  1.0000
  H   H1866     1.0  0.54024  0.85853  0.19494  1.0000
  H   H1867     1.0  0.55724  0.85880  0.25874  1.0000
  H   H1868     1.0  0.54001  0.85566  0.32005  1.0000
  H   H1869     1.0  0.52609  0.88278  0.35028  1.0000
  H   H1870     1.0  0.52525  0.91004  0.39618  1.0000
  H   H1871     1.0  0.46803  0.87361  0.30775  1.0000
  C   C2353     1.0  0.60975  0.91943  0.08970  1.0000
  P   P79       1.0  0.59822  0.98743  0.04869  1.0000
  H   H1872     1.0  0.44639  0.80746  0.32820  1.0000
  H   H1873     1.0  0.47939  0.81488  0.34275  1.0000
  H   H1874     1.0  0.53463  0.78840  0.34415  1.0000
  H   H1875     1.0  0.49889  0.91497  0.44075  1.0000
  C   C2354     1.0  0.51537  0.83224  0.40306  1.0000
  C   C2355     1.0  0.35684  0.85804  0.45375  1.0000
  C   C2356     1.0  0.62317  0.83573  0.29595  1.0000
  C   C2357     1.0  0.32450  0.79397  0.20816  1.0000
  H   H1876     1.0  0.39126  0.99544  0.16477  1.0000
  H   H1877     1.0  0.57579  0.95497  0.02495  1.0000
  H   H1878     1.0  0.33838  0.85200  0.40515  1.0000
  C   C2358     1.0  0.63364  0.96966  0.03665  1.0000
  H   H1879     1.0  0.62104  0.96967  0.26202  1.0000
  C   C2359     1.0  0.39985  0.83733  0.09288  1.0000
  H   H1880     1.0  0.44960  0.86605  0.07181  1.0000
  C   C2360     1.0  0.32441  0.87046  0.49256  1.0000
  H   H1881     1.0  0.31539  0.79675  0.06915  1.0000
  C   C2361     1.0  0.32631  0.79083  0.05062  1.0000
  C   C2362     1.0  0.30890  0.75174  0.10924  1.0000
  H   H1882     1.0  0.31531  0.88539  0.05285  1.0000
  C   C2363     1.0  0.32242  0.78015  0.17876  1.0000
  C   C2364     1.0  0.52134  0.88967  0.03698  1.0000
  H   H1883     1.0  0.59072  0.86943  0.47542  1.0000
  H   H1884     1.0  0.43609  0.98916  0.18663  1.0000
  H   H1885     1.0  0.61229  0.85496  0.34027  1.0000
  C   C2365     1.0  0.38457  0.88531  0.07318  1.0000
  C   C2366     1.0  0.52276  0.97806  0.42468  1.0000
  H   H1886     1.0  0.42423  0.83275  0.30321  1.0000
  H   H1887     1.0  0.31179  0.87503  0.50773  1.0000
  H   H1888     1.0  0.60657  0.85809  0.07204  1.0000
  H   H1889     1.0  0.44694  0.87174  0.47891  1.0000
  C   C2367     1.0  0.32715  0.84101  0.08784  1.0000
  C   C2368     1.0  0.46414  0.99447  0.20659  1.0000
  P   P80       1.0  0.63309  0.79257  0.39646  1.0000
  H   H1890     1.0  0.40426  0.98097  0.09510  1.0000
  H   H1891     1.0  0.43890  0.89145  0.42020  1.0000
  C   C2369     1.0  0.61093  0.86898  0.01411  1.0000
  H   H1892     1.0  0.45196  0.90107  0.06106  1.0000
  C   C2370     1.0  0.52513  0.90100  0.50021  1.0000
  H   H1893     1.0  0.41011  0.92434  0.05248  1.0000
  C   C2371     1.0  0.37238  0.97403  0.25063  1.0000
  C   C2372     1.0  0.61615  0.85863  0.04792  1.0000
  H   H1894     1.0  0.40563  0.89938  0.40391  1.0000
  H   H1895     1.0  0.53079  0.97642  0.39819  1.0000
  C   C2373     1.0  0.61626  0.94322  0.17877  1.0000
  C   C2374     1.0  0.40913  0.89049  0.42888  1.0000
  C   C2375     1.0  0.40683  0.89991  0.01440  1.0000
  H   H1896     1.0  0.61197  0.90947  0.24971  1.0000
  Fe  Fe148     1.0  0.32810  0.77469  0.33538  1.0000
  H   H1897     1.0  0.36743  0.82656  0.49564  1.0000
  C   C2376     1.0  0.38084  0.99131  0.24196  1.0000
  H   H1898     1.0  0.42654  0.97692  0.25741  1.0000
  C   C2377     1.0  0.52337  0.96963  0.20975  1.0000
  H   H1899     1.0  0.43524  0.86572  0.29294  1.0000
  H   H1900     1.0  0.47329  0.86453  0.39539  1.0000
  H   H1901     1.0  0.60742  0.92946  0.03041  1.0000
  H   H1902     1.0  0.51091  0.87471  0.51054  1.0000
  C   C2378     1.0  0.33316  0.78094  0.14476  1.0000
  C   C2379     1.0  0.52167  0.98431  0.18206  1.0000
  H   H1903     1.0  0.37964  0.81010  0.02171  1.0000
  H   H1904     1.0  0.55751  0.97442  0.46642  1.0000
  C   C2380     1.0  0.38790  0.81380  0.04731  1.0000
  C   C2381     1.0  0.52425  0.97717  0.04620  1.0000
  P   P81       1.0  0.33166  0.76256  0.10759  1.0000
  C   C2382     1.0  0.48460  0.87451  0.39457  1.0000
  C   C2383     1.0  0.42789  0.88600  0.43814  1.0000
  H   H1905     1.0  0.51936  0.93973  0.22151  1.0000
  H   H1906     1.0  0.61295  0.77326  0.33221  1.0000
  C   C2384     1.0  0.61682  0.93925  0.26006  1.0000
  H   H1907     1.0  0.48200  0.91430  0.09861  1.0000
  C   C2385     1.0  0.39689  0.79912  0.06886  1.0000
  C   C2386     1.0  0.60723  0.79832  0.50202  1.0000
  C   C2387     1.0  0.39260  0.90324  0.07783  1.0000
  C   C2388     1.0  0.45957  0.92632  0.47819  1.0000
  H   H1908     1.0  0.35932  0.75650  0.17261  1.0000
  C   C2389     1.0  0.34804  0.80943  0.17023  1.0000
  C   C2390     1.0  0.41286  0.98520  0.44367  1.0000
  H   H1909     1.0  0.41429  0.79217  0.11923  1.0000
  C   C2391     1.0  0.55397  0.90467  0.18384  1.0000
  C   C2392     1.0  0.57850  0.89109  0.12641  1.0000
  C   C2393     1.0  0.58574  0.90036  0.15971  1.0000
  C   C2394     1.0  0.57330  0.90683  0.18872  1.0000
  P   P82       1.0  0.61070  0.90406  0.16472  1.0000
  C   C2395     1.0  0.61419  0.92499  0.19525  1.0000
  H   H1910     1.0  0.61784  0.83217  0.39394  1.0000
  C   C2396     1.0  0.51393  0.90006  0.39558  1.0000
  C   C2397     1.0  0.61865  0.95926  0.20287  1.0000
  C   C2398     1.0  0.40885  0.82261  0.11431  1.0000
  C   C2399     1.0  0.33057  0.80046  0.01626  1.0000
  C   C2400     1.0  0.50244  0.98144  0.49363  1.0000
  C   C2401     1.0  0.61420  0.92321  0.23617  1.0000
  C   C2402     1.0  0.61555  0.92083  0.05105  1.0000
  H   H1911     1.0  0.59304  0.80377  0.39276  1.0000
  C   C2403     1.0  0.42749  0.92757  0.50012  1.0000
  H   H1912     1.0  0.53230  0.88283  0.01985  1.0000
  C   C2404     1.0  0.39914  0.87210  0.48466  1.0000
  C   C2405     1.0  0.35828  0.86503  0.49221  1.0000
  H   H1913     1.0  0.54457  0.91004  0.20616  1.0000
  H   H1914     1.0  0.58777  0.88568  0.10382  1.0000
  H   H1915     1.0  0.57831  0.91372  0.21509  1.0000
  C   C2406     1.0  0.43237  0.87484  0.47099  1.0000
  H   H1916     1.0  0.61592  0.94521  0.14751  1.0000
  H   H1917     1.0  0.35520  0.79591  0.11587  1.0000
  C   C2407     1.0  0.38742  0.87460  0.03876  1.0000
  H   H1918     1.0  0.46414  0.95950  0.03536  1.0000
  H   H1919     1.0  0.48968  0.98724  0.31586  1.0000
  H   H1920     1.0  0.57010  0.81192  0.44397  1.0000
  H   H1921     1.0  0.59712  0.92711  0.09864  1.0000
  C   C2408     1.0  0.32371  0.87247  0.05862  1.0000
  C   C2409     1.0  0.61828  0.84080  0.33406  1.0000
  C   C2410     1.0  0.63147  0.81768  0.28833  1.0000
  H   H1922     1.0  0.38046  0.88801  0.44505  1.0000
  H   H1923     1.0  0.50415  0.95842  0.10573  1.0000
  H   H1924     1.0  0.53183  0.89414  0.14658  1.0000
  C   C2411     1.0  0.39483  0.88377  0.45218  1.0000
  C   C2412     1.0  0.61685  0.86473  0.17571  1.0000
  Fe  Fe149     1.0  0.30896  0.80221  0.39247  1.0000
  H   H1925     1.0  0.35811  0.82064  0.16714  1.0000
  C   C2413     1.0  0.62754  0.84857  0.18753  1.0000
  H   H1926     1.0  0.35877  0.75399  0.04365  1.0000
  C   C2414     1.0  0.58408  0.80673  0.45210  1.0000
  C   C2415     1.0  0.58347  0.97164  0.07592  1.0000
  C   C2416     1.0  0.57435  0.95680  0.05614  1.0000
  C   C2417     1.0  0.56294  0.94436  0.07631  1.0000
  C   C2418     1.0  0.56029  0.94678  0.11638  1.0000
  C   C2419     1.0  0.56903  0.96165  0.13630  1.0000
  C   C2420     1.0  0.58045  0.97412  0.11619  1.0000
  C   C2421     1.0  0.51014  0.96398  0.43446  1.0000
  C   C2422     1.0  0.60431  0.86361  0.48470  1.0000
  H   H1927     1.0  0.42105  0.97888  0.46741  1.0000
  H   H1928     1.0  0.31655  0.79301  0.23480  1.0000
  H   H1929     1.0  0.62058  0.84587  0.27250  1.0000
  H   H1930     1.0  0.36917  0.85271  0.43848  1.0000
  H   H1931     1.0  0.55593  0.93297  0.06070  1.0000
  H   H1932     1.0  0.55124  0.93730  0.13183  1.0000
  H   H1933     1.0  0.33901  0.81913  0.22701  1.0000
  C   C2423     1.0  0.63937  0.84821  0.50897  1.0000
  C   C2424     1.0  0.54685  0.89577  0.15034  1.0000
  C   C2425     1.0  0.62007  0.86646  0.46191  1.0000
  C   C2426     1.0  0.52925  0.80064  0.36061  1.0000
  C   C2427     1.0  0.34195  0.87064  0.04424  1.0000
  H   H1934     1.0  0.50850  0.95160  0.41566  1.0000
  C   C2428     1.0  0.51143  0.94707  0.16226  1.0000
  C   C2429     1.0  0.55914  0.88893  0.12170  1.0000
  H   H1935     1.0  0.49919  0.93303  0.05020  1.0000
  C   C2430     1.0  0.49999  0.96567  0.46896  1.0000
  C   C2431     1.0  0.50272  0.91796  0.05427  1.0000
  H   H1936     1.0  0.53495  0.89455  0.47985  1.0000
  C   C2432     1.0  0.51263  0.83161  0.36233  1.0000
  C   C2433     1.0  0.41144  0.97640  0.25493  1.0000
  H   H1937     1.0  0.37087  0.92683  0.34153  1.0000
  C   C2434     1.0  0.46096  0.97632  0.39050  1.0000
  P   P83       1.0  0.37645  0.85168  0.03270  1.0000
  C   C2435     1.0  0.40736  0.80352  0.10238  1.0000
  C   C2436     1.0  0.34619  0.79551  0.14101  1.0000
  H   H1938     1.0  0.63545  0.81371  0.25882  1.0000
  C   C2437     1.0  0.48435  0.89001  0.42060  1.0000
  H   H1939     1.0  0.37620  0.87980  0.09655  1.0000
  C   C2438     1.0  0.35056  0.76680  0.03662  1.0000
  H   H1940     1.0  0.47238  0.99370  0.09303  1.0000
  C   C2439     1.0  0.62908  0.80932  0.35689  1.0000
  C   C2440     1.0  0.58685  0.97841  0.47626  1.0000
  H   H1941     1.0  0.41682  0.82606  0.14054  1.0000
  S   S302      1.0  0.35168  0.76204  0.47632  1.0000
  C   C2441     1.0  0.62039  0.79392  0.47318  1.0000
  H   H1942     1.0  0.51744  0.81478  0.30990  1.0000
  H   H1943     1.0  0.61989  0.97339  0.19041  1.0000
  C   C2442     1.0  0.62095  0.76255  0.34874  1.0000
  C   C2443     1.0  0.51952  0.81562  0.34130  1.0000
  C   C2444     1.0  0.58917  0.80494  0.49154  1.0000
  C   C2445     1.0  0.45331  0.89119  0.03669  1.0000
  H   H1944     1.0  0.51017  0.84433  0.42012  1.0000
  C   C2446     1.0  0.52522  0.99397  0.44930  1.0000
  C   C2447     1.0  0.60177  0.99083  0.47350  1.0000
  H   H1945     1.0  0.35726  0.97307  0.24879  1.0000
  S   S303      1.0  0.32170  0.80647  0.33370  1.0000
  H   H1946     1.0  0.53356  0.96996  0.06694  1.0000
  C   C2448     1.0  0.40046  0.99253  0.24317  1.0000
  C   C2449     1.0  0.42586  0.98808  0.05473  1.0000
  C   C2450     1.0  0.34535  0.83909  0.07332  1.0000
  C   C2451     1.0  0.63195  0.76778  0.38126  1.0000
  H   H1947     1.0  0.52855  0.97268  0.23901  1.0000
  C   C2452     1.0  0.59718  0.80225  0.42318  1.0000
  H   H1948     1.0  0.58932  0.96400  0.48710  1.0000
  C   C2453     1.0  0.63373  0.84904  0.05076  1.0000
  H   H1949     1.0  0.61942  0.98386  0.12277  1.0000
  C   C2454     1.0  0.62132  0.82771  0.36446  1.0000
  H   H1950     1.0  0.31896  0.82781  0.50582  1.0000
  H   H1951     1.0  0.39048  0.91143  0.10452  1.0000
  H   H1952     1.0  0.45376  0.84341  0.01670  1.0000
  C   C2455     1.0  0.33935  0.85751  0.43479  1.0000
  H   H1953     1.0  0.52729  0.81788  0.45365  1.0000
  C   C2456     1.0  0.51110  0.99109  0.05894  1.0000
  H   H1954     1.0  0.35343  0.82604  0.07917  1.0000
  C   C2457     1.0  0.47590  0.98430  0.37098  1.0000
  H   H1955     1.0  0.63436  0.78891  0.48185  1.0000
  H   H1956     1.0  0.58642  0.98582  0.13238  1.0000
  C   C2458     1.0  0.31632  0.85767  0.08043  1.0000
  H   H1957     1.0  0.63818  0.97596  0.06390  1.0000
  C   C2459     1.0  0.52587  0.92055  0.50895  1.0000
  C   C2460     1.0  0.44264  0.98194  0.03746  1.0000
  C   C2461     1.0  0.56877  0.98441  0.46425  1.0000
  H   H1958     1.0  0.59743  0.87646  0.01225  1.0000
  S   S304      1.0  0.54263  0.93508  0.48772  1.0000
  C   C2462     1.0  0.63761  0.85883  0.47422  1.0000
  H   H1959     1.0  0.53962  0.78984  0.41600  1.0000
  H   H1960     1.0  0.63326  0.91160  0.45628  1.0000
  C   C2463     1.0  0.63462  0.80461  0.31876  1.0000
  C   C2464     1.0  0.44619  0.92144  0.50539  1.0000
  H   H1961     1.0  0.62342  0.83439  0.17830  1.0000
  H   H1962     1.0  0.61584  0.98591  0.48161  1.0000
  H   H1963     1.0  0.34748  0.88223  0.02731  1.0000
  C   C2465     1.0  0.51492  0.99562  0.48382  1.0000
  C   C2466     1.0  0.63146  0.91050  0.03858  1.0000
  C   C2467     1.0  0.61520  0.97267  0.02233  1.0000
  C   C2468     1.0  0.63591  0.89741  0.10359  1.0000
  S   S305      1.0  0.63986  0.83694  0.09437  1.0000
  C   C2469     1.0  0.63939  0.88521  0.20739  1.0000
  H   H1964     1.0  0.48578  0.99289  0.38714  1.0000
  C   C2470     1.0  0.34190  0.87113  0.51158  1.0000
  Fe  Fe150     1.0  0.43179  0.92418  0.63148  1.0000
  S   S306      1.0  0.43218  0.89600  0.59956  1.0000
  S   S307      1.0  0.41558  0.95122  0.61417  1.0000
  Fe  Fe151     1.0  0.45739  0.90938  0.69622  1.0000
  S   S308      1.0  0.46074  0.87987  0.67005  1.0000
  S   S309      1.0  0.46751  0.92059  0.75433  1.0000
  Fe  Fe152     1.0  0.46312  0.89530  0.61270  1.0000
  S   S310      1.0  0.48184  0.88353  0.56494  1.0000
  Fe  Fe153     1.0  0.42972  0.88240  0.65857  1.0000
  S   S311      1.0  0.41041  0.85744  0.66362  1.0000
  S   S312      1.0  0.46297  0.92452  0.64022  1.0000
  S   S313      1.0  0.42605  0.91068  0.68919  1.0000
  Fe  Fe154     1.0  0.38133  0.79360  0.83437  1.0000
  S   S314      1.0  0.40486  0.81418  0.82552  1.0000
  S   S315      1.0  0.38186  0.76293  0.81400  1.0000
  Fe  Fe155     1.0  0.55818  0.90331  0.87090  1.0000
  S   S316      1.0  0.54620  0.92987  0.89899  1.0000
  S   S317      1.0  0.54751  0.89128  0.81361  1.0000
  Fe  Fe156     1.0  0.58981  0.89906  0.93109  1.0000
  S   S318      1.0  0.58020  0.92535  0.96423  1.0000
  S   S319      1.0  0.61789  0.88350  0.94094  1.0000
  Fe  Fe157     1.0  0.55115  0.91436  0.95563  1.0000
  S   S320      1.0  0.37395  0.78647  0.89625  1.0000
  Fe  Fe158     1.0  0.57581  0.93890  0.90547  1.0000
  S   S321      1.0  0.58108  0.97025  0.89750  1.0000
  S   S322      1.0  0.56097  0.88666  0.92706  1.0000
  S   S323      1.0  0.58763  0.91369  0.87266  1.0000
  C   C2471     1.0  0.50926  0.86772  0.86010  1.0000
  C   C2472     1.0  0.59734  0.97164  0.78420  1.0000
  C   C2473     1.0  0.59363  0.96511  0.82207  1.0000
  C   C2474     1.0  0.58611  0.97780  0.84993  1.0000
  C   C2475     1.0  0.55791  0.82978  0.68133  1.0000
  H   H1965     1.0  0.60305  0.96174  0.76288  1.0000
  H   H1966     1.0  0.59664  0.95030  0.82968  1.0000
  H   H1967     1.0  0.52694  0.86069  0.95190  1.0000
  C   C2476     1.0  0.49880  0.89804  0.54422  1.0000
  H   H1968     1.0  0.51657  0.98022  0.94828  1.0000
  C   C2477     1.0  0.39136  0.83379  0.92303  1.0000
  C   C2478     1.0  0.43257  0.94903  0.81015  1.0000
  H   H1969     1.0  0.52927  0.80004  0.75908  1.0000
  H   H1970     1.0  0.37360  0.79467  0.52358  1.0000
  S   S324      1.0  0.45289  0.99565  0.00085  1.0000
  C   C2479     1.0  0.42369  0.94548  0.77427  1.0000
  C   C2480     1.0  0.48802  0.97717  0.62214  1.0000
  C   C2481     1.0  0.38072  0.91026  0.61636  1.0000
  C   C2482     1.0  0.49024  0.91356  0.76940  1.0000
  C   C2483     1.0  0.49652  0.91850  0.80693  1.0000
  C   C2484     1.0  0.51421  0.91196  0.82052  1.0000
  C   C2485     1.0  0.52579  0.90072  0.79640  1.0000
  C   C2486     1.0  0.51968  0.89629  0.75840  1.0000
  C   C2487     1.0  0.50186  0.90259  0.74498  1.0000
  H   H1971     1.0  0.48755  0.92704  0.82591  1.0000
  H   H1972     1.0  0.51856  0.91509  0.85007  1.0000
  H   H1973     1.0  0.52872  0.88802  0.73928  1.0000
  H   H1974     1.0  0.49706  0.89889  0.71590  1.0000
  C   C2488     1.0  0.40653  0.82568  0.77995  1.0000
  C   C2489     1.0  0.39509  0.82078  0.74813  1.0000
  C   C2490     1.0  0.39666  0.83043  0.71237  1.0000
  C   C2491     1.0  0.40943  0.84519  0.70843  1.0000
  C   C2492     1.0  0.42104  0.84993  0.74009  1.0000
  C   C2493     1.0  0.41963  0.84009  0.77565  1.0000
  H   H1975     1.0  0.38513  0.80950  0.75106  1.0000
  H   H1976     1.0  0.38789  0.82654  0.68770  1.0000
  H   H1977     1.0  0.43106  0.86116  0.73722  1.0000
  H   H1978     1.0  0.42857  0.84374  0.80010  1.0000
  H   H1979     1.0  0.40141  0.87417  0.98279  1.0000
  C   C2494     1.0  0.44448  0.95878  0.56533  1.0000
  C   C2495     1.0  0.42781  0.96570  0.58179  1.0000
  C   C2496     1.0  0.42069  0.98402  0.57150  1.0000
  H   H1980     1.0  0.40498  0.83687  0.97897  1.0000
  H   H1981     1.0  0.45007  0.94475  0.57296  1.0000
  H   H1982     1.0  0.38164  0.92077  0.63969  1.0000
  H   H1983     1.0  0.56439  0.95678  0.54549  1.0000
  C   C2497     1.0  0.34479  0.82017  0.69681  1.0000
  C   C2498     1.0  0.34282  0.80034  0.69452  1.0000
  H   H1984     1.0  0.41937  0.95500  0.71488  1.0000
  C   C2499     1.0  0.38371  0.91573  0.57783  1.0000
  H   H1985     1.0  0.35581  0.82606  0.71492  1.0000
  C   C2500     1.0  0.40213  0.82037  0.58328  1.0000
  C   C2501     1.0  0.55156  0.91370  0.66976  1.0000
  H   H1986     1.0  0.56767  0.82300  0.66113  1.0000
  C   C2502     1.0  0.47325  0.86236  0.77811  1.0000
  C   C2503     1.0  0.46693  0.85125  0.80880  1.0000
  C   C2504     1.0  0.47241  0.83190  0.81152  1.0000
  C   C2505     1.0  0.48406  0.82354  0.78326  1.0000
  C   C2506     1.0  0.49036  0.83460  0.75214  1.0000
  C   C2507     1.0  0.48501  0.85410  0.75001  1.0000
  P   P84       1.0  0.50313  0.82370  0.71226  1.0000
  C   C2508     1.0  0.50544  0.79809  0.71934  1.0000
  C   C2509     1.0  0.48911  0.82888  0.66888  1.0000
  C   C2510     1.0  0.46942  0.82823  0.67060  1.0000
  C   C2511     1.0  0.45829  0.83271  0.63773  1.0000
  C   C2512     1.0  0.46669  0.83789  0.60290  1.0000
  C   C2513     1.0  0.48623  0.83845  0.60086  1.0000
  C   C2514     1.0  0.49742  0.83413  0.63374  1.0000
  C   C2515     1.0  0.51969  0.79059  0.74418  1.0000
  S   S325      1.0  0.32140  0.80774  0.90544  1.0000
  C   C2516     1.0  0.37547  0.84518  0.98149  1.0000
  C   C2517     1.0  0.49308  0.78551  0.70081  1.0000
  C   C2518     1.0  0.52670  0.83245  0.70920  1.0000
  C   C2519     1.0  0.53304  0.84681  0.73463  1.0000
  C   C2520     1.0  0.55161  0.85268  0.73309  1.0000
  H   H1987     1.0  0.30722  0.77616  0.54899  1.0000
  C   C2521     1.0  0.53939  0.82379  0.68294  1.0000
  H   H1988     1.0  0.46889  0.87736  0.77580  1.0000
  H   H1989     1.0  0.45766  0.85758  0.83036  1.0000
  H   H1990     1.0  0.46726  0.82328  0.83510  1.0000
  H   H1991     1.0  0.48769  0.80841  0.78542  1.0000
  H   H1992     1.0  0.48960  0.86281  0.72606  1.0000
  H   H1993     1.0  0.46258  0.82458  0.69753  1.0000
  H   H1994     1.0  0.44312  0.83272  0.63967  1.0000
  H   H1995     1.0  0.45806  0.84199  0.57778  1.0000
  H   H1996     1.0  0.49266  0.84291  0.57403  1.0000
  H   H1997     1.0  0.51242  0.83531  0.63155  1.0000
  C   C2522     1.0  0.44646  0.98782  0.52677  1.0000
  C   C2523     1.0  0.58836  0.91192  0.57154  1.0000
  H   H1998     1.0  0.52389  0.85335  0.75617  1.0000
  C   C2524     1.0  0.50642  0.97034  0.62942  1.0000
  H   H1999     1.0  0.32265  0.81333  0.00778  1.0000
  C   C2525     1.0  0.60198  0.90013  0.59038  1.0000
  C   C2526     1.0  0.47390  0.97362  0.64881  1.0000
  H   H2000     1.0  0.48375  0.88316  0.84582  1.0000
  C   C2527     1.0  0.35813  0.84192  0.92023  1.0000
  C   C2528     1.0  0.49508  0.76572  0.70687  1.0000
  C   C2529     1.0  0.51342  0.98457  0.86487  1.0000
  H   H2001     1.0  0.53501  0.81222  0.66399  1.0000
  H   H2002     1.0  0.36569  0.77081  0.98338  1.0000
  C   C2530     1.0  0.39301  0.80456  0.56767  1.0000
  C   C2531     1.0  0.35855  0.84668  0.95994  1.0000
  C   C2532     1.0  0.48040  0.99263  0.82145  1.0000
  H   H2003     1.0  0.59705  0.95904  0.68599  1.0000
  C   C2533     1.0  0.30807  0.77474  0.93645  1.0000
  H   H2004     1.0  0.52642  0.98157  0.88085  1.0000
  H   H2005     1.0  0.55015  0.96811  0.83228  1.0000
  H   H2006     1.0  0.53637  0.86903  0.64821  1.0000
  C   C2534     1.0  0.45720  0.89816  0.99959  1.0000
  C   C2535     1.0  0.48909  0.97428  0.82001  1.0000
  C   C2536     1.0  0.56598  0.88657  0.57424  1.0000
  H   H2007     1.0  0.49757  0.87806  0.96855  1.0000
  C   C2537     1.0  0.38065  0.80695  0.53588  1.0000
  C   C2538     1.0  0.52159  0.86148  0.88980  1.0000
  H   H2008     1.0  0.37326  0.86290  0.60205  1.0000
  C   C2539     1.0  0.57586  0.97618  0.58818  1.0000
  C   C2540     1.0  0.45362  0.96968  0.53764  1.0000
  H   H2009     1.0  0.43087  0.93934  0.83436  1.0000
  H   H2010     1.0  0.41517  0.93300  0.77054  1.0000
  H   H2011     1.0  0.59593  0.96611  0.97488  1.0000
  H   H2012     1.0  0.34819  0.80082  0.96574  1.0000
  H   H2013     1.0  0.51710  0.97335  0.60841  1.0000
  H   H2014     1.0  0.58427  0.99392  0.63689  1.0000
  H   H2015     1.0  0.45047  0.91327  0.53105  1.0000
  C   C2541     1.0  0.57042  0.90520  0.56390  1.0000
  H   H2016     1.0  0.40395  0.82848  0.90861  1.0000
  C   C2542     1.0  0.39183  0.83844  0.96281  1.0000
  C   C2543     1.0  0.61002  0.96412  0.98669  1.0000
  H   H2017     1.0  0.48468  0.98525  0.59582  1.0000
  S   S326      1.0  0.33591  0.75843  0.74714  1.0000
  C   C2544     1.0  0.51319  0.92876  0.53568  1.0000
  C   C2545     1.0  0.31566  0.80485  0.65144  1.0000
  S   S327      1.0  0.62533  0.83218  0.57553  1.0000
  H   H2018     1.0  0.53481  0.85435  0.88248  1.0000
  H   H2019     1.0  0.37480  0.88687  0.65472  1.0000
  C   C2546     1.0  0.60970  0.95119  0.67739  1.0000
  H   H2020     1.0  0.32115  0.76789  0.92784  1.0000
  H   H2021     1.0  0.40602  0.85065  0.57991  1.0000
  H   H2022     1.0  0.55208  0.88141  0.56776  1.0000
  H   H2023     1.0  0.45065  0.96747  0.84266  1.0000
  C   C2547     1.0  0.30908  0.81429  0.55779  1.0000
  C   C2548     1.0  0.45862  0.95211  0.92701  1.0000
  C   C2549     1.0  0.62685  0.95575  0.69478  1.0000
  H   H2024     1.0  0.59548  0.93369  0.63570  1.0000
  C   C2550     1.0  0.50043  0.87493  0.93814  1.0000
  C   C2551     1.0  0.33246  0.83240  0.67596  1.0000
  H   H2025     1.0  0.53275  0.76511  0.76915  1.0000
  H   H2026     1.0  0.50640  0.95005  0.92948  1.0000
  H   H2027     1.0  0.35245  0.79088  0.71066  1.0000
  H   H2028     1.0  0.33409  0.84777  0.67759  1.0000
  C   C2552     1.0  0.49258  0.87768  0.86930  1.0000
  C   C2553     1.0  0.45538  0.93248  0.92364  1.0000
  H   H2029     1.0  0.59161  0.92630  0.56255  1.0000
  H   H2030     1.0  0.57619  0.86013  0.60045  1.0000
  S   S328      1.0  0.52876  0.92337  0.99857  1.0000
  H   H2031     1.0  0.46725  0.96022  0.70333  1.0000
  C   C2554     1.0  0.62358  0.84512  0.53148  1.0000
  C   C2555     1.0  0.57518  0.98266  0.62685  1.0000
  C   C2556     1.0  0.45830  0.86559  0.97451  1.0000
  P   P85       1.0  0.46626  0.89380  0.92062  1.0000
  C   C2557     1.0  0.47055  0.91914  0.92260  1.0000
  H   H2032     1.0  0.41154  0.81864  0.60829  1.0000
  H   H2033     1.0  0.53667  0.96279  0.99663  1.0000
  C   C2558     1.0  0.43720  0.97389  0.74743  1.0000
  C   C2559     1.0  0.51075  0.95986  0.66354  1.0000
  C   C2560     1.0  0.48895  0.92571  0.92462  1.0000
  H   H2034     1.0  0.51377  0.94388  0.54268  1.0000
  H   H2035     1.0  0.48356  0.96318  0.80119  1.0000
  C   C2561     1.0  0.60892  0.93674  0.64897  1.0000
  H   H2036     1.0  0.57844  0.84873  0.70559  1.0000
  C   C2562     1.0  0.44807  0.88991  0.88413  1.0000
  C   C2563     1.0  0.44856  0.89953  0.84819  1.0000
  C   C2564     1.0  0.43504  0.89617  0.81914  1.0000
  C   C2565     1.0  0.42072  0.88344  0.82586  1.0000
  C   C2566     1.0  0.41992  0.87401  0.86169  1.0000
  C   C2567     1.0  0.43346  0.87727  0.89080  1.0000
  C   C2568     1.0  0.39878  0.88200  0.00952  1.0000
  C   C2569     1.0  0.47818  0.96336  0.68295  1.0000
  H   H2037     1.0  0.34500  0.84280  0.90381  1.0000
  C   C2570     1.0  0.35478  0.77648  0.00235  1.0000
  H   H2038     1.0  0.46083  0.85545  0.95094  1.0000
  C   C2571     1.0  0.60607  0.85284  0.51923  1.0000
  C   C2572     1.0  0.38608  0.84126  0.53593  1.0000
  H   H2039     1.0  0.60779  0.87168  0.61414  1.0000
  H   H2040     1.0  0.50098  0.91584  0.92476  1.0000
  H   H2041     1.0  0.61883  0.94673  0.93777  1.0000
  C   C2573     1.0  0.47698  0.95853  0.92877  1.0000
  H   H2042     1.0  0.32695  0.77726  0.67111  1.0000
  C   C2574     1.0  0.37683  0.89122  0.62475  1.0000
  H   H2043     1.0  0.45955  0.90945  0.84226  1.0000
  H   H2044     1.0  0.43582  0.90328  0.79113  1.0000
  H   H2045     1.0  0.41038  0.88069  0.80311  1.0000
  H   H2046     1.0  0.40889  0.86394  0.86658  1.0000
  H   H2047     1.0  0.43240  0.86980  0.91817  1.0000
  C   C2575     1.0  0.34489  0.79335  0.99233  1.0000
  H   H2048     1.0  0.37414  0.83186  0.87095  1.0000
  C   C2576     1.0  0.52167  0.77080  0.75007  1.0000
  H   H2049     1.0  0.51199  0.95602  0.84087  1.0000
  C   C2577     1.0  0.32829  0.79267  0.67201  1.0000
  C   C2578     1.0  0.45960  0.88539  0.96810  1.0000
  H   H2050     1.0  0.55999  0.91441  0.54961  1.0000
  C   C2579     1.0  0.44387  0.96494  0.81465  1.0000
  C   C2580     1.0  0.54095  0.97897  0.77619  1.0000
  C   C2581     1.0  0.49211  0.94531  0.92745  1.0000
  C   C2582     1.0  0.37717  0.82520  0.52006  1.0000
  P   P86       1.0  0.53404  0.94990  0.67306  1.0000
  C   C2583     1.0  0.53470  0.92432  0.66411  1.0000
  C   C2584     1.0  0.55071  0.96019  0.64045  1.0000
  C   C2585     1.0  0.55162  0.95366  0.60161  1.0000
  C   C2586     1.0  0.56408  0.96168  0.57559  1.0000
  C   C2587     1.0  0.51155  0.88980  0.51768  1.0000
  Fe  Fe159     1.0  0.37221  0.75617  0.87450  1.0000
  C   C2588     1.0  0.56267  0.97473  0.65292  1.0000
  C   C2589     1.0  0.51865  0.91488  0.65096  1.0000
  C   C2590     1.0  0.51932  0.89501  0.64498  1.0000
  C   C2591     1.0  0.53596  0.88444  0.65230  1.0000
  C   C2592     1.0  0.53949  0.95547  0.72359  1.0000
  C   C2593     1.0  0.53703  0.97441  0.73716  1.0000
  C   C2594     1.0  0.30697  0.82542  0.52406  1.0000
  C   C2595     1.0  0.54707  0.96461  0.80208  1.0000
  C   C2596     1.0  0.54920  0.94570  0.78911  1.0000
  C   C2597     1.0  0.54530  0.94108  0.75015  1.0000
  H   H2051     1.0  0.54247  0.94256  0.59119  1.0000
  C   C2598     1.0  0.59339  0.99083  0.77402  1.0000
  H   H2052     1.0  0.45885  0.91343  0.99617  1.0000
  C   C2599     1.0  0.48784  0.88103  0.90837  1.0000
  C   C2600     1.0  0.56401  0.84424  0.70640  1.0000
  H   H2053     1.0  0.50558  0.92272  0.64534  1.0000
  H   H2054     1.0  0.50686  0.88784  0.63491  1.0000
  C   C2601     1.0  0.39886  0.83858  0.56722  1.0000
  Fe  Fe160     1.0  0.34396  0.78986  0.87559  1.0000
  H   H2055     1.0  0.40785  0.98952  0.58441  1.0000
  H   H2056     1.0  0.55391  0.93456  0.80928  1.0000
  H   H2057     1.0  0.54670  0.92624  0.74149  1.0000
  H   H2058     1.0  0.49942  0.94812  0.71645  1.0000
  C   C2602     1.0  0.49648  0.95643  0.69023  1.0000
  H   H2059     1.0  0.30840  0.83450  0.63768  1.0000
  H   H2060     1.0  0.47939  0.97373  0.93187  1.0000
  Fe  Fe161     1.0  0.35120  0.76816  0.80090  1.0000
  H   H2061     1.0  0.56419  0.92078  0.67908  1.0000
  H   H2062     1.0  0.62741  0.96720  0.71632  1.0000
  C   C2603     1.0  0.31796  0.82480  0.65332  1.0000
  C   C2604     1.0  0.62339  0.86992  0.98309  1.0000
  H   H2063     1.0  0.62398  0.89649  0.51780  1.0000
  C   C2605     1.0  0.63234  0.92020  0.55441  1.0000
  H   H2064     1.0  0.34256  0.87623  0.54147  1.0000
  H   H2065     1.0  0.38673  0.93053  0.57145  1.0000
  C   C2606     1.0  0.50535  0.97021  0.84218  1.0000
  C   C2607     1.0  0.55207  0.89379  0.66470  1.0000
  C   C2608     1.0  0.37622  0.87757  0.59472  1.0000
  C   C2609     1.0  0.49965  0.91756  0.55323  1.0000
  C   C2610     1.0  0.51718  0.86511  0.92883  1.0000
  H   H2066     1.0  0.38596  0.90664  0.51827  1.0000
  H   H2067     1.0  0.32287  0.80840  0.56568  1.0000
  H   H2068     1.0  0.45962  0.97873  0.64287  1.0000
  C   C2611     1.0  0.37454  0.83565  0.90171  1.0000
  H   H2069     1.0  0.42190  0.85975  0.52000  1.0000
  H   H2070     1.0  0.44695  0.96240  0.92916  1.0000
  H   H2071     1.0  0.55645  0.86369  0.75301  1.0000
  C   C2612     1.0  0.62302  0.95307  0.96547  1.0000
  H   H2072     1.0  0.56257  0.98005  0.68263  1.0000
  H   H2073     1.0  0.63199  0.88872  0.67269  1.0000
  P   P87       1.0  0.62522  0.90897  0.59914  1.0000
  S   S329      1.0  0.34150  0.75882  0.85932  1.0000
  H   H2074     1.0  0.48982  0.92408  0.57343  1.0000
  H   H2075     1.0  0.41730  0.92426  0.52202  1.0000
  H   H2076     1.0  0.56500  0.88565  0.67031  1.0000
  C   C2613     1.0  0.43013  0.99519  0.54426  1.0000
  H   H2077     1.0  0.53232  0.98571  0.71740  1.0000
  H   H2078     1.0  0.44108  0.92768  0.92282  1.0000
  H   H2079     1.0  0.48189  0.79084  0.68173  1.0000
  C   C2614     1.0  0.51481  0.98302  0.97905  1.0000
  C   C2615     1.0  0.57947  0.87469  0.59285  1.0000
  H   H2080     1.0  0.59378  0.85021  0.53618  1.0000
  H   H2081     1.0  0.51296  0.86540  0.82982  1.0000
  S   S330      1.0  0.35147  0.79948  0.81558  1.0000
  C   C2616     1.0  0.59744  0.88139  0.60081  1.0000
  H   H2082     1.0  0.58541  0.98246  0.56792  1.0000
  C   C2617     1.0  0.42604  0.95788  0.74292  1.0000
  C   C2618     1.0  0.38002  0.88280  0.55610  1.0000
  H   H2083     1.0  0.39546  0.79046  0.58027  1.0000
  C   C2619     1.0  0.38336  0.90210  0.54780  1.0000
  C   C2620     1.0  0.62540  0.92666  0.63793  1.0000
  C   C2621     1.0  0.44632  0.97750  0.78327  1.0000
  H   H2084     1.0  0.43879  0.98316  0.72260  1.0000
  C   C2622     1.0  0.50938  0.75837  0.73141  1.0000
  H   H2085     1.0  0.63877  0.81242  0.99402  1.0000
  H   H2086     1.0  0.57923  0.80877  0.51409  1.0000
  H   H2087     1.0  0.61116  0.79699  0.53264  1.0000
  C   C2623     1.0  0.62990  0.91061  0.51866  1.0000
  C   C2624     1.0  0.50145  0.99667  0.99142  1.0000
  H   H2088     1.0  0.34558  0.85136  0.97345  1.0000
  H   H2089     1.0  0.49446  0.98286  0.52022  1.0000
  H   H2090     1.0  0.63546  0.91092  0.00816  1.0000
  H   H2091     1.0  0.46613  0.96380  0.52413  1.0000
  C   C2625     1.0  0.58202  0.99688  0.83960  1.0000
  H   H2092     1.0  0.48551  0.75608  0.69251  1.0000
  P   P88       1.0  0.38081  0.86513  0.51726  1.0000
  H   H2093     1.0  0.41556  0.90557  0.99182  1.0000
  H   H2094     1.0  0.53944  0.99367  0.78640  1.0000
  C   C2626     1.0  0.52614  0.97320  0.00639  1.0000
  H   H2095     1.0  0.49788  0.99703  0.75288  1.0000
  H   H2096     1.0  0.63939  0.82352  0.92530  1.0000
  C   C2627     1.0  0.63965  0.93870  0.55451  1.0000
  C   C2628     1.0  0.45436  0.85869  0.01165  1.0000
  Fe  Fe162     1.0  0.70716  0.18319  0.03893  1.0000
  C   C2629     1.0  0.90076  0.22979  0.31353  1.0000
  C   C2630     1.0  0.81599  0.22262  0.18256  1.0000
  Fe  Fe163     1.0  0.68275  0.19168  0.10911  1.0000
  H   H2097     1.0  0.81005  0.23053  0.15820  1.0000
  S   S331      1.0  0.68269  0.19774  0.17346  1.0000
  Fe  Fe164     1.0  0.67299  0.15910  0.05488  1.0000
  H   H2098     1.0  0.74993  0.21511  0.09649  1.0000
  H   H2099     1.0  0.80585  0.10093  0.44938  1.0000
  C   C2631     1.0  0.76785  0.13525  0.23438  1.0000
  S   S332      1.0  0.69893  0.16530  0.09005  1.0000
  S   S333      1.0  0.69306  0.21028  0.06139  1.0000
  Fe  Fe165     1.0  0.95020  0.04687  0.14284  1.0000
  C   C2632     1.0  0.85344  0.14339  0.47943  1.0000
  Fe  Fe166     1.0  0.91585  0.04091  0.19231  1.0000
  S   S334      1.0  0.93083  0.01837  0.22845  1.0000
  S   S335      1.0  0.88535  0.04862  0.20381  1.0000
  Fe  Fe167     1.0  0.95462  0.03856  0.22931  1.0000
  Fe  Fe168     1.0  0.94272  0.00727  0.17216  1.0000
  C   C2633     1.0  0.80447  0.22069  0.46495  1.0000
  S   S336      1.0  0.93900  0.06189  0.19619  1.0000
  S   S337      1.0  0.92556  0.02791  0.13557  1.0000
  Fe  Fe169     1.0  0.81492  0.16278  0.29963  1.0000
  S   S338      1.0  0.84475  0.16447  0.32064  1.0000
  S   S339      1.0  0.80130  0.17769  0.24795  1.0000
  Fe  Fe170     1.0  0.80399  0.13769  0.36583  1.0000
  S   S340      1.0  0.83270  0.13726  0.39333  1.0000
  S   S341      1.0  0.77935  0.12195  0.38849  1.0000
  Fe  Fe171     1.0  0.83241  0.16866  0.37984  1.0000
  S   S342      1.0  0.84764  0.18935  0.41892  1.0000
  Fe  Fe172     1.0  0.84331  0.13302  0.33247  1.0000
  S   S343      1.0  0.87050  0.11580  0.32639  1.0000
  S   S344      1.0  0.80255  0.16957  0.35804  1.0000
  S   S345      1.0  0.81451  0.13072  0.30568  1.0000
  C   C2634     1.0  0.88106  0.06791  0.23648  1.0000
  C   C2635     1.0  0.89592  0.07668  0.25584  1.0000
  C   C2636     1.0  0.89240  0.09135  0.28316  1.0000
  C   C2637     1.0  0.87400  0.09784  0.29058  1.0000
  C   C2638     1.0  0.85903  0.08943  0.27068  1.0000
  C   C2639     1.0  0.86257  0.07437  0.24391  1.0000
  H   H2100     1.0  0.91016  0.07213  0.24993  1.0000
  H   H2101     1.0  0.90403  0.09779  0.29844  1.0000
  H   H2102     1.0  0.84477  0.09430  0.27636  1.0000
  H   H2103     1.0  0.85098  0.06770  0.22894  1.0000
  C   C2640     1.0  0.92568  0.03641  0.02805  1.0000
  C   C2641     1.0  0.95396  0.02835  0.43735  1.0000
  H   H2104     1.0  0.90603  0.06964  0.40254  1.0000
  C   C2642     1.0  0.83792  0.15436  0.49188  1.0000
  C   C2643     1.0  0.77111  0.15332  0.48686  1.0000
  C   C2644     1.0  0.77895  0.14585  0.45243  1.0000
  C   C2645     1.0  0.76940  0.13214  0.43066  1.0000
  C   C2646     1.0  0.75186  0.12615  0.44309  1.0000
  C   C2647     1.0  0.74387  0.13388  0.47719  1.0000
  C   C2648     1.0  0.82255  0.14543  0.50779  1.0000
  H   H2105     1.0  0.79244  0.15059  0.44285  1.0000
  H   H2106     1.0  0.74440  0.11560  0.42616  1.0000
  H   H2107     1.0  0.96471  0.02449  0.03027  1.0000
  C   C2649     1.0  0.66803  0.21879  0.49072  1.0000
  C   C2650     1.0  0.65084  0.12116  0.09785  1.0000
  H   H2108     1.0  0.85913  0.05199  0.49545  1.0000
  H   H2109     1.0  0.96978  0.19388  0.07679  1.0000
  H   H2110     1.0  0.92278  0.04481  0.05413  1.0000
  C   C2651     1.0  0.92019  0.03337  0.38439  1.0000
  H   H2111     1.0  0.77426  0.08851  0.43893  1.0000
  H   H2112     1.0  0.90320  0.23716  0.49852  1.0000
  C   C2652     1.0  0.83340  0.23302  0.49130  1.0000
  C   C2653     1.0  0.96585  0.02718  0.40496  1.0000
  C   C2654     1.0  0.75330  0.19532  0.41837  1.0000
  C   C2655     1.0  0.91615  0.02697  0.47004  1.0000
  C   C2656     1.0  0.83431  0.20639  0.44523  1.0000
  C   C2657     1.0  0.81469  0.20693  0.44323  1.0000
  H   H2113     1.0  0.90892  0.19982  0.31775  1.0000
  H   H2114     1.0  0.91449  0.23416  0.30458  1.0000
  H   H2115     1.0  0.80742  0.19671  0.42520  1.0000
  C   C2658     1.0  0.66518  0.21223  0.42150  1.0000
  C   C2659     1.0  0.73947  0.24108  0.22047  1.0000
  C   C2660     1.0  0.80612  0.20748  0.19831  1.0000
  C   C2661     1.0  0.81383  0.19677  0.22937  1.0000
  C   C2662     1.0  0.83135  0.20142  0.24500  1.0000
  C   C2663     1.0  0.84136  0.21638  0.22894  1.0000
  C   C2664     1.0  0.75742  0.20861  0.38955  1.0000
  H   H2116     1.0  0.79250  0.20408  0.18649  1.0000
  H   H2117     1.0  0.83724  0.19355  0.26934  1.0000
  H   H2118     1.0  0.85194  0.21360  0.34602  1.0000
  H   H2119     1.0  0.73034  0.12924  0.48666  1.0000
  C   C2665     1.0  0.77789  0.06590  0.48136  1.0000
  C   C2666     1.0  0.74306  0.17920  0.40860  1.0000
  H   H2120     1.0  0.95252  0.09694  0.49487  1.0000
  H   H2121     1.0  0.92857  0.11821  0.46180  1.0000
  C   C2667     1.0  0.80160  0.08880  0.46652  1.0000
  C   C2668     1.0  0.91590  0.09511  0.42995  1.0000
  C   C2669     1.0  0.94306  0.07131  0.46667  1.0000
  C   C2670     1.0  0.67300  0.22326  0.23008  1.0000
  C   C2671     1.0  0.67338  0.21981  0.18986  1.0000
  C   C2672     1.0  0.66658  0.23394  0.16394  1.0000
  C   C2673     1.0  0.65571  0.12936  0.13385  1.0000
  H   H2122     1.0  0.71002  0.22204  0.47144  1.0000
  H   H2123     1.0  0.67803  0.21224  0.25014  1.0000
  H   H2124     1.0  0.66682  0.23124  0.13283  1.0000
  S   S346      1.0  0.66135  0.18157  0.47016  1.0000
  C   C2674     1.0  0.66892  0.24492  0.44401  1.0000
  H   H2125     1.0  0.96458  0.10556  0.05151  1.0000
  H   H2126     1.0  0.86544  0.11508  0.47156  1.0000
  S   S347      1.0  0.84652  0.24561  0.17815  1.0000
  C   C2675     1.0  0.82891  0.14006  0.04417  1.0000
  C   C2676     1.0  0.72065  0.23903  0.42483  1.0000
  C   C2677     1.0  0.96123  0.02322  0.47439  1.0000
  Fe  Fe173     1.0  0.66815  0.20038  0.02687  1.0000
  C   C2678     1.0  0.80209  0.23970  0.27578  1.0000
  P   P89       1.0  0.83747  0.08850  0.49990  1.0000
  H   H2127     1.0  0.71769  0.22845  0.40247  1.0000
  H   H2128     1.0  0.78747  0.17082  0.14003  1.0000
  H   H2129     1.0  0.78930  0.22099  0.46362  1.0000
  C   C2679     1.0  0.92894  0.10293  0.45593  1.0000
  C   C2680     1.0  0.86834  0.04928  0.43623  1.0000
  C   C2681     1.0  0.86821  0.05753  0.39907  1.0000
  C   C2682     1.0  0.85909  0.07526  0.39281  1.0000
  C   C2683     1.0  0.85019  0.08486  0.42363  1.0000
  C   C2684     1.0  0.85068  0.07698  0.46131  1.0000
  C   C2685     1.0  0.85337  0.12337  0.48175  1.0000
  H   H2130     1.0  0.87507  0.03534  0.44090  1.0000
  H   H2131     1.0  0.87496  0.05019  0.37485  1.0000
  H   H2132     1.0  0.85867  0.08147  0.36380  1.0000
  H   H2133     1.0  0.84269  0.09828  0.41775  1.0000
  C   C2686     1.0  0.81922  0.23241  0.34827  1.0000
  H   H2134     1.0  0.93772  0.05392  0.35617  1.0000
  H   H2135     1.0  0.66602  0.24326  0.27557  1.0000
  H   H2136     1.0  0.86522  0.15045  0.46668  1.0000
  H   H2137     1.0  0.77366  0.22434  0.04791  1.0000
  C   C2687     1.0  0.97336  0.10333  0.02642  1.0000
  H   H2138     1.0  0.66459  0.14166  0.13480  1.0000
  C   C2688     1.0  0.76754  0.19272  0.12183  1.0000
  C   C2689     1.0  0.91500  0.00694  0.47182  1.0000
  H   H2139     1.0  0.65655  0.16581  0.28443  1.0000
  H   H2140     1.0  0.87761  0.18995  0.33920  1.0000
  C   C2690     1.0  0.92224  0.01679  0.02722  1.0000
  C   C2691     1.0  0.79019  0.05692  0.50823  1.0000
  C   C2692     1.0  0.81383  0.23371  0.48911  1.0000
  C   C2693     1.0  0.66544  0.20575  0.46021  1.0000
  H   H2141     1.0  0.73982  0.16891  0.43093  1.0000
  C   C2694     1.0  0.85943  0.05887  0.46719  1.0000
  C   C2695     1.0  0.72359  0.23835  0.24297  1.0000
  C   C2696     1.0  0.89720  0.01865  0.34128  1.0000
  H   H2142     1.0  0.85881  0.21911  0.47061  1.0000
  H   H2143     1.0  0.84411  0.17256  0.01712  1.0000
  H   H2144     1.0  0.91660  0.00998  0.05268  1.0000
  P   P90       1.0  0.93002  0.03767  0.43262  1.0000
  H   H2145     1.0  0.85498  0.21978  0.24097  1.0000
  H   H2146     1.0  0.66323  0.20215  0.39788  1.0000
  H   H2147     1.0  0.75717  0.18868  0.14281  1.0000
  C   C2697     1.0  0.81393  0.08006  0.49396  1.0000
  C   C2698     1.0  0.66939  0.23839  0.48265  1.0000
  H   H2148     1.0  0.95257  0.02441  0.50008  1.0000
  H   H2149     1.0  0.90544  0.10431  0.41540  1.0000
  C   C2699     1.0  0.76671  0.13661  0.27500  1.0000
  C   C2700     1.0  0.75673  0.15190  0.29222  1.0000
  C   C2701     1.0  0.74749  0.16590  0.26887  1.0000
  C   C2702     1.0  0.74834  0.16414  0.22796  1.0000
  P   P91       1.0  0.73370  0.18531  0.29070  1.0000
  C   C2703     1.0  0.73610  0.20707  0.26300  1.0000
  C   C2704     1.0  0.70920  0.17915  0.28907  1.0000
  C   C2705     1.0  0.70155  0.17071  0.25531  1.0000
  C   C2706     1.0  0.68265  0.16594  0.25371  1.0000
  C   C2707     1.0  0.67117  0.16961  0.28572  1.0000
  C   C2708     1.0  0.67851  0.17834  0.31917  1.0000
  C   C2709     1.0  0.69738  0.18334  0.32073  1.0000
  C   C2710     1.0  0.72188  0.22142  0.26409  1.0000
  C   C2711     1.0  0.76354  0.20780  0.09598  1.0000
  H   H2150     1.0  0.89981  0.01269  0.40220  1.0000
  C   C2712     1.0  0.75389  0.22704  0.21981  1.0000
  C   C2713     1.0  0.75231  0.21016  0.24127  1.0000
  C   C2714     1.0  0.74133  0.18940  0.34072  1.0000
  C   C2715     1.0  0.73716  0.17619  0.37000  1.0000
  H   H2151     1.0  0.88566  0.00910  0.33681  1.0000
  C   C2716     1.0  0.75137  0.20576  0.35092  1.0000
  H   H2152     1.0  0.77367  0.12587  0.29338  1.0000
  H   H2153     1.0  0.75649  0.15261  0.32371  1.0000
  H   H2154     1.0  0.74117  0.17454  0.20918  1.0000
  H   H2155     1.0  0.70997  0.16806  0.22976  1.0000
  H   H2156     1.0  0.67690  0.15964  0.22727  1.0000
  C   C2717     1.0  0.78365  0.08174  0.46036  1.0000
  H   H2157     1.0  0.66958  0.18122  0.34394  1.0000
  H   H2158     1.0  0.70258  0.19049  0.34662  1.0000
  H   H2159     1.0  0.70948  0.21960  0.28138  1.0000
  H   H2160     1.0  0.76635  0.22930  0.20288  1.0000
  C   C2718     1.0  0.80299  0.22289  0.33738  1.0000
  H   H2161     1.0  0.66737  0.23658  0.38337  1.0000
  H   H2162     1.0  0.76381  0.19961  0.24098  1.0000
  H   H2163     1.0  0.72943  0.16345  0.36295  1.0000
  H   H2164     1.0  0.75455  0.21634  0.32922  1.0000
  C   C2719     1.0  0.77680  0.21289  0.06851  1.0000
  C   C2720     1.0  0.78473  0.18255  0.11998  1.0000
  C   C2721     1.0  0.75360  0.14735  0.49930  1.0000
  H   H2165     1.0  0.82581  0.22918  0.37628  1.0000
  C   C2722     1.0  0.79809  0.18754  0.09236  1.0000
  C   C2723     1.0  0.79396  0.20275  0.06654  1.0000
  P   P92       1.0  0.81927  0.17308  0.08619  1.0000
  C   C2724     1.0  0.82588  0.16151  0.13192  1.0000
  C   C2725     1.0  0.81509  0.15448  0.05044  1.0000
  C   C2726     1.0  0.91637  0.07538  0.42248  1.0000
  H   H2166     1.0  0.89283  0.99872  0.17485  1.0000
  S   S348      1.0  0.95966  0.06162  0.08857  1.0000
  C   C2727     1.0  0.81765  0.14418  0.14198  1.0000
  C   C2728     1.0  0.82252  0.13501  0.17713  1.0000
  C   C2729     1.0  0.83566  0.14302  0.20255  1.0000
  C   C2730     1.0  0.84388  0.16024  0.19289  1.0000
  C   C2731     1.0  0.83903  0.16948  0.15782  1.0000
  C   C2732     1.0  0.83734  0.18871  0.06981  1.0000
  C   C2733     1.0  0.84093  0.20562  0.09062  1.0000
  C   C2734     1.0  0.85480  0.21788  0.07843  1.0000
  C   C2735     1.0  0.86478  0.21371  0.04448  1.0000
  C   C2736     1.0  0.66629  0.24092  0.24451  1.0000
  C   C2737     1.0  0.84718  0.18483  0.03524  1.0000
  H   H2167     1.0  0.84197  0.13999  0.06080  1.0000
  S   S349      1.0  0.65636  0.18441  0.07718  1.0000
  S   S350      1.0  0.65822  0.13082  0.05300  1.0000
  H   H2168     1.0  0.96750  0.11466  0.11412  1.0000
  H   H2169     1.0  0.80379  0.20654  0.04420  1.0000
  H   H2170     1.0  0.76396  0.06048  0.47638  1.0000
  C   C2738     1.0  0.86089  0.19725  0.02279  1.0000
  H   H2171     1.0  0.80731  0.13782  0.12283  1.0000
  H   H2172     1.0  0.81603  0.12175  0.18488  1.0000
  H   H2173     1.0  0.83934  0.13600  0.22994  1.0000
  H   H2174     1.0  0.85378  0.16663  0.21303  1.0000
  H   H2175     1.0  0.84549  0.18288  0.15164  1.0000
  H   H2176     1.0  0.83297  0.20937  0.11631  1.0000
  H   H2177     1.0  0.85763  0.23068  0.09527  1.0000
  C   C2739     1.0  0.86821  0.23793  0.32872  1.0000
  H   H2178     1.0  0.76532  0.22111  0.39716  1.0000
  H   H2179     1.0  0.93619  0.99838  0.33525  1.0000
  H   H2180     1.0  0.78260  0.21828  0.29167  1.0000
  C   C2740     1.0  0.90541  0.02071  0.37842  1.0000
  H   H2181     1.0  0.77592  0.12359  0.22120  1.0000
  C   C2741     1.0  0.90362  0.02921  0.30989  1.0000
  C   C2742     1.0  0.91843  0.04160  0.31554  1.0000
  C   C2743     1.0  0.92656  0.04382  0.35253  1.0000
  C   C2744     1.0  0.75864  0.14900  0.21086  1.0000
  H   H2182     1.0  0.96089  0.03107  0.37602  1.0000
  H   H2183     1.0  0.96796  0.00213  0.30882  1.0000
  H   H2184     1.0  0.89712  0.02791  0.28115  1.0000
  H   H2185     1.0  0.92373  0.04954  0.29119  1.0000
  C   C2745     1.0  0.88001  0.20488  0.33276  1.0000
  C   C2746     1.0  0.89766  0.21048  0.32094  1.0000
  C   C2747     1.0  0.79820  0.15417  0.02879  1.0000
  H   H2186     1.0  0.95358  0.06239  0.48155  1.0000
  C   C2748     1.0  0.79458  0.22636  0.30094  1.0000
  C   C2749     1.0  0.86535  0.21849  0.33665  1.0000
  C   C2750     1.0  0.93006  0.06332  0.44057  1.0000
  H   H2187     1.0  0.75804  0.19743  0.44829  1.0000
  C   C2751     1.0  0.90670  0.03838  0.49793  1.0000
  S   S351      1.0  0.96807  0.02537  0.17640  1.0000
  S   S352      1.0  0.96699  0.04417  0.28904  1.0000
  H   H2188     1.0  0.79728  0.21240  0.35674  1.0000
  H   H2189     1.0  0.75950  0.14795  0.17935  1.0000
  C   C2752     1.0  0.84363  0.21951  0.46910  1.0000
  C   C2753     1.0  0.83369  0.22700  0.19769  1.0000
  C   C2754     1.0  0.64905  0.12161  0.16883  1.0000
  C   C2755     1.0  0.71634  0.23543  0.46373  1.0000
  C   C2756     1.0  0.66738  0.23174  0.41331  1.0000
  C   C2757     1.0  0.82612  0.12588  0.01581  1.0000
  C   C2758     1.0  0.82731  0.24534  0.32257  1.0000
  C   C2759     1.0  0.97341  0.01168  0.03457  1.0000
  C   C2760     1.0  0.83765  0.11427  0.49635  1.0000
  C   C2761     1.0  0.82241  0.12545  0.51019  1.0000
  H   H2190     1.0  0.65292  0.12797  0.19655  1.0000
  C   C2762     1.0  0.88617  0.24350  0.31776  1.0000
  H   H2191     1.0  0.87519  0.22346  0.03448  1.0000
  H   H2192     1.0  0.95966  0.09805  0.17440  1.0000
  S   S353      1.0  0.73712  0.18727  0.02084  1.0000
  H   H2193     1.0  0.79577  0.24208  0.24717  1.0000
  C   C2763     1.0  0.94246  0.09102  0.47436  1.0000
  H   H2194     1.0  0.78714  0.16490  0.03327  1.0000
  H   H2195     1.0  0.77848  0.16396  0.50366  1.0000
  H   H2196     1.0  0.90772  0.05382  0.49815  1.0000
  H   H2197     1.0  0.73731  0.23934  0.01928  1.0000
  H   H2198     1.0  0.84063  0.24297  0.50997  1.0000
  H   H2199     1.0  0.64485  0.14448  0.48754  1.0000
  H   H2200     1.0  0.83776  0.16980  0.48884  1.0000
  C   C2764     1.0  0.90386  0.99850  0.49983  1.0000
  Fe  Fe174     1.0  0.71345  0.15604  0.55363  1.0000
  C   C2765     1.0  0.76448  0.17917  0.96761  1.0000
  H   H2201     1.0  0.65957  0.20516  0.75502  1.0000
  Fe  Fe175     1.0  0.68646  0.17533  0.61078  1.0000
  S   S354      1.0  0.74464  0.15656  0.54322  1.0000
  S   S355      1.0  0.69057  0.19062  0.66814  1.0000
  Fe  Fe176     1.0  0.67760  0.13587  0.57837  1.0000
  S   S356      1.0  0.66725  0.10635  0.59295  1.0000
  H   H2202     1.0  0.77283  0.18911  0.98427  1.0000
  H   H2203     1.0  0.91847  0.04626  0.78426  1.0000
  S   S357      1.0  0.70225  0.14711  0.61138  1.0000
  H   H2204     1.0  0.81779  0.05629  0.53414  1.0000
  Fe  Fe177     1.0  0.95727  0.05637  0.60896  1.0000
  C   C2766     1.0  0.76545  0.24754  0.58498  1.0000
  Fe  Fe178     1.0  0.92614  0.06761  0.66504  1.0000
  S   S358      1.0  0.92752  0.03898  0.69509  1.0000
  S   S359      1.0  0.90627  0.09351  0.67184  1.0000
  C   C2767     1.0  0.90194  0.14043  0.62293  1.0000
  Fe  Fe179     1.0  0.93011  0.02614  0.63494  1.0000
  S   S360      1.0  0.96142  0.02683  0.63377  1.0000
  S   S361      1.0  0.95746  0.07117  0.66730  1.0000
  S   S362      1.0  0.92597  0.05446  0.60490  1.0000
  Fe  Fe180     1.0  0.81937  0.17472  0.78749  1.0000
  S   S363      1.0  0.84795  0.16948  0.81409  1.0000
  S   S364      1.0  0.81326  0.18849  0.72931  1.0000
  Fe  Fe181     1.0  0.79943  0.15474  0.85294  1.0000
  S   S365      1.0  0.82638  0.14772  0.88531  1.0000
  S   S366      1.0  0.77063  0.14579  0.87103  1.0000
  Fe  Fe182     1.0  0.83380  0.17785  0.87031  1.0000
  S   S367      1.0  0.84884  0.19770  0.91166  1.0000
  Fe  Fe183     1.0  0.83813  0.13985  0.82627  1.0000
  S   S368      1.0  0.85536  0.11210  0.81924  1.0000
  S   S369      1.0  0.80586  0.18550  0.84232  1.0000
  S   S370      1.0  0.81045  0.14442  0.79516  1.0000
  C   C2768     1.0  0.89247  0.09853  0.71339  1.0000
  C   C2769     1.0  0.89147  0.08553  0.74418  1.0000
  C   C2770     1.0  0.88007  0.08992  0.77645  1.0000
  C   C2771     1.0  0.86964  0.10734  0.77829  1.0000
  C   C2772     1.0  0.87067  0.12036  0.74750  1.0000
  C   C2773     1.0  0.88196  0.11591  0.71509  1.0000
  H   H2205     1.0  0.89943  0.07210  0.74306  1.0000
  H   H2206     1.0  0.87931  0.07979  0.80017  1.0000
  H   H2207     1.0  0.86271  0.13381  0.74864  1.0000
  H   H2208     1.0  0.88264  0.12604  0.69139  1.0000
  C   C2774     1.0  0.64094  0.15544  0.74592  1.0000
  H   H2209     1.0  0.95295  0.00168  0.83676  1.0000
  C   C2775     1.0  0.72993  0.14573  0.76438  1.0000
  H   H2210     1.0  0.78582  0.04443  0.52401  1.0000
  H   H2211     1.0  0.85782  0.23018  0.95867  1.0000
  C   C2776     1.0  0.77197  0.17040  0.93403  1.0000
  C   C2777     1.0  0.76133  0.15748  0.91246  1.0000
  C   C2778     1.0  0.74308  0.15358  0.92431  1.0000
  C   C2779     1.0  0.73547  0.16257  0.95761  1.0000
  H   H2212     1.0  0.76922  0.12044  0.80508  1.0000
  H   H2213     1.0  0.78608  0.17338  0.92521  1.0000
  H   H2214     1.0  0.73487  0.14349  0.90784  1.0000
  C   C2780     1.0  0.80824  0.06381  0.51419  1.0000
  C   C2781     1.0  0.73274  0.15034  0.80373  1.0000
  Fe  Fe184     1.0  0.95887  0.04137  0.69224  1.0000
  C   C2782     1.0  0.83529  0.24777  0.70343  1.0000
  C   C2783     1.0  0.76304  0.24735  0.73194  1.0000
  C   C2784     1.0  0.66278  0.23419  0.95831  1.0000
  H   H2215     1.0  0.80729  0.11500  0.97168  1.0000
  H   H2216     1.0  0.77512  0.23561  0.57899  1.0000
  H   H2217     1.0  0.87626  0.08155  0.52782  1.0000
  H   H2218     1.0  0.67473  0.18905  0.86157  1.0000
  H   H2219     1.0  0.68947  0.22405  0.98150  1.0000
  H   H2220     1.0  0.91415  0.13582  0.64017  1.0000
  C   C2785     1.0  0.70074  0.21637  0.80063  1.0000
  C   C2786     1.0  0.83457  0.21333  0.93969  1.0000
  C   C2787     1.0  0.91178  0.03919  0.84357  1.0000
  C   C2788     1.0  0.93356  0.01472  0.96066  1.0000
  H   H2221     1.0  0.68494  0.12130  0.81998  1.0000
  C   C2789     1.0  0.91662  0.02788  0.87608  1.0000
  C   C2790     1.0  0.87010  0.15184  0.57933  1.0000
  C   C2791     1.0  0.87742  0.13307  0.57614  1.0000
  C   C2792     1.0  0.81580  0.22106  0.68654  1.0000
  C   C2793     1.0  0.82181  0.21136  0.72042  1.0000
  C   C2794     1.0  0.83432  0.22004  0.74629  1.0000
  C   C2795     1.0  0.84093  0.23834  0.73796  1.0000
  C   C2796     1.0  0.68233  0.23383  0.96151  1.0000
  H   H2222     1.0  0.80575  0.21468  0.66690  1.0000
  H   H2223     1.0  0.83895  0.21265  0.77261  1.0000
  C   C2797     1.0  0.94152  0.01218  0.83922  1.0000
  C   C2798     1.0  0.69445  0.23303  0.82029  1.0000
  P   P93       1.0  0.72526  0.20880  0.80415  1.0000
  H   H2224     1.0  0.68935  0.14425  0.73867  1.0000
  C   C2799     1.0  0.72652  0.21113  0.92379  1.0000
  H   H2225     1.0  0.74925  0.21884  0.96232  1.0000
  C   C2800     1.0  0.92200  0.03724  0.80919  1.0000
  H   H2226     1.0  0.73399  0.17269  0.84670  1.0000
  H   H2227     1.0  0.64927  0.09902  0.73506  1.0000
  C   C2801     1.0  0.69191  0.22763  0.69341  1.0000
  C   C2802     1.0  0.68099  0.21387  0.67481  1.0000
  C   C2803     1.0  0.66214  0.21822  0.66578  1.0000
  C   C2804     1.0  0.65405  0.23598  0.67710  1.0000
  C   C2805     1.0  0.72824  0.18417  0.78876  1.0000
  H   H2228     1.0  0.70649  0.22431  0.70047  1.0000
  H   H2229     1.0  0.69140  0.23409  0.59672  1.0000
  C   C2806     1.0  0.80940  0.12584  0.99397  1.0000
  C   C2807     1.0  0.93680  0.02369  0.80700  1.0000
  C   C2808     1.0  0.81516  0.21117  0.94145  1.0000
  H   H2230     1.0  0.73036  0.13087  0.75512  1.0000
  C   C2809     1.0  0.73309  0.21162  0.85432  1.0000
  C   C2810     1.0  0.69018  0.10258  0.68686  1.0000
  H   H2231     1.0  0.70648  0.20423  0.87910  1.0000
  C   C2811     1.0  0.69269  0.24670  0.93994  1.0000
  H   H2232     1.0  0.85063  0.24500  0.75802  1.0000
  C   C2812     1.0  0.68498  0.13031  0.72857  1.0000
  H   H2233     1.0  0.80151  0.22668  0.80370  1.0000
  C   C2813     1.0  0.84750  0.08352  0.54763  1.0000
  H   H2234     1.0  0.83698  0.11501  0.01053  1.0000
  H   H2235     1.0  0.88925  0.03857  0.54892  1.0000
  H   H2236     1.0  0.76672  0.10166  0.52530  1.0000
  C   C2814     1.0  0.84283  0.22848  0.95994  1.0000
  H   H2237     1.0  0.90861  0.02969  0.90254  1.0000
  C   C2815     1.0  0.72067  0.20855  0.88501  1.0000
  C   C2816     1.0  0.83604  0.08390  0.58068  1.0000
  C   C2817     1.0  0.84390  0.08079  0.61788  1.0000
  C   C2818     1.0  0.86329  0.07797  0.62251  1.0000
  C   C2819     1.0  0.87483  0.07815  0.58992  1.0000
  C   C2820     1.0  0.86701  0.08098  0.55258  1.0000
  C   C2821     1.0  0.89329  0.12736  0.59806  1.0000
  C   C2822     1.0  0.89601  0.02983  0.52663  1.0000
  H   H2238     1.0  0.88666  0.00327  0.55034  1.0000
  C   C2823     1.0  0.75722  0.21964  0.90198  1.0000
  C   C2824     1.0  0.73297  0.24136  0.76063  1.0000
  S   S371      1.0  0.64967  0.21976  0.98897  1.0000
  C   C2825     1.0  0.67692  0.17426  0.85236  1.0000
  C   C2826     1.0  0.81231  0.23964  0.98257  1.0000
  S   S372      1.0  0.69923  0.18511  0.55518  1.0000
  H   H2239     1.0  0.88990  0.07641  0.59390  1.0000
  H   H2240     1.0  0.73574  0.13911  0.82491  1.0000
  H   H2241     1.0  0.82107  0.08680  0.57787  1.0000
  H   H2242     1.0  0.83503  0.08084  0.64329  1.0000
  H   H2243     1.0  0.97318  0.06643  0.76742  1.0000
  H   H2244     1.0  0.71708  0.10020  0.59453  1.0000
  S   S373      1.0  0.66070  0.16358  0.58167  1.0000
  H   H2245     1.0  0.94471  0.02218  0.78031  1.0000
  H   H2246     1.0  0.65823  0.15282  0.69420  1.0000
  H   H2247     1.0  0.66880  0.08149  0.68772  1.0000
  C   C2827     1.0  0.87836  0.16491  0.60510  1.0000
  C   C2828     1.0  0.89465  0.15920  0.62620  1.0000
  P   P94       1.0  0.86883  0.18913  0.60932  1.0000
  C   C2829     1.0  0.84385  0.18885  0.59928  1.0000
  C   C2830     1.0  0.87269  0.19747  0.65887  1.0000
  C   C2831     1.0  0.87155  0.18465  0.69029  1.0000
  C   C2832     1.0  0.87540  0.19072  0.72844  1.0000
  C   C2833     1.0  0.88015  0.20968  0.73573  1.0000
  C   C2834     1.0  0.88096  0.22264  0.70481  1.0000
  C   C2835     1.0  0.87720  0.21660  0.66655  1.0000
  C   C2836     1.0  0.83136  0.18424  0.62881  1.0000
  C   C2837     1.0  0.81213  0.18341  0.62066  1.0000
  C   C2838     1.0  0.80514  0.18714  0.58309  1.0000
  C   C2839     1.0  0.81748  0.19162  0.55346  1.0000
  C   C2840     1.0  0.83676  0.19238  0.56137  1.0000
  C   C2841     1.0  0.87996  0.20442  0.57459  1.0000
  C   C2842     1.0  0.89650  0.19826  0.55588  1.0000
  H   H2248     1.0  0.82302  0.22165  0.86047  1.0000
  H   H2249     1.0  0.72141  0.15951  0.96661  1.0000
  C   C2843     1.0  0.80950  0.23851  0.81501  1.0000
  C   C2844     1.0  0.87196  0.22256  0.56557  1.0000
  H   H2250     1.0  0.85794  0.15609  0.56190  1.0000
  H   H2251     1.0  0.90164  0.16915  0.64547  1.0000
  H   H2252     1.0  0.86770  0.16991  0.68544  1.0000
  H   H2253     1.0  0.87449  0.18074  0.75245  1.0000
  H   H2254     1.0  0.88271  0.21445  0.76545  1.0000
  C   C2845     1.0  0.93750  0.03432  0.96217  1.0000
  H   H2255     1.0  0.87773  0.22700  0.64335  1.0000
  H   H2256     1.0  0.83630  0.18128  0.65825  1.0000
  H   H2257     1.0  0.80267  0.18002  0.64385  1.0000
  H   H2258     1.0  0.79018  0.18659  0.57698  1.0000
  C   C2846     1.0  0.93350  0.04511  0.99572  1.0000
  H   H2259     1.0  0.84607  0.19562  0.53777  1.0000
  H   H2260     1.0  0.90299  0.18435  0.56209  1.0000
  H   H2261     1.0  0.94374  0.04127  0.93750  1.0000
  H   H2262     1.0  0.65484  0.17579  0.80940  1.0000
  C   C2847     1.0  0.64644  0.10446  0.61996  1.0000
  H   H2263     1.0  0.78235  0.13968  0.98405  1.0000
  C   C2848     1.0  0.66801  0.12289  0.74114  1.0000
  H   H2264     1.0  0.86808  0.19435  0.99560  1.0000
  H   H2265     1.0  0.89892  0.11277  0.59602  1.0000
  H   H2266     1.0  0.65370  0.20774  0.65117  1.0000
  H   H2267     1.0  0.73303  0.09470  0.53145  1.0000
  C   C2849     1.0  0.88044  0.23435  0.53846  1.0000
  C   C2850     1.0  0.72670  0.16031  0.73704  1.0000
  C   C2851     1.0  0.72604  0.17946  0.74910  1.0000
  C   C2852     1.0  0.73958  0.22332  0.77350  1.0000
  C   C2853     1.0  0.75791  0.21711  0.76413  1.0000
  C   C2854     1.0  0.76960  0.22915  0.74362  1.0000
  H   H2268     1.0  0.64284  0.13469  0.63128  1.0000
  C   C2855     1.0  0.67349  0.09495  0.69971  1.0000
  H   H2269     1.0  0.65873  0.23087  0.57565  1.0000
  H   H2270     1.0  0.72442  0.15688  0.70651  1.0000
  H   H2271     1.0  0.72318  0.19058  0.72760  1.0000
  H   H2272     1.0  0.76334  0.20316  0.77365  1.0000
  H   H2273     1.0  0.78386  0.22444  0.73722  1.0000
  Fe  Fe185     1.0  0.67523  0.17059  0.52560  1.0000
  C   C2856     1.0  0.66321  0.22959  0.79280  1.0000
  H   H2274     1.0  0.81838  0.24610  0.65099  1.0000
  C   C2857     1.0  0.65367  0.24678  0.93181  1.0000
  H   H2275     1.0  0.81029  0.11880  0.52236  1.0000
  C   C2858     1.0  0.80406  0.22433  0.96289  1.0000
  C   C2859     1.0  0.74621  0.17535  0.97943  1.0000
  H   H2276     1.0  0.66832  0.21376  0.52051  1.0000
  H   H2277     1.0  0.93672  0.06017  0.99712  1.0000
  C   C2860     1.0  0.68783  0.20611  0.77787  1.0000
  H   H2278     1.0  0.97035  0.02318  0.88884  1.0000
  H   H2279     1.0  0.80873  0.19934  0.92648  1.0000
  C   C2861     1.0  0.68261  0.13614  0.82866  1.0000
  C   C2862     1.0  0.74468  0.21701  0.93222  1.0000
  C   C2863     1.0  0.75153  0.21688  0.86324  1.0000
  P   P95       1.0  0.65333  0.13694  0.77378  1.0000
  S   S374      1.0  0.69035  0.14200  0.52008  1.0000
  H   H2280     1.0  0.85911  0.22753  0.57943  1.0000
  H   H2281     1.0  0.81209  0.19446  0.52428  1.0000
  H   H2282     1.0  0.69202  0.19327  0.76218  1.0000
  S   S375      1.0  0.97157  0.06923  0.55737  1.0000
  H   H2283     1.0  0.71600  0.24633  0.52244  1.0000
  C   C2864     1.0  0.93186  0.01464  0.87445  1.0000
  C   C2865     1.0  0.69096  0.16282  0.87034  1.0000
  H   H2284     1.0  0.77148  0.22355  0.90850  1.0000
  H   H2285     1.0  0.76168  0.21885  0.84071  1.0000
  H   H2286     1.0  0.69964  0.16865  0.89357  1.0000
  H   H2287     1.0  0.86945  0.07592  0.65145  1.0000
  H   H2288     1.0  0.90023  0.04966  0.84513  1.0000
  C   C2866     1.0  0.69379  0.14377  0.85847  1.0000
  H   H2289     1.0  0.64897  0.23513  0.78860  1.0000
  C   C2867     1.0  0.67580  0.23961  0.81619  1.0000
  C   C2868     1.0  0.96511  0.09645  0.99197  1.0000
  C   C2869     1.0  0.89680  0.22806  0.51981  1.0000
  C   C2870     1.0  0.66237  0.10507  0.72660  1.0000
  H   H2290     1.0  0.64920  0.12136  0.85362  1.0000
  C   C2871     1.0  0.66918  0.21274  0.77395  1.0000
  H   H2291     1.0  0.78912  0.22249  0.96492  1.0000
  H   H2292     1.0  0.96974  0.08746  0.93240  1.0000
  H   H2293     1.0  0.78455  0.11387  0.58124  1.0000
  H   H2294     1.0  0.64622  0.07370  0.61457  1.0000
  H   H2295     1.0  0.70868  0.12630  0.69085  1.0000
  C   C2872     1.0  0.92652  0.00587  0.99398  1.0000
  H   H2296     1.0  0.77358  0.13805  0.74442  1.0000
  H   H2297     1.0  0.71708  0.20837  0.94749  1.0000
  C   C2873     1.0  0.82166  0.23561  0.84691  1.0000
  C   C2874     1.0  0.73183  0.16949  0.81601  1.0000
  H   H2298     1.0  0.73465  0.11304  0.65110  1.0000
  C   C2875     1.0  0.69597  0.12021  0.70144  1.0000
  C   C2876     1.0  0.66837  0.14748  0.81061  1.0000
  C   C2877     1.0  0.82971  0.11804  0.67878  1.0000
  C   C2878     1.0  0.83718  0.12769  0.64722  1.0000
  C   C2879     1.0  0.82516  0.13666  0.61981  1.0000
  C   C2880     1.0  0.80571  0.13627  0.62429  1.0000
  C   C2881     1.0  0.79808  0.12624  0.65543  1.0000
  C   C2882     1.0  0.81027  0.11716  0.68277  1.0000
  P   P96       1.0  0.77289  0.12615  0.66118  1.0000
  C   C2883     1.0  0.76788  0.11389  0.70620  1.0000
  C   C2884     1.0  0.76477  0.15099  0.66395  1.0000
  C   C2885     1.0  0.77458  0.16418  0.68683  1.0000
  C   C2886     1.0  0.76851  0.18344  0.68832  1.0000
  C   C2887     1.0  0.75279  0.18980  0.66676  1.0000
  C   C2888     1.0  0.74310  0.17686  0.64349  1.0000
  C   C2889     1.0  0.74909  0.15759  0.64205  1.0000
  C   C2890     1.0  0.76361  0.09434  0.70550  1.0000
  C   C2891     1.0  0.76086  0.08448  0.74037  1.0000
  C   C2892     1.0  0.76276  0.09391  0.77623  1.0000
  C   C2893     1.0  0.76736  0.11321  0.77723  1.0000
  C   C2894     1.0  0.76985  0.12319  0.74247  1.0000
  C   C2895     1.0  0.76100  0.11442  0.62080  1.0000
  C   C2896     1.0  0.76999  0.11076  0.58515  1.0000
  C   C2897     1.0  0.75994  0.10355  0.55321  1.0000
  C   C2898     1.0  0.74092  0.09969  0.55663  1.0000
  C   C2899     1.0  0.73196  0.10281  0.59219  1.0000
  C   C2900     1.0  0.74196  0.11007  0.62417  1.0000
  H   H2299     1.0  0.83901  0.11126  0.70035  1.0000
  H   H2300     1.0  0.85228  0.12829  0.64430  1.0000
  H   H2301     1.0  0.83087  0.14434  0.59557  1.0000
  H   H2302     1.0  0.79659  0.14391  0.60359  1.0000
  H   H2303     1.0  0.80497  0.10964  0.70768  1.0000
  H   H2304     1.0  0.78713  0.15973  0.70302  1.0000
  H   H2305     1.0  0.77623  0.19348  0.70579  1.0000
  H   H2306     1.0  0.74815  0.20474  0.66791  1.0000
  H   H2307     1.0  0.73100  0.18175  0.62627  1.0000
  H   H2308     1.0  0.74159  0.14805  0.62314  1.0000
  H   H2309     1.0  0.76273  0.08656  0.67815  1.0000
  H   H2310     1.0  0.75761  0.06941  0.73965  1.0000
  H   H2311     1.0  0.76097  0.08624  0.80334  1.0000
  H   H2312     1.0  0.95029  0.09347  0.99117  1.0000
  P   P97       1.0  0.93900  0.00099  0.91720  1.0000
  C   C2901     1.0  0.68395  0.24554  0.70373  1.0000
  H   H2313     1.0  0.70466  0.13491  0.87252  1.0000
  C   C2902     1.0  0.82273  0.23905  0.67777  1.0000
  S   S376      1.0  0.68276  0.17446  0.00120  1.0000
  H   H2314     1.0  0.69832  0.09505  0.66479  1.0000
  C   C2903     1.0  0.83174  0.24154  0.98153  1.0000
  H   H2315     1.0  0.65096  0.04562  0.56339  1.0000
  H   H2316     1.0  0.87075  0.12291  0.55694  1.0000
  C   C2904     1.0  0.90483  0.21003  0.52852  1.0000
  H   H2317     1.0  0.70406  0.24125  0.83808  1.0000
  C   C2905     1.0  0.66562  0.16664  0.82269  1.0000
  H   H2318     1.0  0.88400  0.23752  0.71059  1.0000
  C   C2906     1.0  0.64641  0.16007  0.70792  1.0000
  H   H2319     1.0  0.81060  0.15398  0.51762  1.0000
  C   C2907     1.0  0.66322  0.24480  0.58483  1.0000
  H   H2320     1.0  0.94356  0.00611  0.56344  1.0000
  C   C2908     1.0  0.89449  0.00993  0.52740  1.0000
  C   C2909     1.0  0.79539  0.13984  0.00077  1.0000
  H   H2321     1.0  0.77049  0.24674  0.64696  1.0000
  H   H2322     1.0  0.64073  0.17744  0.65726  1.0000
  H   H2323     1.0  0.91550  0.00721  0.73897  1.0000
  H   H2324     1.0  0.71884  0.24621  0.76667  1.0000
  H   H2325     1.0  0.91749  0.20512  0.51394  1.0000
  H   H2326     1.0  0.70777  0.24686  0.94362  1.0000
  C   C2910     1.0  0.68194  0.24657  0.59679  1.0000
  S   S377      1.0  0.91506  0.99887  0.62023  1.0000
  H   H2327     1.0  0.84163  0.24783  0.88595  1.0000
  Fe  Fe186     1.0  0.68148  0.31946  0.34112  1.0000
  S   S378      1.0  0.70118  0.30134  0.37788  1.0000
  H   H2328     1.0  0.68298  0.35881  0.48371  1.0000
  Fe  Fe187     1.0  0.66970  0.28557  0.29080  1.0000
  S   S379      1.0  0.68818  0.26464  0.32465  1.0000
  S   S380      1.0  0.65257  0.27784  0.23724  1.0000
  Fe  Fe188     1.0  0.67777  0.28059  0.37738  1.0000
  S   S381      1.0  0.66875  0.26973  0.43554  1.0000
  Fe  Fe189     1.0  0.70962  0.28744  0.32127  1.0000
  S   S382      1.0  0.73946  0.27835  0.30780  1.0000
  S   S383      1.0  0.65742  0.29971  0.34402  1.0000
  S   S384      1.0  0.69184  0.30742  0.28419  1.0000
  Fe  Fe190     1.0  0.79961  0.29529  0.12743  1.0000
  S   S385      1.0  0.82890  0.29582  0.15191  1.0000
  S   S386      1.0  0.77427  0.31068  0.15286  1.0000
  C   C2911     1.0  0.66609  0.35731  0.11040  1.0000
  S   S387      1.0  0.84196  0.26979  0.07624  1.0000
  H   H2329     1.0  0.91950  0.47053  0.13790  1.0000
  Fe  Fe191     1.0  0.83068  0.26476  0.13589  1.0000
  C   C2912     1.0  0.87854  0.35662  0.16227  1.0000
  Fe  Fe192     1.0  0.83800  0.30107  0.09062  1.0000
  S   S388      1.0  0.86205  0.32139  0.08787  1.0000
  S   S389      1.0  0.80054  0.26369  0.11652  1.0000
  S   S390      1.0  0.80840  0.30329  0.06708  1.0000
  H   H2330     1.0  0.64882  0.32882  0.47528  1.0000
  H   H2331     1.0  0.64447  0.37781  0.32122  1.0000
  Fe  Fe193     1.0  0.92429  0.39011  0.42289  1.0000
  S   S391      1.0  0.93263  0.42030  0.43711  1.0000
  S   S392      1.0  0.89459  0.38276  0.43977  1.0000
  Fe  Fe194     1.0  0.94446  0.42102  0.37662  1.0000
  S   S393      1.0  0.94616  0.44272  0.32770  1.0000
  Fe  Fe195     1.0  0.96008  0.40614  0.45575  1.0000
  C   C2913     1.0  0.83349  0.27387  0.44415  1.0000
  S   S394      1.0  0.93384  0.39200  0.36062  1.0000
  S   S395      1.0  0.95128  0.37590  0.44467  1.0000
  C   C2914     1.0  0.83305  0.26757  0.40538  1.0000
  C   C2915     1.0  0.71427  0.35876  0.22690  1.0000
  C   C2916     1.0  0.85675  0.31036  0.29460  1.0000
  C   C2917     1.0  0.85868  0.27294  0.26502  1.0000
  C   C2918     1.0  0.66441  0.35399  0.39794  1.0000
  C   C2919     1.0  0.67323  0.33846  0.10517  1.0000
  H   H2332     1.0  0.87997  0.39919  0.03933  1.0000
  C   C2920     1.0  0.88955  0.36233  0.46765  1.0000
  C   C2921     1.0  0.64484  0.37420  0.44014  1.0000
  C   C2922     1.0  0.87156  0.36078  0.48345  1.0000
  C   C2923     1.0  0.66433  0.32634  0.07826  1.0000
  C   C2924     1.0  0.77774  0.26388  0.41718  1.0000
  C   C2925     1.0  0.65969  0.25166  0.17851  1.0000
  H   H2333     1.0  0.89553  0.34023  0.06778  1.0000
  C   C2926     1.0  0.68092  0.34294  0.19994  1.0000
  C   C2927     1.0  0.93506  0.47576  0.36725  1.0000
  C   C2928     1.0  0.94281  0.46772  0.33342  1.0000
  C   C2929     1.0  0.94774  0.47978  0.30272  1.0000
  H   H2334     1.0  0.93095  0.46654  0.39074  1.0000
  H   H2335     1.0  0.88066  0.27564  0.45844  1.0000
  H   H2336     1.0  0.88020  0.26382  0.39019  1.0000
  H   H2337     1.0  0.66355  0.29727  0.50986  1.0000
  C   C2930     1.0  0.92092  0.40722  0.11294  1.0000
  H   H2338     1.0  0.96330  0.40224  0.06497  1.0000
  C   C2931     1.0  0.74897  0.28731  0.26453  1.0000
  C   C2932     1.0  0.76501  0.27828  0.24876  1.0000
  C   C2933     1.0  0.77274  0.28502  0.21404  1.0000
  C   C2934     1.0  0.76464  0.30114  0.19544  1.0000
  C   C2935     1.0  0.74881  0.31033  0.21162  1.0000
  C   C2936     1.0  0.74095  0.30343  0.24595  1.0000
  H   H2339     1.0  0.77124  0.26585  0.26318  1.0000
  H   H2340     1.0  0.78507  0.27791  0.20198  1.0000
  H   H2341     1.0  0.74273  0.32296  0.19779  1.0000
  H   H2342     1.0  0.72895  0.31085  0.25834  1.0000
  C   C2937     1.0  0.85063  0.27673  0.46313  1.0000
  C   C2938     1.0  0.72524  0.35647  0.04107  1.0000
  C   C2939     1.0  0.71061  0.35122  0.06522  1.0000
  C   C2940     1.0  0.73219  0.27014  0.44353  1.0000
  C   C2941     1.0  0.86845  0.33284  0.04451  1.0000
  C   C2942     1.0  0.93119  0.35362  0.10372  1.0000
  C   C2943     1.0  0.90352  0.41653  0.05435  1.0000
  C   C2944     1.0  0.75593  0.27820  0.06408  1.0000
  C   C2945     1.0  0.69443  0.29718  0.17048  1.0000
  C   C2946     1.0  0.74927  0.25970  0.05934  1.0000
  C   C2947     1.0  0.81162  0.30642  0.25341  1.0000
  C   C2948     1.0  0.80406  0.32064  0.22866  1.0000
  C   C2949     1.0  0.79102  0.33417  0.24268  1.0000
  C   C2950     1.0  0.78581  0.33385  0.28177  1.0000
  C   C2951     1.0  0.79356  0.31982  0.30713  1.0000
  C   C2952     1.0  0.80657  0.30615  0.29269  1.0000
  P   P98       1.0  0.78971  0.32164  0.35891  1.0000
  C   C2953     1.0  0.76860  0.33621  0.36574  1.0000
  C   C2954     1.0  0.78539  0.29881  0.38121  1.0000
  C   C2955     1.0  0.78479  0.29751  0.42204  1.0000
  H   H2343     1.0  0.74938  0.25004  0.08401  1.0000
  H   H2344     1.0  0.88296  0.34945  0.13565  1.0000
  C   C2956     1.0  0.96825  0.40513  0.09449  1.0000
  C   C2957     1.0  0.78146  0.28258  0.35849  1.0000
  C   C2958     1.0  0.75143  0.32941  0.35156  1.0000
  C   C2959     1.0  0.73509  0.34099  0.35320  1.0000
  C   C2960     1.0  0.73573  0.35944  0.36910  1.0000
  C   C2961     1.0  0.75272  0.36623  0.38383  1.0000
  C   C2962     1.0  0.76910  0.35463  0.38238  1.0000
  C   C2963     1.0  0.81084  0.33247  0.37745  1.0000
  C   C2964     1.0  0.81620  0.35013  0.36228  1.0000
  C   C2965     1.0  0.83336  0.35789  0.37337  1.0000
  C   C2966     1.0  0.84544  0.34797  0.39925  1.0000
  C   C2967     1.0  0.84033  0.33031  0.41425  1.0000
  C   C2968     1.0  0.82319  0.32252  0.40319  1.0000
  H   H2345     1.0  0.73193  0.25916  0.38452  1.0000
  H   H2346     1.0  0.80781  0.32096  0.19823  1.0000
  H   H2347     1.0  0.78476  0.34472  0.22289  1.0000
  H   H2348     1.0  0.77593  0.34476  0.29199  1.0000
  H   H2349     1.0  0.81290  0.29537  0.31181  1.0000
  H   H2350     1.0  0.78735  0.30995  0.44007  1.0000
  C   C2969     1.0  0.65059  0.34080  0.45600  1.0000
  C   C2970     1.0  0.69663  0.34278  0.17556  1.0000
  C   C2971     1.0  0.96802  0.48513  0.17906  1.0000
  H   H2351     1.0  0.78079  0.28334  0.32698  1.0000
  H   H2352     1.0  0.75076  0.31526  0.33847  1.0000
  H   H2353     1.0  0.72192  0.33570  0.34187  1.0000
  H   H2354     1.0  0.72299  0.36834  0.37024  1.0000
  H   H2355     1.0  0.75318  0.38050  0.39638  1.0000
  H   H2356     1.0  0.78205  0.36013  0.39406  1.0000
  H   H2357     1.0  0.80726  0.35778  0.34133  1.0000
  H   H2358     1.0  0.83745  0.37154  0.36167  1.0000
  H   H2359     1.0  0.85884  0.35391  0.40741  1.0000
  H   H2360     1.0  0.84979  0.32259  0.43423  1.0000
  H   H2361     1.0  0.81994  0.30858  0.41417  1.0000
  H   H2362     1.0  0.96595  0.37587  0.11300  1.0000
  C   C2972     1.0  0.86707  0.26651  0.40496  1.0000
  C   C2973     1.0  0.93621  0.31918  0.10835  1.0000
  P   P99       1.0  0.91226  0.37593  0.15975  1.0000
  H   H2363     1.0  0.74072  0.25423  0.20410  1.0000
  H   H2364     1.0  0.69235  0.27835  0.49837  1.0000
  H   H2365     1.0  0.70683  0.30016  0.07499  1.0000
  H   H2366     1.0  0.94123  0.30577  0.09562  1.0000
  H   H2367     1.0  0.94425  0.33608  0.05922  1.0000
  C   C2974     1.0  0.90282  0.34741  0.47332  1.0000
  H   H2368     1.0  0.76132  0.33155  0.08534  1.0000
  C   C2975     1.0  0.69767  0.27751  0.17576  1.0000
  S   S396      1.0  0.67697  0.35089  0.35430  1.0000
  C   C2976     1.0  0.74251  0.25371  0.02287  1.0000
  H   H2369     1.0  0.71047  0.37903  0.47504  1.0000
  C   C2977     1.0  0.92740  0.38567  0.19754  1.0000
  H   H2370     1.0  0.85602  0.32487  0.30609  1.0000
  H   H2371     1.0  0.68958  0.30554  0.19512  1.0000
  C   C2978     1.0  0.92782  0.31938  0.14497  1.0000
  C   C2979     1.0  0.74489  0.30412  0.50272  1.0000
  P   P100      1.0  0.69539  0.33141  0.12794  1.0000
  H   H2372     1.0  0.69511  0.27118  0.20392  1.0000
  C   C2980     1.0  0.73250  0.33140  0.10335  1.0000
  C   C2981     1.0  0.92102  0.33668  0.16096  1.0000
  H   H2373     1.0  0.88898  0.25841  0.31247  1.0000
  C   C2982     1.0  0.67408  0.26491  0.03769  1.0000
  H   H2374     1.0  0.82132  0.29560  0.24205  1.0000
  H   H2375     1.0  0.89200  0.38967  0.23004  1.0000
  H   H2376     1.0  0.72256  0.31381  0.46319  1.0000
  H   H2377     1.0  0.67310  0.36716  0.12986  1.0000
  H   H2378     1.0  0.76110  0.28284  0.09242  1.0000
  C   C2983     1.0  0.65685  0.26323  0.05610  1.0000
  H   H2379     1.0  0.85261  0.34165  0.16334  1.0000
  H   H2380     1.0  0.93292  0.40918  0.13203  1.0000
  C   C2984     1.0  0.66167  0.33843  0.42266  1.0000
  C   C2985     1.0  0.94085  0.37391  0.21709  1.0000
  C   C2986     1.0  0.91907  0.48998  0.49405  1.0000
  H   H2381     1.0  0.91429  0.33655  0.18913  1.0000
  C   C2987     1.0  0.74525  0.33327  0.46414  1.0000
  H   H2382     1.0  0.64171  0.32400  0.03580  1.0000
  C   C2988     1.0  0.78112  0.28010  0.43991  1.0000
  C   C2989     1.0  0.71415  0.33870  0.09677  1.0000
  S   S397      1.0  0.97257  0.40966  0.39675  1.0000
  H   H2383     1.0  0.65913  0.38422  0.38927  1.0000
  C   C2990     1.0  0.64855  0.33310  0.05698  1.0000
  C   C2991     1.0  0.96737  0.47663  0.44898  1.0000
  C   C2992     1.0  0.84986  0.26354  0.38567  1.0000
  H   H2384     1.0  0.96207  0.37222  0.26285  1.0000
  C   C2993     1.0  0.85387  0.27605  0.30420  1.0000
  C   C2994     1.0  0.65023  0.36388  0.08935  1.0000
  H   H2385     1.0  0.69954  0.36428  0.28064  1.0000
  H   H2386     1.0  0.88403  0.37811  0.09626  1.0000
  C   C2995     1.0  0.93221  0.49577  0.37021  1.0000
  H   H2387     1.0  0.86571  0.28579  0.21032  1.0000
  C   C2996     1.0  0.85515  0.36103  0.21235  1.0000
  C   C2997     1.0  0.85299  0.29490  0.31891  1.0000
  C   C2998     1.0  0.93484  0.49212  0.16877  1.0000
  H   H2388     1.0  0.72554  0.35126  0.17108  1.0000
  H   H2389     1.0  0.94693  0.44864  0.13043  1.0000
  H   H2390     1.0  0.92629  0.30609  0.16067  1.0000
  H   H2391     1.0  0.69663  0.35693  0.05888  1.0000
  H   H2392     1.0  0.94276  0.35893  0.20952  1.0000
  C   C2999     1.0  0.64151  0.35179  0.06259  1.0000
  H   H2393     1.0  0.68596  0.25588  0.04674  1.0000
  C   C3000     1.0  0.64101  0.27380  0.04253  1.0000
  C   C3001     1.0  0.89115  0.40173  0.06040  1.0000
  C   C3002     1.0  0.89796  0.33085  0.49368  1.0000
  C   C3003     1.0  0.85626  0.33414  0.01219  1.0000
  C   C3004     1.0  0.86635  0.37455  0.23089  1.0000
  H   H2394     1.0  0.73844  0.28333  0.43478  1.0000
  H   H2395     1.0  0.81957  0.26582  0.39110  1.0000
  H   H2396     1.0  0.90187  0.42555  0.02870  1.0000
  H   H2397     1.0  0.85953  0.25850  0.25317  1.0000
  H   H2398     1.0  0.93464  0.42732  0.24795  1.0000
  C   C3005     1.0  0.77769  0.26517  0.37645  1.0000
  H   H2399     1.0  0.71235  0.26542  0.08485  1.0000
  H   H2400     1.0  0.84938  0.29775  0.34902  1.0000
  C   C3006     1.0  0.93308  0.47460  0.14929  1.0000
  P   P101      1.0  0.84952  0.25581  0.33530  1.0000
  C   C3007     1.0  0.93648  0.41246  0.23887  1.0000
  H   H2401     1.0  0.86164  0.38152  0.25750  1.0000
  H   H2402     1.0  0.82422  0.25880  0.26556  1.0000
  C   C3008     1.0  0.69772  0.30567  0.13417  1.0000
  C   C3009     1.0  0.74351  0.34946  0.04843  1.0000
  Fe  Fe196     1.0  0.81157  0.27141  0.05785  1.0000
  H   H2403     1.0  0.66807  0.32454  0.41617  1.0000
  C   C3010     1.0  0.95195  0.38139  0.24727  1.0000
  H   H2404     1.0  0.86424  0.31906  0.23658  1.0000
  H   H2405     1.0  0.84173  0.35751  0.22445  1.0000
  C   C3011     1.0  0.96640  0.46746  0.15963  1.0000
  C   C3012     1.0  0.70406  0.29401  0.10318  1.0000
  C   C3013     1.0  0.93793  0.33628  0.08784  1.0000
  C   C3014     1.0  0.90832  0.39253  0.11974  1.0000
  C   C3015     1.0  0.71325  0.35101  0.18916  1.0000
  H   H2406     1.0  0.66801  0.33647  0.19028  1.0000
  H   H2407     1.0  0.76165  0.30477  0.03635  1.0000
  C   C3016     1.0  0.69867  0.35858  0.25113  1.0000
  C   C3017     1.0  0.92253  0.35393  0.14034  1.0000
  C   C3018     1.0  0.89352  0.38977  0.09290  1.0000
  H   H2408     1.0  0.96369  0.45003  0.41830  1.0000
  H   H2409     1.0  0.65483  0.26275  0.15849  1.0000
  C   C3019     1.0  0.91845  0.41922  0.08049  1.0000
  H   H2410     1.0  0.91461  0.41427  0.19521  1.0000
  C   C3020     1.0  0.88364  0.37916  0.21510  1.0000
  H   H2411     1.0  0.67000  0.35044  0.25671  1.0000
  C   C3021     1.0  0.73635  0.31667  0.47530  1.0000
  H   H2412     1.0  0.66970  0.31187  0.07313  1.0000
  H   H2413     1.0  0.82051  0.27631  0.45971  1.0000
  C   C3022     1.0  0.92521  0.40500  0.20898  1.0000
  H   H2414     1.0  0.93252  0.36661  0.08687  1.0000
  C   C3023     1.0  0.70402  0.26603  0.14490  1.0000
  C   C3024     1.0  0.75625  0.29060  0.03217  1.0000
  C   C3025     1.0  0.70725  0.27430  0.10865  1.0000
  H   H2415     1.0  0.97191  0.44723  0.23452  1.0000
  C   C3026     1.0  0.94983  0.40066  0.25800  1.0000
  C   C3027     1.0  0.65980  0.25525  0.21888  1.0000
  H   H2416     1.0  0.72726  0.36471  0.23752  1.0000
  H   H2417     1.0  0.78088  0.27913  0.47148  1.0000
  C   C3028     1.0  0.86140  0.30711  0.25551  1.0000
  H   H2418     1.0  0.73833  0.34295  0.44360  1.0000
  H   H2419     1.0  0.95359  0.47364  0.27632  1.0000
  C   C3029     1.0  0.86232  0.28841  0.24074  1.0000
  C   C3030     1.0  0.74713  0.33696  0.07955  1.0000
  C   C3031     1.0  0.65650  0.37202  0.40751  1.0000
  C   C3032     1.0  0.68197  0.35081  0.23754  1.0000
  H   H2420     1.0  0.95832  0.40638  0.28169  1.0000
  C   C3033     1.0  0.88995  0.37014  0.18071  1.0000
  H   H2421     1.0  0.73556  0.32147  0.12702  1.0000
  Fe  Fe197     1.0  0.96166  0.38064  0.38344  1.0000
  H   H2422     1.0  0.70636  0.25072  0.14915  1.0000
  H   H2423     1.0  0.85092  0.28158  0.49315  1.0000
  H   H2424     1.0  0.89723  0.49530  0.45092  1.0000
  C   C3034     1.0  0.86125  0.35209  0.17803  1.0000
  H   H2425     1.0  0.75492  0.35374  0.03020  1.0000
  H   H2426     1.0  0.95364  0.48246  0.44066  1.0000
  C   C3035     1.0  0.94876  0.46224  0.14489  1.0000
  H   H2427     1.0  0.86124  0.37232  0.47927  1.0000
  C   C3036     1.0  0.86672  0.34425  0.50400  1.0000
  C   C3037     1.0  0.86741  0.27318  0.44355  1.0000
  C   C3038     1.0  0.88607  0.34118  0.04285  1.0000
  H   H2428     1.0  0.92837  0.43031  0.07494  1.0000
  H   H2429     1.0  0.84255  0.32808  0.01371  1.0000
  C   C3039     1.0  0.81839  0.24917  0.28642  1.0000
  H   H2430     1.0  0.64496  0.37852  0.09293  1.0000
  H   H2431     1.0  0.91669  0.34843  0.46124  1.0000
  C   C3040     1.0  0.72862  0.25635  0.41476  1.0000
  H   H2432     1.0  0.72240  0.36605  0.01670  1.0000
  H   H2433     1.0  0.77487  0.25045  0.43132  1.0000
  H   H2434     1.0  0.76958  0.35054  0.47205  1.0000
  C   C3041     1.0  0.72775  0.26671  0.48272  1.0000
  H   H2435     1.0  0.77437  0.25283  0.35862  1.0000
  S   S398      1.0  0.96928  0.36219  0.02537  1.0000
  C   C3042     1.0  0.96967  0.39025  0.12164  1.0000
  C   C3043     1.0  0.76275  0.33753  0.48021  1.0000
  H   H2436     1.0  0.65595  0.25338  0.08024  1.0000
  H   H2437     1.0  0.96104  0.48581  0.06155  1.0000
  H   H2438     1.0  0.97280  0.43484  0.08332  1.0000
  C   C3044     1.0  0.95228  0.49734  0.18374  1.0000
  C   C3045     1.0  0.77136  0.32511  0.50739  1.0000
  H   H2439     1.0  0.67086  0.24855  0.50631  1.0000
  C   C3046     1.0  0.97307  0.45833  0.43637  1.0000
  C   C3047     1.0  0.87988  0.32914  0.50883  1.0000
  H   H2440     1.0  0.91781  0.47453  0.49306  1.0000
  C   C3048     1.0  0.70339  0.37901  0.50282  1.0000
  H   H2441     1.0  0.71266  0.24942  0.24449  1.0000
  H   H2442     1.0  0.90821  0.31921  0.49732  1.0000
  C   C3049     1.0  0.68789  0.36756  0.50775  1.0000
  C   C3050     1.0  0.64160  0.35848  0.46410  1.0000
  C   C3051     1.0  0.71975  0.24923  0.49253  1.0000
  H   H2443     1.0  0.64094  0.25744  0.37488  1.0000
  H   H2444     1.0  0.64070  0.27015  0.49508  1.0000
  Fe  Fe198     1.0  0.67093  0.32701  0.79654  1.0000
  S   S399      1.0  0.69854  0.32074  0.82652  1.0000
  H   H2445     1.0  0.88309  0.40533  0.58369  1.0000
  Fe  Fe199     1.0  0.67129  0.28919  0.75397  1.0000
  S   S400      1.0  0.69861  0.27962  0.78133  1.0000
  S   S401      1.0  0.65433  0.27148  0.71186  1.0000
  Fe  Fe200     1.0  0.68730  0.29165  0.83692  1.0000
  H   H2446     1.0  0.95081  0.49457  0.99414  1.0000
  Fe  Fe201     1.0  0.70811  0.30910  0.76883  1.0000
  S   S402      1.0  0.73918  0.30941  0.75742  1.0000
  S   S403      1.0  0.65880  0.29861  0.81112  1.0000
  S   S404      1.0  0.68144  0.31817  0.73703  1.0000
  Fe  Fe202     1.0  0.80748  0.30994  0.59353  1.0000
  S   S405      1.0  0.83656  0.31222  0.61933  1.0000
  S   S406      1.0  0.78242  0.32974  0.60418  1.0000
  S   S407      1.0  0.93425  0.48304  0.77039  1.0000
  S   S408      1.0  0.84556  0.27028  0.57749  1.0000
  C   C3052     1.0  0.82621  0.34426  0.86894  1.0000
  Fe  Fe203     1.0  0.83357  0.28113  0.63372  1.0000
  S   S409      1.0  0.84395  0.27038  0.69243  1.0000
  Fe  Fe204     1.0  0.84657  0.30144  0.56089  1.0000
  S   S410      1.0  0.87440  0.30772  0.53286  1.0000
  S   S411      1.0  0.80386  0.27967  0.61203  1.0000
  S   S412      1.0  0.81768  0.30218  0.53332  1.0000
  Fe  Fe205     1.0  0.95054  0.37709  0.88427  1.0000
  H   H2447     1.0  0.77222  0.25683  0.71672  1.0000
  Fe  Fe206     1.0  0.91543  0.37515  0.93430  1.0000
  S   S413      1.0  0.92776  0.39324  0.98200  1.0000
  S   S414      1.0  0.88616  0.36343  0.93352  1.0000
  Fe  Fe207     1.0  0.93850  0.41135  0.93340  1.0000
  S   S415      1.0  0.93909  0.44375  0.93702  1.0000
  Fe  Fe208     1.0  0.95396  0.37519  0.97309  1.0000
  H   H2448     1.0  0.85285  0.32950  0.86424  1.0000
  S   S416      1.0  0.92377  0.39481  0.88623  1.0000
  S   S417      1.0  0.94093  0.35581  0.92831  1.0000
  H   H2449     1.0  0.89142  0.25513  0.94820  1.0000
  C   C3053     1.0  0.87977  0.30273  0.84184  1.0000
  C   C3054     1.0  0.87965  0.26531  0.94657  1.0000
  H   H2450     1.0  0.85146  0.27930  0.77738  1.0000
  H   H2451     1.0  0.93353  0.44466  0.79438  1.0000
  C   C3055     1.0  0.93590  0.47297  0.81738  1.0000
  C   C3056     1.0  0.86181  0.34349  0.97811  1.0000
  C   C3057     1.0  0.87952  0.35170  0.97640  1.0000
  H   H2452     1.0  0.79918  0.25858  0.77153  1.0000
  C   C3058     1.0  0.83114  0.26869  0.84335  1.0000
  H   H2453     1.0  0.71433  0.37112  0.62930  1.0000
  H   H2454     1.0  0.85237  0.34441  0.95311  1.0000
  C   C3059     1.0  0.90202  0.32995  0.60480  1.0000
  H   H2455     1.0  0.83700  0.30112  0.94170  1.0000
  C   C3060     1.0  0.93511  0.45309  0.82049  1.0000
  C   C3061     1.0  0.93666  0.44411  0.85690  1.0000
  C   C3062     1.0  0.93822  0.45505  0.89098  1.0000
  H   H2456     1.0  0.68659  0.36665  0.76082  1.0000
  H   H2457     1.0  0.93662  0.42873  0.85845  1.0000
  H   H2458     1.0  0.73743  0.26135  0.96279  1.0000
  S   S418      1.0  0.96583  0.39479  0.92861  1.0000
  H   H2459     1.0  0.88630  0.30518  0.61941  1.0000
  C   C3063     1.0  0.64652  0.32875  0.64119  1.0000
  H   H2460     1.0  0.90485  0.30369  0.75805  1.0000
  C   C3064     1.0  0.74976  0.31294  0.71206  1.0000
  C   C3065     1.0  0.76875  0.30756  0.70847  1.0000
  C   C3066     1.0  0.77851  0.31197  0.67462  1.0000
  C   C3067     1.0  0.76948  0.32221  0.64445  1.0000
  C   C3068     1.0  0.75027  0.32708  0.64736  1.0000
  C   C3069     1.0  0.74030  0.32210  0.68090  1.0000
  H   H2461     1.0  0.77606  0.30032  0.73238  1.0000
  H   H2462     1.0  0.79328  0.30815  0.67263  1.0000
  H   H2463     1.0  0.74321  0.33491  0.62394  1.0000
  H   H2464     1.0  0.72557  0.32601  0.68339  1.0000
  C   C3070     1.0  0.83240  0.25060  0.86114  1.0000
  C   C3071     1.0  0.81892  0.27147  0.81109  1.0000
  H   H2465     1.0  0.66132  0.29732  0.96758  1.0000
  H   H2466     1.0  0.69362  0.33524  0.58549  1.0000
  C   C3072     1.0  0.70802  0.37099  0.65776  1.0000
  Fe  Fe209     1.0  0.81606  0.27182  0.55399  1.0000
  C   C3073     1.0  0.86400  0.29293  0.82822  1.0000
  H   H2467     1.0  0.67126  0.25281  0.83040  1.0000
  H   H2468     1.0  0.72079  0.36093  0.75194  1.0000
  H   H2469     1.0  0.66608  0.37475  0.70436  1.0000
  C   C3074     1.0  0.65069  0.26076  0.58541  1.0000
  H   H2470     1.0  0.87631  0.26245  0.88439  1.0000
  C   C3075     1.0  0.85559  0.28246  0.90821  1.0000
  C   C3076     1.0  0.95771  0.37302  0.65477  1.0000
  C   C3077     1.0  0.96242  0.39243  0.65613  1.0000
  H   H2471     1.0  0.78476  0.32864  0.52040  1.0000
  P   P102      1.0  0.94399  0.41080  0.65487  1.0000
  C   C3078     1.0  0.92903  0.40510  0.61345  1.0000
  C   C3079     1.0  0.93104  0.41125  0.70009  1.0000
  C   C3080     1.0  0.91819  0.42647  0.70764  1.0000
  C   C3081     1.0  0.90911  0.42777  0.74350  1.0000
  C   C3082     1.0  0.91271  0.41389  0.77217  1.0000
  C   C3083     1.0  0.92551  0.39879  0.76505  1.0000
  C   C3084     1.0  0.93454  0.39734  0.72913  1.0000
  C   C3085     1.0  0.93708  0.39773  0.57901  1.0000
  C   C3086     1.0  0.70016  0.39073  0.56917  1.0000
  H   H2472     1.0  0.70475  0.40020  0.59236  1.0000
  C   C3087     1.0  0.89816  0.40317  0.58266  1.0000
  C   C3088     1.0  0.90943  0.40773  0.61503  1.0000
  C   C3089     1.0  0.95377  0.43416  0.64690  1.0000
  C   C3090     1.0  0.95591  0.44720  0.67802  1.0000
  C   C3091     1.0  0.92576  0.39328  0.54674  1.0000
  C   C3092     1.0  0.85761  0.28702  0.97854  1.0000
  C   C3093     1.0  0.67853  0.36760  0.54338  1.0000
  C   C3094     1.0  0.95928  0.43954  0.60937  1.0000
  H   H2473     1.0  0.65756  0.32773  0.87243  1.0000
  H   H2474     1.0  0.65698  0.26987  0.89077  1.0000
  H   H2475     1.0  0.94315  0.36907  0.65285  1.0000
  C   C3095     1.0  0.69287  0.29057  0.51774  1.0000
  H   H2476     1.0  0.91570  0.43775  0.68634  1.0000
  H   H2477     1.0  0.89993  0.44005  0.74976  1.0000
  H   H2478     1.0  0.90619  0.41528  0.80052  1.0000
  H   H2479     1.0  0.92894  0.38857  0.78800  1.0000
  H   H2480     1.0  0.94469  0.38569  0.72507  1.0000
  H   H2481     1.0  0.95217  0.39563  0.57671  1.0000
  C   C3096     1.0  0.87102  0.26946  0.91050  1.0000
  C   C3097     1.0  0.76848  0.31738  0.96054  1.0000
  H   H2482     1.0  0.65565  0.44134  0.68448  1.0000
  H   H2483     1.0  0.90271  0.41326  0.64099  1.0000
  C   C3098     1.0  0.78652  0.31026  0.97085  1.0000
  C   C3099     1.0  0.96639  0.45772  0.60292  1.0000
  C   C3100     1.0  0.90632  0.39600  0.54854  1.0000
  C   C3101     1.0  0.77480  0.26321  0.87804  1.0000
  H   H2484     1.0  0.95812  0.42979  0.58491  1.0000
  C   C3102     1.0  0.69334  0.32278  0.56657  1.0000
  C   C3103     1.0  0.79848  0.34236  0.97028  1.0000
  C   C3104     1.0  0.68507  0.37862  0.57491  1.0000
  C   C3105     1.0  0.80140  0.32267  0.97546  1.0000
  H   H2485     1.0  0.95217  0.44354  0.70752  1.0000
  H   H2486     1.0  0.83816  0.25327  0.99672  1.0000
  C   C3106     1.0  0.75610  0.25697  0.55408  1.0000
  C   C3107     1.0  0.76248  0.30845  0.51879  1.0000
  C   C3108     1.0  0.66198  0.40285  0.62345  1.0000
  C   C3109     1.0  0.90607  0.34886  0.61455  1.0000
  C   C3110     1.0  0.67649  0.31727  0.54907  1.0000
  H   H2487     1.0  0.81010  0.35191  0.97416  1.0000
  C   C3111     1.0  0.74382  0.27268  0.56126  1.0000
  H   H2488     1.0  0.70115  0.34628  0.89808  1.0000
  S   S419      1.0  0.96199  0.36779  0.82550  1.0000
  C   C3112     1.0  0.84888  0.29114  0.94255  1.0000
  H   H2489     1.0  0.76920  0.29933  0.54079  1.0000
  H   H2490     1.0  0.69255  0.25609  0.71752  1.0000
  C   C3113     1.0  0.67578  0.27751  0.00645  1.0000
  C   C3114     1.0  0.68106  0.37287  0.70001  1.0000
  P   P103      1.0  0.67303  0.37914  0.62106  1.0000
  C   C3115     1.0  0.80817  0.25644  0.79701  1.0000
  C   C3116     1.0  0.83012  0.30953  0.86600  1.0000
  C   C3117     1.0  0.89444  0.30655  0.81663  1.0000
  H   H2491     1.0  0.78399  0.32308  0.87523  1.0000
  C   C3118     1.0  0.81065  0.30798  0.87028  1.0000
  H   H2492     1.0  0.73224  0.29113  0.60677  1.0000
  C   C3119     1.0  0.72206  0.32646  0.92223  1.0000
  C   C3120     1.0  0.89756  0.35766  0.64681  1.0000
  C   C3121     1.0  0.88460  0.34770  0.66896  1.0000
  C   C3122     1.0  0.88096  0.32855  0.65957  1.0000
  P   P104      1.0  0.87352  0.35923  0.71026  1.0000
  C   C3123     1.0  0.85161  0.34769  0.71950  1.0000
  C   C3124     1.0  0.88897  0.35747  0.75264  1.0000
  C   C3125     1.0  0.88214  0.36215  0.78989  1.0000
  C   C3126     1.0  0.89396  0.36068  0.82276  1.0000
  C   C3127     1.0  0.91262  0.35440  0.81882  1.0000
  C   C3128     1.0  0.91951  0.34957  0.78197  1.0000
  C   C3129     1.0  0.90778  0.35114  0.74894  1.0000
  C   C3130     1.0  0.83585  0.35125  0.69510  1.0000
  C   C3131     1.0  0.81896  0.34223  0.70202  1.0000
  C   C3132     1.0  0.81766  0.32958  0.73329  1.0000
  C   C3133     1.0  0.83332  0.32568  0.75723  1.0000
  C   C3134     1.0  0.85027  0.33451  0.75022  1.0000
  C   C3135     1.0  0.86813  0.38401  0.69760  1.0000
  C   C3136     1.0  0.86204  0.38872  0.65946  1.0000
  C   C3137     1.0  0.85729  0.40772  0.64967  1.0000
  C   C3138     1.0  0.85874  0.42223  0.67770  1.0000
  C   C3139     1.0  0.86486  0.41772  0.71559  1.0000
  C   C3140     1.0  0.86961  0.39873  0.72553  1.0000
  H   H2493     1.0  0.90095  0.37226  0.65426  1.0000
  H   H2494     1.0  0.87128  0.32042  0.67654  1.0000
  H   H2495     1.0  0.86767  0.36693  0.79360  1.0000
  H   H2496     1.0  0.88869  0.36450  0.85137  1.0000
  H   H2497     1.0  0.92183  0.35343  0.84431  1.0000
  H   H2498     1.0  0.93410  0.34494  0.77909  1.0000
  H   H2499     1.0  0.91353  0.34743  0.72076  1.0000
  H   H2500     1.0  0.83652  0.36072  0.67034  1.0000
  H   H2501     1.0  0.80692  0.34483  0.68276  1.0000
  H   H2502     1.0  0.80459  0.32260  0.73866  1.0000
  H   H2503     1.0  0.83236  0.31561  0.78096  1.0000
  H   H2504     1.0  0.86228  0.33082  0.76863  1.0000
  H   H2505     1.0  0.86080  0.37768  0.63726  1.0000
  H   H2506     1.0  0.85235  0.41119  0.62037  1.0000
  H   H2507     1.0  0.85504  0.43696  0.67013  1.0000
  H   H2508     1.0  0.86588  0.42898  0.73740  1.0000
  H   H2509     1.0  0.87438  0.39574  0.75502  1.0000
  H   H2510     1.0  0.73450  0.36378  0.68627  1.0000
  C   C3141     1.0  0.69263  0.36819  0.73213  1.0000
  H   H2511     1.0  0.88078  0.30744  0.87202  1.0000
  H   H2512     1.0  0.75197  0.34343  0.94836  1.0000
  H   H2513     1.0  0.68720  0.32043  0.00680  1.0000
  H   H2514     1.0  0.70254  0.26530  0.62104  1.0000
  C   C3142     1.0  0.79902  0.32444  0.87251  1.0000
  C   C3143     1.0  0.86328  0.28694  0.78899  1.0000
  H   H2515     1.0  0.80434  0.29408  0.87196  1.0000
  H   H2516     1.0  0.78681  0.25331  0.87894  1.0000
  H   H2517     1.0  0.90828  0.32320  0.57933  1.0000
  C   C3144     1.0  0.97177  0.35859  0.65585  1.0000
  H   H2518     1.0  0.77860  0.27170  0.93750  1.0000
  C   C3145     1.0  0.76373  0.26498  0.84419  1.0000
  C   C3146     1.0  0.93802  0.48407  0.85125  1.0000
  C   C3147     1.0  0.78059  0.34967  0.96032  1.0000
  H   H2519     1.0  0.75872  0.25207  0.52453  1.0000
  H   H2520     1.0  0.67372  0.33979  0.65229  1.0000
  C   C3148     1.0  0.74134  0.27899  0.59996  1.0000
  C   C3149     1.0  0.66324  0.41426  0.65733  1.0000
  H   H2521     1.0  0.71735  0.30234  0.00771  1.0000
  C   C3150     1.0  0.65998  0.34288  0.63953  1.0000
  C   C3151     1.0  0.83786  0.32782  0.86609  1.0000
  C   C3152     1.0  0.80679  0.34258  0.87167  1.0000
  C   C3153     1.0  0.71188  0.36500  0.72717  1.0000
  C   C3154     1.0  0.70986  0.29606  0.53480  1.0000
  H   H2522     1.0  0.68071  0.29362  0.62261  1.0000
  C   C3155     1.0  0.67589  0.28008  0.61137  1.0000
  P   P105      1.0  0.74942  0.30094  0.95437  1.0000
  C   C3156     1.0  0.89162  0.35055  0.00890  1.0000
  C   C3157     1.0  0.75463  0.28684  0.91095  1.0000
  H   H2523     1.0  0.74919  0.27489  0.66040  1.0000
  C   C3158     1.0  0.71002  0.31249  0.55877  1.0000
  H   H2524     1.0  0.87959  0.27094  0.00862  1.0000
  C   C3159     1.0  0.74800  0.27740  0.84373  1.0000
  C   C3160     1.0  0.74343  0.28825  0.87690  1.0000
  H   H2525     1.0  0.94155  0.48910  0.53681  1.0000
  C   C3161     1.0  0.68866  0.37454  0.66252  1.0000
  H   H2526     1.0  0.76713  0.25652  0.81853  1.0000
  C   C3162     1.0  0.74465  0.25339  0.74016  1.0000
  C   C3163     1.0  0.88959  0.31978  0.62744  1.0000
  C   C3164     1.0  0.72684  0.31379  0.95289  1.0000
  C   C3165     1.0  0.71413  0.31184  0.98356  1.0000
  C   C3166     1.0  0.69696  0.32213  0.98326  1.0000
  C   C3167     1.0  0.69226  0.33446  0.95239  1.0000
  C   C3168     1.0  0.70486  0.33673  0.92206  1.0000
  H   H2527     1.0  0.77830  0.36498  0.95648  1.0000
  H   H2528     1.0  0.83231  0.35831  0.86915  1.0000
  H   H2529     1.0  0.66352  0.32533  0.55438  1.0000
  C   C3169     1.0  0.77018  0.27392  0.91131  1.0000
  H   H2530     1.0  0.87715  0.28622  0.73355  1.0000
  C   C3170     1.0  0.66011  0.28813  0.99284  1.0000
  H   H2531     1.0  0.79777  0.35533  0.87365  1.0000
  H   H2532     1.0  0.91561  0.35674  0.59672  1.0000
  S   S420      1.0  0.69701  0.27727  0.89264  1.0000
  H   H2533     1.0  0.73922  0.27859  0.81769  1.0000
  H   H2534     1.0  0.73090  0.29728  0.87571  1.0000
  H   H2535     1.0  0.78913  0.29515  0.97628  1.0000
  C   C3171     1.0  0.64768  0.33910  0.88023  1.0000
  C   C3172     1.0  0.93895  0.47511  0.88811  1.0000
  P   P106      1.0  0.84506  0.28825  0.86120  1.0000
  C   C3173     1.0  0.71958  0.36656  0.69008  1.0000
  H   H2536     1.0  0.90657  0.31400  0.82751  1.0000
  H   H2537     1.0  0.94028  0.48370  0.91432  1.0000
  H   H2538     1.0  0.67881  0.34219  0.95177  1.0000
  C   C3174     1.0  0.75088  0.26965  0.63078  1.0000
  H   H2539     1.0  0.93208  0.38792  0.52008  1.0000
  C   C3175     1.0  0.64276  0.28624  0.01071  1.0000
  H   H2540     1.0  0.95830  0.42511  0.78122  1.0000
  H   H2541     1.0  0.81780  0.28519  0.79649  1.0000
  H   H2542     1.0  0.72312  0.31766  0.57060  1.0000
  C   C3176     1.0  0.87298  0.27414  0.98058  1.0000
  C   C3177     1.0  0.65265  0.41046  0.59024  1.0000
  H   H2543     1.0  0.73163  0.32847  0.89842  1.0000
  H   H2544     1.0  0.64989  0.31524  0.65573  1.0000
  C   C3178     1.0  0.89350  0.30069  0.77759  1.0000
  C   C3179     1.0  0.87794  0.29086  0.76382  1.0000
  C   C3180     1.0  0.74995  0.28456  0.99519  1.0000
  H   H2545     1.0  0.97053  0.46166  0.57377  1.0000
  H   H2546     1.0  0.65183  0.40224  0.56332  1.0000
  H   H2547     1.0  0.67078  0.40920  0.68306  1.0000
  H   H2548     1.0  0.64371  0.47700  0.53737  1.0000
  C   C3181     1.0  0.76564  0.33728  0.95550  1.0000
  C   C3182     1.0  0.67637  0.30133  0.52432  1.0000
  H   H2549     1.0  0.81515  0.31695  0.98369  1.0000
  C   C3183     1.0  0.65734  0.27852  0.59802  1.0000
  H   H2550     1.0  0.66612  0.35919  0.54587  1.0000
  C   C3184     1.0  0.66408  0.25963  0.90999  1.0000
  C   C3185     1.0  0.65561  0.36073  0.62201  1.0000
  H   H2551     1.0  0.73950  0.26754  0.73131  1.0000
  C   C3186     1.0  0.68360  0.25979  0.91465  1.0000
  H   H2552     1.0  0.89760  0.39271  0.52332  1.0000
  C   C3187     1.0  0.74272  0.26615  0.99090  1.0000
  S   S421      1.0  0.65471  0.35468  0.80848  1.0000
  H   H2553     1.0  0.72119  0.39995  0.52937  1.0000
  H   H2554     1.0  0.85243  0.29371  0.00503  1.0000
  H   H2555     1.0  0.64809  0.29111  0.59819  1.0000
  C   C3188     1.0  0.70942  0.39074  0.53343  1.0000
  H   H2556     1.0  0.90529  0.35684  0.00786  1.0000
  C   C3189     1.0  0.65474  0.43263  0.65826  1.0000
  C   C3190     1.0  0.68822  0.26415  0.61047  1.0000
  C   C3191     1.0  0.96264  0.46550  0.67132  1.0000
  H   H2557     1.0  0.85277  0.34309  0.51564  1.0000
  P   P107      1.0  0.73172  0.28444  0.52064  1.0000
  H   H2558     1.0  0.68906  0.27847  0.99167  1.0000
  C   C3192     1.0  0.76286  0.25386  0.62331  1.0000
  C   C3193     1.0  0.66490  0.24962  0.69649  1.0000
  C   C3194     1.0  0.64519  0.43988  0.62529  1.0000
  H   H2559     1.0  0.96809  0.34365  0.65464  1.0000
  C   C3195     1.0  0.96796  0.47076  0.63384  1.0000
  C   C3196     1.0  0.64426  0.42883  0.59128  1.0000
  C   C3197     1.0  0.64414  0.35445  0.85474  1.0000
  C   C3198     1.0  0.97274  0.42729  0.77381  1.0000
  S   S422      1.0  0.80071  0.25053  0.51647  1.0000
  H   H2560     1.0  0.64088  0.32621  0.93511  1.0000
  S   S423      1.0  0.79799  0.25673  0.00664  1.0000
  H   H2561     1.0  0.96342  0.47572  0.69526  1.0000
  H   H2562     1.0  0.97320  0.48497  0.62884  1.0000
  H   H2563     1.0  0.87424  0.24833  0.53155  1.0000
  C   C3199     1.0  0.93246  0.49820  0.51862  1.0000
  Fe  Fe210     1.0  0.67592  0.67471  0.40193  1.0000
  S   S424      1.0  0.70389  0.67985  0.37568  1.0000
  S   S425      1.0  0.66391  0.68915  0.45524  1.0000
  Fe  Fe211     1.0  0.66637  0.64304  0.34478  1.0000
  S   S426      1.0  0.69362  0.64501  0.31338  1.0000
  H   H2564     1.0  0.94874  0.50895  0.28196  1.0000
  Fe  Fe212     1.0  0.70696  0.64785  0.37310  1.0000
  S   S427      1.0  0.73645  0.63607  0.38243  1.0000
  Fe  Fe213     1.0  0.68884  0.67684  0.31811  1.0000
  S   S428      1.0  0.69817  0.69350  0.26634  1.0000
  S   S429      1.0  0.68015  0.64272  0.40444  1.0000
  S   S430      1.0  0.66040  0.67489  0.34446  1.0000
  Fe  Fe214     1.0  0.83453  0.63158  0.10590  1.0000
  S   S431      1.0  0.80597  0.63644  0.13142  1.0000
  S   S432      1.0  0.85268  0.60588  0.12369  1.0000
  C   C3200     1.0  0.64988  0.58477  0.24886  1.0000
  S   S433      1.0  0.79975  0.67148  0.06784  1.0000
  H   H2565     1.0  0.78108  0.71031  0.03646  1.0000
  Fe  Fe215     1.0  0.81228  0.66763  0.12777  1.0000
  S   S434      1.0  0.80047  0.68643  0.17529  1.0000
  Fe  Fe216     1.0  0.79572  0.63985  0.06972  1.0000
  C   C3201     1.0  0.87243  0.58983  0.45647  1.0000
  S   S435      1.0  0.84194  0.66268  0.10745  1.0000
  H   H2566     1.0  0.64630  0.59746  0.45942  1.0000
  Fe  Fe217     1.0  0.94117  0.58814  0.25109  1.0000
  S   S436      1.0  0.93716  0.55700  0.23658  1.0000
  S   S437      1.0  0.92300  0.61442  0.23668  1.0000
  C   C3202     1.0  0.94355  0.56020  0.45905  1.0000
  C   C3203     1.0  0.91098  0.61860  0.01262  1.0000
  H   H2567     1.0  0.88007  0.58188  0.39784  1.0000
  Fe  Fe218     1.0  0.94646  0.55142  0.29877  1.0000
  S   S438      1.0  0.93301  0.53277  0.34367  1.0000
  C   C3204     1.0  0.82704  0.73036  0.48418  1.0000
  S   S439      1.0  0.94798  0.58261  0.31418  1.0000
  C   C3205     1.0  0.65893  0.64453  0.17311  1.0000
  C   C3206     1.0  0.66378  0.67708  0.19574  1.0000
  H   H2568     1.0  0.78908  0.64144  0.47332  1.0000
  C   C3207     1.0  0.66162  0.73934  0.25893  1.0000
  H   H2569     1.0  0.90535  0.61791  0.07444  1.0000
  C   C3208     1.0  0.64605  0.50378  0.45369  1.0000
  C   C3209     1.0  0.80799  0.71422  0.22841  1.0000
  C   C3210     1.0  0.81515  0.70304  0.19775  1.0000
  C   C3211     1.0  0.83337  0.70586  0.18474  1.0000
  C   C3212     1.0  0.84445  0.71978  0.20282  1.0000
  P   P108      1.0  0.72530  0.70069  0.11688  1.0000
  H   H2570     1.0  0.79387  0.71213  0.23839  1.0000
  H   H2571     1.0  0.83889  0.69735  0.16085  1.0000
  C   C3213     1.0  0.96346  0.51515  0.08050  1.0000
  C   C3214     1.0  0.84141  0.71014  0.42003  1.0000
  H   H2572     1.0  0.71233  0.57260  0.13653  1.0000
  H   H2573     1.0  0.84672  0.70227  0.39504  1.0000
  H   H2574     1.0  0.93552  0.60576  0.15973  1.0000
  C   C3215     1.0  0.87137  0.60862  0.15720  1.0000
  C   C3216     1.0  0.88100  0.59218  0.17136  1.0000
  C   C3217     1.0  0.89650  0.59382  0.19682  1.0000
  C   C3218     1.0  0.90264  0.61192  0.20766  1.0000
  C   C3219     1.0  0.89275  0.62838  0.19431  1.0000
  C   C3220     1.0  0.87710  0.62675  0.16916  1.0000
  H   H2575     1.0  0.87650  0.57813  0.16242  1.0000
  H   H2576     1.0  0.90380  0.58109  0.20769  1.0000
  H   H2577     1.0  0.89740  0.64242  0.20289  1.0000
  H   H2578     1.0  0.86971  0.63948  0.15850  1.0000
  C   C3221     1.0  0.68752  0.71593  0.25574  1.0000
  C   C3222     1.0  0.67020  0.72187  0.27120  1.0000
  H   H2579     1.0  0.67017  0.69088  0.19224  1.0000
  H   H2580     1.0  0.64750  0.72302  0.40890  1.0000
  C   C3223     1.0  0.78594  0.72191  0.38330  1.0000
  C   C3224     1.0  0.69649  0.72779  0.22966  1.0000
  H   H2581     1.0  0.66328  0.71287  0.29180  1.0000
  C   C3225     1.0  0.72949  0.69452  0.03632  1.0000
  H   H2582     1.0  0.70995  0.72341  0.21819  1.0000
  C   C3226     1.0  0.67291  0.71149  0.46803  1.0000
  C   C3227     1.0  0.68496  0.72097  0.44323  1.0000
  C   C3228     1.0  0.82876  0.73970  0.44832  1.0000
  H   H2583     1.0  0.68730  0.59362  0.10776  1.0000
  H   H2584     1.0  0.68903  0.71447  0.41583  1.0000
  C   C3229     1.0  0.69098  0.59514  0.13842  1.0000
  H   H2585     1.0  0.73257  0.67020  0.31573  1.0000
  C   C3230     1.0  0.74655  0.63438  0.42957  1.0000
  C   C3231     1.0  0.73841  0.62345  0.45863  1.0000
  C   C3232     1.0  0.90463  0.56844  0.48019  1.0000
  H   H2586     1.0  0.92021  0.57500  0.14547  1.0000
  C   C3233     1.0  0.77487  0.63666  0.46979  1.0000
  C   C3234     1.0  0.76453  0.64146  0.43589  1.0000
  H   H2587     1.0  0.72463  0.61775  0.45375  1.0000
  C   C3235     1.0  0.64202  0.59256  0.13084  1.0000
  H   H2588     1.0  0.64638  0.71613  0.10221  1.0000
  H   H2589     1.0  0.77076  0.65013  0.41386  1.0000
  H   H2590     1.0  0.70760  0.68164  0.49244  1.0000
  C   C3236     1.0  0.72730  0.67691  0.13743  1.0000
  C   C3237     1.0  0.64027  0.73412  0.39192  1.0000
  C   C3238     1.0  0.68583  0.74784  0.48865  1.0000
  C   C3239     1.0  0.89313  0.57763  0.50802  1.0000
  H   H2591     1.0  0.70526  0.68226  0.17930  1.0000
  C   C3240     1.0  0.95292  0.73847  0.37123  1.0000
  H   H2592     1.0  0.66687  0.60493  0.28101  1.0000
  H   H2593     1.0  0.90028  0.53035  0.45202  1.0000
  C   C3241     1.0  0.89768  0.63182  0.49649  1.0000
  H   H2594     1.0  0.79961  0.71757  0.10086  1.0000
  C   C3242     1.0  0.75649  0.70673  0.07095  1.0000
  C   C3243     1.0  0.73771  0.72416  0.48917  1.0000
  H   H2595     1.0  0.96077  0.72644  0.35873  1.0000
  H   H2596     1.0  0.86007  0.59818  0.44743  1.0000
  C   C3244     1.0  0.66865  0.64700  0.02891  1.0000
  C   C3245     1.0  0.74876  0.61868  0.49275  1.0000
  C   C3246     1.0  0.96805  0.54888  0.41527  1.0000
  C   C3247     1.0  0.93719  0.50781  0.33954  1.0000
  C   C3248     1.0  0.73582  0.71775  0.14998  1.0000
  P   P109      1.0  0.66409  0.62506  0.13968  1.0000
  C   C3249     1.0  0.73774  0.70110  0.07121  1.0000
  H   H2597     1.0  0.71526  0.68978  0.03541  1.0000
  H   H2598     1.0  0.70504  0.60034  0.24785  1.0000
  H   H2599     1.0  0.70231  0.63265  0.11450  1.0000
  H   H2600     1.0  0.73434  0.67143  0.24407  1.0000
  H   H2601     1.0  0.85861  0.72179  0.19312  1.0000
  C   C3250     1.0  0.89720  0.69327  0.30204  1.0000
  H   H2602     1.0  0.90837  0.56299  0.41825  1.0000
  H   H2603     1.0  0.93648  0.59053  0.45529  1.0000
  C   C3251     1.0  0.87709  0.58822  0.49613  1.0000
  H   H2604     1.0  0.91133  0.57430  0.02534  1.0000
  H   H2605     1.0  0.65119  0.68483  0.25057  1.0000
  C   C3252     1.0  0.89976  0.56999  0.44032  1.0000
  C   C3253     1.0  0.93840  0.59815  0.13274  1.0000
  H   H2606     1.0  0.70035  0.73324  0.14236  1.0000
  H   H2607     1.0  0.74298  0.69717  0.19541  1.0000
  C   C3254     1.0  0.71674  0.65353  0.18411  1.0000
  C   C3255     1.0  0.76660  0.70622  0.03629  1.0000
  C   C3256     1.0  0.74230  0.64518  0.14084  1.0000
  H   H2608     1.0  0.89821  0.69731  0.27162  1.0000
  H   H2609     1.0  0.71506  0.64534  0.05391  1.0000
  P   P110      1.0  0.92598  0.55559  0.49498  1.0000
  C   C3257     1.0  0.95846  0.58248  0.41583  1.0000
  H   H2610     1.0  0.64628  0.63848  0.06528  1.0000
  H   H2611     1.0  0.87304  0.63159  0.06685  1.0000
  C   C3258     1.0  0.95544  0.53959  0.03216  1.0000
  C   C3259     1.0  0.70113  0.59887  0.21726  1.0000
  C   C3260     1.0  0.68697  0.61085  0.20116  1.0000
  C   C3261     1.0  0.94628  0.57816  0.06330  1.0000
  C   C3262     1.0  0.80102  0.73157  0.11430  1.0000
  H   H2612     1.0  0.72124  0.57585  0.20654  1.0000
  C   C3263     1.0  0.89004  0.70648  0.32923  1.0000
  C   C3264     1.0  0.83913  0.70064  0.45555  1.0000
  S   S440      1.0  0.82365  0.63223  0.04401  1.0000
  C   C3265     1.0  0.68171  0.60904  0.16158  1.0000
  C   C3266     1.0  0.81890  0.72831  0.24590  1.0000
  C   C3267     1.0  0.65303  0.67370  0.22867  1.0000
  H   H2613     1.0  0.95970  0.59679  0.40411  1.0000
  C   C3268     1.0  0.95386  0.50572  0.01531  1.0000
  H   H2614     1.0  0.96492  0.60147  0.05179  1.0000
  H   H2615     1.0  0.64804  0.74377  0.27005  1.0000
  H   H2616     1.0  0.66647  0.73927  0.13706  1.0000
  C   C3269     1.0  0.68385  0.73728  0.01913  1.0000
  C   C3270     1.0  0.70038  0.70624  0.11076  1.0000
  C   C3271     1.0  0.68880  0.69309  0.09184  1.0000
  Fe  Fe219     1.0  0.96816  0.55648  0.22386  1.0000
  H   H2617     1.0  0.81987  0.74124  0.07124  1.0000
  H   H2618     1.0  0.96800  0.62345  0.30427  1.0000
  C   C3272     1.0  0.74082  0.66343  0.12408  1.0000
  C   C3273     1.0  0.75004  0.72552  0.21286  1.0000
  H   H2619     1.0  0.93958  0.66468  0.40754  1.0000
  H   H2620     1.0  0.95394  0.53066  0.45429  1.0000
  C   C3274     1.0  0.90743  0.50169  0.47042  1.0000
  S   S441      1.0  0.76831  0.62735  0.05083  1.0000
  C   C3275     1.0  0.76719  0.62486  0.49786  1.0000
  H   H2621     1.0  0.73164  0.62615  0.18405  1.0000
  H   H2622     1.0  0.75289  0.63492  0.13055  1.0000
  C   C3276     1.0  0.73031  0.64024  0.17089  1.0000
  C   C3277     1.0  0.66135  0.71325  0.10498  1.0000
  H   H2623     1.0  0.70764  0.64991  0.20791  1.0000
  C   C3278     1.0  0.96520  0.65447  0.38108  1.0000
  S   S442      1.0  0.97145  0.58805  0.23381  1.0000
  C   C3279     1.0  0.88355  0.64031  0.47313  1.0000
  C   C3280     1.0  0.88679  0.64400  0.43377  1.0000
  C   C3281     1.0  0.90455  0.63997  0.41800  1.0000
  C   C3282     1.0  0.91837  0.63049  0.44120  1.0000
  P   P111      1.0  0.90901  0.64536  0.36755  1.0000
  C   C3283     1.0  0.89778  0.62687  0.33936  1.0000
  C   C3284     1.0  0.90116  0.66926  0.35311  1.0000
  C   C3285     1.0  0.90277  0.67475  0.31390  1.0000
  H   H2624     1.0  0.76549  0.67028  0.21165  1.0000
  C   C3286     1.0  0.66130  0.63964  0.06327  1.0000
  C   C3287     1.0  0.88865  0.70124  0.36841  1.0000
  C   C3288     1.0  0.89440  0.68281  0.38047  1.0000
  C   C3289     1.0  0.88259  0.63125  0.31398  1.0000
  C   C3290     1.0  0.87442  0.61673  0.29177  1.0000
  C   C3291     1.0  0.88117  0.59778  0.29511  1.0000
  C   C3292     1.0  0.89590  0.59323  0.32116  1.0000
  C   C3293     1.0  0.90405  0.60768  0.34352  1.0000
  C   C3294     1.0  0.93409  0.64480  0.36034  1.0000
  C   C3295     1.0  0.94228  0.63355  0.33073  1.0000
  C   C3296     1.0  0.66684  0.66250  0.16817  1.0000
  C   C3297     1.0  0.71024  0.58508  0.19400  1.0000
  H   H2625     1.0  0.66033  0.49948  0.44663  1.0000
  H   H2626     1.0  0.87554  0.65038  0.41600  1.0000
  H   H2627     1.0  0.93179  0.62610  0.42923  1.0000
  H   H2628     1.0  0.90826  0.66462  0.29243  1.0000
  C   C3298     1.0  0.70518  0.58323  0.15459  1.0000
  H   H2629     1.0  0.69469  0.67994  0.08011  1.0000
  H   H2630     1.0  0.88292  0.71143  0.38946  1.0000
  H   H2631     1.0  0.89351  0.67936  0.41111  1.0000
  H   H2632     1.0  0.87705  0.64579  0.31097  1.0000
  H   H2633     1.0  0.86310  0.62019  0.27128  1.0000
  H   H2634     1.0  0.87516  0.58667  0.27702  1.0000
  H   H2635     1.0  0.90128  0.57854  0.32340  1.0000
  H   H2636     1.0  0.91557  0.60394  0.36333  1.0000
  H   H2637     1.0  0.93371  0.62551  0.31072  1.0000
  C   C3299     1.0  0.71536  0.67186  0.16771  1.0000
  C   C3300     1.0  0.69208  0.72291  0.12702  1.0000
  Fe  Fe220     1.0  0.82873  0.66378  0.04733  1.0000
  C   C3301     1.0  0.94567  0.65564  0.38492  1.0000
  H   H2638     1.0  0.66158  0.57847  0.23304  1.0000
  C   C3302     1.0  0.83721  0.73101  0.23351  1.0000
  C   C3303     1.0  0.74715  0.67043  0.26128  1.0000
  C   C3304     1.0  0.93360  0.73730  0.37668  1.0000
  C   C3305     1.0  0.83617  0.72963  0.41635  1.0000
  C   C3306     1.0  0.88374  0.58068  0.42859  1.0000
  H   H2639     1.0  0.78400  0.73050  0.44363  1.0000
  H   H2640     1.0  0.74343  0.68261  0.43726  1.0000
  C   C3307     1.0  0.64781  0.64136  0.20589  1.0000
  C   C3308     1.0  0.69274  0.63634  0.09073  1.0000
  C   C3309     1.0  0.83213  0.71081  0.48779  1.0000
  H   H2641     1.0  0.87010  0.64420  0.48566  1.0000
  H   H2642     1.0  0.76143  0.66900  0.35616  1.0000
  H   H2643     1.0  0.95362  0.51093  0.19888  1.0000
  C   C3310     1.0  0.95512  0.54524  0.44437  1.0000
  H   H2644     1.0  0.79438  0.66951  0.25123  1.0000
  C   C3311     1.0  0.74516  0.69301  0.46062  1.0000
  H   H2645     1.0  0.92269  0.50166  0.17243  1.0000
  C   C3312     1.0  0.74995  0.74489  0.20268  1.0000
  C   C3313     1.0  0.74309  0.71198  0.18657  1.0000
  C   C3314     1.0  0.91496  0.62659  0.48042  1.0000
  H   H2646     1.0  0.75039  0.66691  0.10104  1.0000
  C   C3315     1.0  0.93360  0.57092  0.09009  1.0000
  C   C3316     1.0  0.92975  0.58085  0.12468  1.0000
  C   C3317     1.0  0.69142  0.73914  0.45357  1.0000
  S   S443      1.0  0.84453  0.67594  0.45864  1.0000
  H   H2647     1.0  0.68033  0.62148  0.21990  1.0000
  C   C3318     1.0  0.67268  0.72635  0.12428  1.0000
  C   C3319     1.0  0.92250  0.53001  0.49600  1.0000
  C   C3320     1.0  0.79159  0.73587  0.14883  1.0000
  C   C3321     1.0  0.96177  0.63246  0.32684  1.0000
  C   C3322     1.0  0.64245  0.51443  0.48760  1.0000
  C   C3323     1.0  0.79602  0.61546  0.38155  1.0000
  C   C3324     1.0  0.81215  0.61336  0.40509  1.0000
  C   C3325     1.0  0.82518  0.62793  0.40652  1.0000
  C   C3326     1.0  0.82192  0.64471  0.38500  1.0000
  C   C3327     1.0  0.80549  0.64715  0.36222  1.0000
  C   C3328     1.0  0.79274  0.63224  0.35991  1.0000
  P   P112      1.0  0.80107  0.66959  0.33725  1.0000
  C   C3329     1.0  0.79647  0.68891  0.37149  1.0000
  C   C3330     1.0  0.82156  0.67338  0.30830  1.0000
  C   C3331     1.0  0.83151  0.69036  0.31163  1.0000
  C   C3332     1.0  0.84728  0.69301  0.28875  1.0000
  C   C3333     1.0  0.85319  0.67882  0.26231  1.0000
  C   C3334     1.0  0.84353  0.66176  0.25922  1.0000
  C   C3335     1.0  0.82790  0.65894  0.28249  1.0000
  C   C3336     1.0  0.79057  0.70702  0.35732  1.0000
  C   C3337     1.0  0.94506  0.49977  0.30586  1.0000
  C   C3338     1.0  0.78717  0.71884  0.42355  1.0000
  C   C3339     1.0  0.79286  0.70083  0.43784  1.0000
  C   C3340     1.0  0.79741  0.68587  0.41202  1.0000
  C   C3341     1.0  0.78018  0.66889  0.30689  1.0000
  C   C3342     1.0  0.76255  0.66921  0.32465  1.0000
  C   C3343     1.0  0.74613  0.66994  0.30189  1.0000
  C   C3344     1.0  0.95961  0.50077  0.05326  1.0000
  C   C3345     1.0  0.76462  0.66993  0.24325  1.0000
  C   C3346     1.0  0.78109  0.66931  0.26594  1.0000
  H   H2648     1.0  0.78572  0.60435  0.38090  1.0000
  H   H2649     1.0  0.81440  0.60057  0.42259  1.0000
  H   H2650     1.0  0.83762  0.62648  0.42493  1.0000
  H   H2651     1.0  0.83195  0.65606  0.38699  1.0000
  H   H2652     1.0  0.77992  0.63368  0.34265  1.0000
  H   H2653     1.0  0.82707  0.70171  0.33138  1.0000
  H   H2654     1.0  0.85451  0.70640  0.29060  1.0000
  H   H2655     1.0  0.86500  0.68122  0.24361  1.0000
  H   H2656     1.0  0.84790  0.65091  0.23819  1.0000
  H   H2657     1.0  0.82042  0.64570  0.27960  1.0000
  H   H2658     1.0  0.78951  0.70961  0.32615  1.0000
  C   C3347     1.0  0.88169  0.62932  0.04130  1.0000
  H   H2659     1.0  0.72966  0.73759  0.48790  1.0000
  H   H2660     1.0  0.79410  0.69850  0.46902  1.0000
  H   H2661     1.0  0.80171  0.67209  0.42404  1.0000
  C   C3348     1.0  0.67331  0.63404  0.09440  1.0000
  H   H2662     1.0  0.92603  0.50197  0.39617  1.0000
  H   H2663     1.0  0.78151  0.73588  0.37223  1.0000
  H   H2664     1.0  0.92645  0.72439  0.36818  1.0000
  C   C3349     1.0  0.90916  0.52162  0.47124  1.0000
  C   C3350     1.0  0.70005  0.64352  0.05626  1.0000
  H   H2665     1.0  0.76394  0.67464  0.49436  1.0000
  C   C3351     1.0  0.94540  0.57887  0.44469  1.0000
  C   C3352     1.0  0.66943  0.69666  0.08852  1.0000
  C   C3353     1.0  0.73565  0.71082  0.45884  1.0000
  H   H2666     1.0  0.67569  0.66518  0.14360  1.0000
  P   P113      1.0  0.95198  0.56465  0.01969  1.0000
  C   C3354     1.0  0.64683  0.61161  0.47253  1.0000
  C   C3355     1.0  0.66734  0.72022  0.50307  1.0000
  H   H2667     1.0  0.92689  0.55742  0.08456  1.0000
  H   H2668     1.0  0.83755  0.73676  0.38859  1.0000
  C   C3356     1.0  0.95094  0.60554  0.10618  1.0000
  H   H2669     1.0  0.66072  0.68665  0.07288  1.0000
  H   H2670     1.0  0.76352  0.71104  0.09766  1.0000
  C   C3357     1.0  0.65289  0.59978  0.27582  1.0000
  H   H2671     1.0  0.78277  0.72528  0.16169  1.0000
  C   C3358     1.0  0.89991  0.62160  0.04556  1.0000
  C   C3359     1.0  0.68818  0.74532  0.21824  1.0000
  C   C3360     1.0  0.64843  0.64824  0.50556  1.0000
  H   H2672     1.0  0.73123  0.74180  0.11094  1.0000
  H   H2673     1.0  0.75522  0.72098  0.24141  1.0000
  C   C3361     1.0  0.73661  0.73712  0.13925  1.0000
  H   H2674     1.0  0.92512  0.61263  0.01597  1.0000
  C   C3362     1.0  0.68801  0.64890  0.02537  1.0000
  C   C3363     1.0  0.95491  0.59560  0.07157  1.0000
  H   H2675     1.0  0.72643  0.71416  0.43417  1.0000
  H   H2676     1.0  0.88535  0.72070  0.31983  1.0000
  H   H2677     1.0  0.96496  0.54527  0.09146  1.0000
  C   C3364     1.0  0.81272  0.74499  0.09795  1.0000
  H   H2678     1.0  0.81316  0.73683  0.26928  1.0000
  H   H2679     1.0  0.92569  0.61959  0.49855  1.0000
  H   H2680     1.0  0.81644  0.70454  0.03051  1.0000
  H   H2681     1.0  0.65389  0.51818  0.50711  1.0000
  H   H2682     1.0  0.68495  0.65631  0.49941  1.0000
  C   C3365     1.0  0.96164  0.53442  0.06990  1.0000
  S   S444      1.0  0.85146  0.74767  0.25742  1.0000
  C   C3366     1.0  0.75674  0.68853  0.49279  1.0000
  H   H2683     1.0  0.95778  0.61885  0.11278  1.0000
  H   H2684     1.0  0.65442  0.58387  0.13787  1.0000
  C   C3367     1.0  0.65589  0.61414  0.50871  1.0000
  H   H2685     1.0  0.70068  0.74649  0.43430  1.0000
  C   C3368     1.0  0.96961  0.56744  0.40096  1.0000
  H   H2686     1.0  0.82138  0.73820  0.50884  1.0000
  C   C3369     1.0  0.64250  0.61268  0.13027  1.0000
  C   C3370     1.0  0.66433  0.73670  0.02277  1.0000
  H   H2687     1.0  0.64182  0.62746  0.21068  1.0000
  H   H2688     1.0  0.96776  0.51152  0.11008  1.0000
  S   S445      1.0  0.64054  0.62580  0.33241  1.0000
  C   C3371     1.0  0.64503  0.65586  0.23373  1.0000
  C   C3372     1.0  0.97325  0.64272  0.35226  1.0000
  H   H2689     1.0  0.65681  0.74819  0.03769  1.0000
  Fe  Fe221     1.0  0.66829  0.67705  0.91019  1.0000
  S   S446      1.0  0.69259  0.69309  0.88850  1.0000
  S   S447      1.0  0.65205  0.68832  0.96212  1.0000
  Fe  Fe222     1.0  0.67248  0.64654  0.84791  1.0000
  S   S448      1.0  0.69728  0.66027  0.82119  1.0000
  S   S449      1.0  0.66402  0.61708  0.82776  1.0000
  Fe  Fe223     1.0  0.70731  0.66463  0.88249  1.0000
  S   S450      1.0  0.73859  0.66389  0.89254  1.0000
  Fe  Fe224     1.0  0.68093  0.68789  0.82872  1.0000
  S   S451      1.0  0.68745  0.71342  0.79224  1.0000
  S   S452      1.0  0.68393  0.64862  0.90943  1.0000
  S   S453      1.0  0.65497  0.67399  0.85041  1.0000
  Fe  Fe225     1.0  0.84838  0.63368  0.57514  1.0000
  S   S454      1.0  0.82088  0.63393  0.60570  1.0000
  S   S455      1.0  0.87569  0.61789  0.59003  1.0000
  H   H2690     1.0  0.95229  0.58504  0.52199  1.0000
  H   H2691     1.0  0.64128  0.57503  0.87007  1.0000
  H   H2692     1.0  0.72965  0.71737  0.87756  1.0000
  Fe  Fe226     1.0  0.82046  0.66560  0.59620  1.0000
  S   S456      1.0  0.80570  0.68507  0.63850  1.0000
  C   C3373     1.0  0.70514  0.71915  0.64770  1.0000
  C   C3374     1.0  0.64946  0.66171  0.61690  1.0000
  S   S457      1.0  0.84934  0.66584  0.57106  1.0000
  C   C3375     1.0  0.68058  0.58523  0.92219  1.0000
  Fe  Fe227     1.0  0.91954  0.55410  0.74859  1.0000
  S   S458      1.0  0.92943  0.52964  0.71067  1.0000
  S   S459      1.0  0.89071  0.56864  0.74309  1.0000
  C   C3376     1.0  0.97349  0.57345  0.00042  1.0000
  H   H2693     1.0  0.86473  0.70492  0.61252  1.0000
  C   C3377     1.0  0.64328  0.62788  0.62328  1.0000
  Fe  Fe228     1.0  0.93820  0.51480  0.76615  1.0000
  C   C3378     1.0  0.71246  0.58818  0.60487  1.0000
  S   S460      1.0  0.94715  0.56891  0.74774  1.0000
  S   S461      1.0  0.92581  0.53794  0.80408  1.0000
  H   H2694     1.0  0.96299  0.59475  0.58773  1.0000
  C   C3379     1.0  0.69773  0.60836  0.55503  1.0000
  C   C3380     1.0  0.65740  0.63263  0.52463  1.0000
  H   H2695     1.0  0.86428  0.72096  0.67735  1.0000
  C   C3381     1.0  0.83048  0.69760  0.97689  1.0000
  C   C3382     1.0  0.82117  0.71633  0.73119  1.0000
  C   C3383     1.0  0.81081  0.70811  0.70097  1.0000
  C   C3384     1.0  0.81877  0.69346  0.67826  1.0000
  C   C3385     1.0  0.83687  0.68625  0.68715  1.0000
  C   C3386     1.0  0.84691  0.69378  0.71917  1.0000
  H   H2696     1.0  0.81522  0.72849  0.74650  1.0000
  H   H2697     1.0  0.79677  0.71361  0.69434  1.0000
  H   H2698     1.0  0.84310  0.67502  0.66926  1.0000
  H   H2699     1.0  0.64849  0.58359  0.79335  1.0000
  C   C3387     1.0  0.83344  0.70323  0.93827  1.0000
  C   C3388     1.0  0.79001  0.72940  0.56671  1.0000
  H   H2700     1.0  0.84261  0.69467  0.91984  1.0000
  H   H2701     1.0  0.75762  0.68342  0.66984  1.0000
  C   C3389     1.0  0.87928  0.60412  0.63260  1.0000
  C   C3390     1.0  0.89763  0.59788  0.64251  1.0000
  C   C3391     1.0  0.90120  0.58700  0.67637  1.0000
  C   C3392     1.0  0.88641  0.58213  0.70032  1.0000
  C   C3393     1.0  0.86801  0.58821  0.69023  1.0000
  C   C3394     1.0  0.86443  0.59924  0.65647  1.0000
  H   H2702     1.0  0.90915  0.60159  0.62406  1.0000
  H   H2703     1.0  0.91541  0.58248  0.68410  1.0000
  H   H2704     1.0  0.85647  0.58416  0.70816  1.0000
  H   H2705     1.0  0.85023  0.60388  0.64885  1.0000
  C   C3395     1.0  0.67414  0.72206  0.75253  1.0000
  C   C3396     1.0  0.65741  0.71374  0.74044  1.0000
  H   H2706     1.0  0.75695  0.65173  0.56274  1.0000
  H   H2707     1.0  0.75256  0.71855  0.64120  1.0000
  C   C3397     1.0  0.73809  0.72114  0.63233  1.0000
  C   C3398     1.0  0.68067  0.73798  0.73282  1.0000
  H   H2708     1.0  0.65236  0.70144  0.75576  1.0000
  C   C3399     1.0  0.92584  0.55556  0.57637  1.0000
  H   H2709     1.0  0.69366  0.65483  0.99892  1.0000
  C   C3400     1.0  0.66424  0.70671  0.98584  1.0000
  C   C3401     1.0  0.68375  0.70702  0.98373  1.0000
  C   C3402     1.0  0.81632  0.59271  0.85727  1.0000
  H   H2710     1.0  0.79996  0.73354  0.00356  1.0000
  H   H2711     1.0  0.69147  0.69541  0.96977  1.0000
  H   H2712     1.0  0.76905  0.60021  0.82069  1.0000
  H   H2713     1.0  0.84999  0.56681  0.80894  1.0000
  C   C3403     1.0  0.74663  0.65350  0.93638  1.0000
  C   C3404     1.0  0.76495  0.65684  0.94945  1.0000
  C   C3405     1.0  0.77160  0.64900  0.98484  1.0000
  H   H2714     1.0  0.67556  0.57254  0.86570  1.0000
  C   C3406     1.0  0.67240  0.59358  0.95523  1.0000
  C   C3407     1.0  0.73508  0.64193  0.95827  1.0000
  H   H2715     1.0  0.77390  0.66581  0.93257  1.0000
  C   C3408     1.0  0.85838  0.73102  0.58073  1.0000
  C   C3409     1.0  0.65343  0.64254  0.60628  1.0000
  H   H2716     1.0  0.72103  0.63912  0.94802  1.0000
  H   H2717     1.0  0.92525  0.56170  0.88582  1.0000
  C   C3410     1.0  0.94534  0.57532  0.61754  1.0000
  H   H2718     1.0  0.82667  0.72404  0.89343  1.0000
  P   P114      1.0  0.75109  0.73639  0.56209  1.0000
  C   C3411     1.0  0.80926  0.72508  0.98537  1.0000
  S   S462      1.0  0.64121  0.74752  0.64925  1.0000
  C   C3412     1.0  0.93425  0.51811  0.51951  1.0000
  C   C3413     1.0  0.82434  0.71980  0.92325  1.0000
  C   C3414     1.0  0.95254  0.58389  0.58441  1.0000
  H   H2719     1.0  0.85827  0.72397  0.55243  1.0000
  H   H2720     1.0  0.72831  0.63015  0.66191  1.0000
  H   H2721     1.0  0.76711  0.67962  0.60221  1.0000
  C   C3415     1.0  0.76292  0.61123  0.80182  1.0000
  C   C3416     1.0  0.93313  0.56681  0.98382  1.0000
  H   H2722     1.0  0.69571  0.58466  0.91941  1.0000
  C   C3417     1.0  0.70932  0.67720  0.59139  1.0000
  H   H2723     1.0  0.89521  0.62912  0.52699  1.0000
  H   H2724     1.0  0.65796  0.71297  0.52225  1.0000
  H   H2725     1.0  0.64916  0.66261  0.51759  1.0000
  S   S463      1.0  0.84230  0.67708  0.99541  1.0000
  H   H2726     1.0  0.95080  0.55926  0.93481  1.0000
  H   H2727     1.0  0.83034  0.70349  0.51519  1.0000
  C   C3418     1.0  0.64967  0.57965  0.89475  1.0000
  C   C3419     1.0  0.77396  0.73691  0.58534  1.0000
  S   S464      1.0  0.80439  0.73933  0.81936  1.0000
  C   C3420     1.0  0.73332  0.72898  0.59557  1.0000
  C   C3421     1.0  0.64811  0.72406  0.87468  1.0000
  H   H2728     1.0  0.89649  0.57688  0.53895  1.0000
  C   C3422     1.0  0.72445  0.72967  0.89411  1.0000
  H   H2729     1.0  0.69303  0.65800  0.62476  1.0000
  C   C3423     1.0  0.86201  0.72028  0.61453  1.0000
  H   H2730     1.0  0.72782  0.72010  0.79410  1.0000
  C   C3424     1.0  0.96353  0.74100  0.89281  1.0000
  H   H2731     1.0  0.71167  0.62740  0.74667  1.0000
  S   S465      1.0  0.96580  0.56131  0.85764  1.0000
  C   C3425     1.0  0.86168  0.72927  0.65108  1.0000
  C   C3426     1.0  0.84060  0.57876  0.81650  1.0000
  H   H2732     1.0  0.71028  0.73684  0.55631  1.0000
  C   C3427     1.0  0.66141  0.73710  0.88734  1.0000
  Fe  Fe229     1.0  0.95772  0.54291  0.71433  1.0000
  H   H2733     1.0  0.78927  0.72379  0.53725  1.0000
  H   H2734     1.0  0.86106  0.74415  0.99000  1.0000
  H   H2735     1.0  0.78569  0.65181  0.99499  1.0000
  H   H2736     1.0  0.64542  0.71163  0.89232  1.0000
  H   H2737     1.0  0.73316  0.62439  0.00972  1.0000
  C   C3428     1.0  0.74971  0.71996  0.52116  1.0000
  H   H2738     1.0  0.72781  0.71169  0.68764  1.0000
  C   C3429     1.0  0.83914  0.70915  0.74076  1.0000
  C   C3430     1.0  0.64177  0.74321  0.81694  1.0000
  H   H2739     1.0  0.70254  0.59269  0.66346  1.0000
  H   H2740     1.0  0.96734  0.72667  0.88272  1.0000
  C   C3431     1.0  0.66922  0.57824  0.89205  1.0000
  C   C3432     1.0  0.69344  0.72239  0.99972  1.0000
  H   H2741     1.0  0.73749  0.62716  0.59262  1.0000
  Fe  Fe230     1.0  0.95416  0.55078  0.80056  1.0000
  C   C3433     1.0  0.65451  0.72141  0.00597  1.0000
  H   H2742     1.0  0.88254  0.67046  0.97006  1.0000
  H   H2743     1.0  0.95982  0.59423  0.96159  1.0000
  H   H2744     1.0  0.67983  0.61845  0.64498  1.0000
  C   C3434     1.0  0.81217  0.73070  0.94682  1.0000
  H   H2745     1.0  0.71676  0.69018  0.76470  1.0000
  H   H2746     1.0  0.94497  0.52418  0.53815  1.0000
  C   C3435     1.0  0.71431  0.73103  0.58464  1.0000
  H   H2747     1.0  0.91533  0.54471  0.57394  1.0000
  H   H2748     1.0  0.86085  0.68818  0.72632  1.0000
  S   S466      1.0  0.96717  0.52619  0.76726  1.0000
  H   H2749     1.0  0.69421  0.71579  0.66800  1.0000
  H   H2750     1.0  0.92630  0.55469  0.63924  1.0000
  C   C3436     1.0  0.71083  0.59393  0.56588  1.0000
  C   C3437     1.0  0.93675  0.56325  0.94420  1.0000
  C   C3438     1.0  0.82854  0.57736  0.84808  1.0000
  H   H2751     1.0  0.76628  0.69904  0.97505  1.0000
  C   C3439     1.0  0.64721  0.72158  0.70852  1.0000
  C   C3440     1.0  0.93191  0.56126  0.61349  1.0000
  C   C3441     1.0  0.80731  0.72879  0.58647  1.0000
  H   H2752     1.0  0.82200  0.73509  0.64013  1.0000
  H   H2753     1.0  0.66886  0.73450  0.91476  1.0000
  H   H2754     1.0  0.65690  0.65096  0.71942  1.0000
  H   H2755     1.0  0.72269  0.57706  0.61320  1.0000
  C   C3442     1.0  0.75905  0.70194  0.52285  1.0000
  S   S467      1.0  0.80583  0.66499  0.53797  1.0000
  C   C3443     1.0  0.87016  0.64188  0.69720  1.0000
  C   C3444     1.0  0.88602  0.63949  0.72133  1.0000
  C   C3445     1.0  0.88396  0.63543  0.76095  1.0000
  C   C3446     1.0  0.86605  0.63351  0.77632  1.0000
  C   C3447     1.0  0.85007  0.63544  0.75207  1.0000
  C   C3448     1.0  0.85225  0.63984  0.71242  1.0000
  P   P115      1.0  0.82707  0.63191  0.77189  1.0000
  C   C3449     1.0  0.81860  0.65297  0.79814  1.0000
  C   C3450     1.0  0.81114  0.62715  0.73177  1.0000
  C   C3451     1.0  0.80868  0.60833  0.71817  1.0000
  C   C3452     1.0  0.79745  0.60497  0.68511  1.0000
  C   C3453     1.0  0.78872  0.62034  0.66528  1.0000
  C   C3454     1.0  0.79127  0.63906  0.67853  1.0000
  C   C3455     1.0  0.80238  0.64250  0.71158  1.0000
  C   C3456     1.0  0.79952  0.65495  0.80759  1.0000
  C   C3457     1.0  0.79290  0.67082  0.82903  1.0000
  C   C3458     1.0  0.80522  0.68508  0.84044  1.0000
  C   C3459     1.0  0.82411  0.68352  0.83019  1.0000
  C   C3460     1.0  0.83081  0.66755  0.80910  1.0000
  C   C3461     1.0  0.82819  0.61101  0.80313  1.0000
  C   C3462     1.0  0.81612  0.60948  0.83494  1.0000
  H   H2756     1.0  0.71989  0.58738  0.54407  1.0000
  H   H2757     1.0  0.87176  0.64476  0.66632  1.0000
  H   H2758     1.0  0.89988  0.64051  0.70912  1.0000
  H   H2759     1.0  0.89628  0.63344  0.77952  1.0000
  H   H2760     1.0  0.86465  0.63007  0.80687  1.0000
  H   H2761     1.0  0.84026  0.64138  0.69283  1.0000
  H   H2762     1.0  0.81579  0.59624  0.73220  1.0000
  H   H2763     1.0  0.79600  0.59050  0.67405  1.0000
  H   H2764     1.0  0.78065  0.61788  0.63866  1.0000
  H   H2765     1.0  0.78559  0.65101  0.66182  1.0000
  H   H2766     1.0  0.80486  0.65721  0.72013  1.0000
  H   H2767     1.0  0.78976  0.64417  0.79851  1.0000
  H   H2768     1.0  0.77818  0.67215  0.83668  1.0000
  H   H2769     1.0  0.80010  0.69744  0.85691  1.0000
  H   H2770     1.0  0.83354  0.69484  0.83825  1.0000
  H   H2771     1.0  0.84542  0.66686  0.80107  1.0000
  H   H2772     1.0  0.80645  0.62107  0.84263  1.0000
  H   H2773     1.0  0.85001  0.59628  0.76999  1.0000
  C   C3463     1.0  0.84054  0.59554  0.79434  1.0000
  C   C3464     1.0  0.82496  0.61250  0.94734  1.0000
  C   C3465     1.0  0.81189  0.62661  0.93488  1.0000
  C   C3466     1.0  0.81799  0.64316  0.91683  1.0000
  C   C3467     1.0  0.83716  0.64577  0.91164  1.0000
  C   C3468     1.0  0.85045  0.63179  0.92462  1.0000
  C   C3469     1.0  0.84415  0.61501  0.94205  1.0000
  P   P116      1.0  0.87539  0.63588  0.92269  1.0000
  C   C3470     1.0  0.87875  0.66072  0.91033  1.0000
  C   C3471     1.0  0.88537  0.63067  0.97074  1.0000
  H   H2774     1.0  0.67097  0.68065  0.69462  1.0000
  C   C3472     1.0  0.70913  0.74070  0.87993  1.0000
  H   H2775     1.0  0.68122  0.59946  0.97811  1.0000
  C   C3473     1.0  0.95505  0.74363  0.92904  1.0000
  C   C3474     1.0  0.69128  0.66222  0.52555  1.0000
  C   C3475     1.0  0.87699  0.66663  0.87120  1.0000
  C   C3476     1.0  0.87797  0.68603  0.86154  1.0000
  C   C3477     1.0  0.88088  0.69967  0.89084  1.0000
  C   C3478     1.0  0.88288  0.69389  0.92979  1.0000
  C   C3479     1.0  0.88178  0.67449  0.93955  1.0000
  C   C3480     1.0  0.88683  0.62117  0.88584  1.0000
  C   C3481     1.0  0.87783  0.60557  0.86848  1.0000
  C   C3482     1.0  0.88708  0.59432  0.84027  1.0000
  C   C3483     1.0  0.90533  0.59839  0.82949  1.0000
  C   C3484     1.0  0.91433  0.61393  0.84643  1.0000
  C   C3485     1.0  0.90504  0.62543  0.87410  1.0000
  H   H2776     1.0  0.82023  0.59993  0.96235  1.0000
  H   H2777     1.0  0.79706  0.62490  0.94003  1.0000
  H   H2778     1.0  0.80790  0.65435  0.90816  1.0000
  H   H2779     1.0  0.84144  0.65911  0.89916  1.0000
  H   H2780     1.0  0.85412  0.60424  0.95306  1.0000
  H   H2781     1.0  0.91250  0.62008  0.95041  1.0000
  C   C3486     1.0  0.94648  0.57823  0.54714  1.0000
  C   C3487     1.0  0.90374  0.62297  0.97533  1.0000
  H   H2782     1.0  0.95027  0.57939  0.64644  1.0000
  C   C3488     1.0  0.65371  0.73773  0.68918  1.0000
  H   H2783     1.0  0.87430  0.65633  0.84828  1.0000
  H   H2784     1.0  0.87603  0.69062  0.83143  1.0000
  H   H2785     1.0  0.88113  0.71475  0.88339  1.0000
  H   H2786     1.0  0.88452  0.70448  0.95270  1.0000
  S   S468      1.0  0.78071  0.61717  0.53862  1.0000
  H   H2787     1.0  0.86371  0.60209  0.87638  1.0000
  H   H2788     1.0  0.88027  0.58229  0.82663  1.0000
  H   H2789     1.0  0.91246  0.58951  0.80783  1.0000
  H   H2790     1.0  0.92852  0.61701  0.83804  1.0000
  H   H2791     1.0  0.91218  0.63752  0.88675  1.0000
  P   P117      1.0  0.67047  0.63678  0.56926  1.0000
  C   C3489     1.0  0.68590  0.61688  0.58305  1.0000
  C   C3490     1.0  0.68659  0.65585  0.56296  1.0000
  C   C3491     1.0  0.69592  0.66324  0.59582  1.0000
  H   H2792     1.0  0.65934  0.65149  0.00506  1.0000
  C   C3492     1.0  0.70110  0.59696  0.63312  1.0000
  C   C3493     1.0  0.70030  0.72583  0.61040  1.0000
  H   H2793     1.0  0.81944  0.72196  0.57311  1.0000
  C   C3494     1.0  0.68799  0.61139  0.62238  1.0000
  S   S469      1.0  0.85187  0.72002  0.77872  1.0000
  C   C3495     1.0  0.73282  0.73428  0.92990  1.0000
  C   C3496     1.0  0.90396  0.56926  0.92780  1.0000
  C   C3497     1.0  0.93336  0.56373  0.54284  1.0000
  H   H2794     1.0  0.76165  0.72742  0.79330  1.0000
  H   H2795     1.0  0.65662  0.67334  0.60324  1.0000
  H   H2796     1.0  0.89271  0.56992  0.90624  1.0000
  H   H2797     1.0  0.69382  0.74416  0.74157  1.0000
  H   H2798     1.0  0.82862  0.56435  0.86530  1.0000
  H   H2799     1.0  0.73323  0.68888  0.97487  1.0000
  H   H2800     1.0  0.80691  0.59160  0.88167  1.0000
  H   H2801     1.0  0.70535  0.68384  0.69607  1.0000
  C   C3498     1.0  0.74192  0.63367  0.99318  1.0000
  Fe  Fe231     1.0  0.80752  0.63320  0.54599  1.0000
  C   C3499     1.0  0.92225  0.56454  0.91633  1.0000
  H   H2802     1.0  0.67736  0.62443  0.74481  1.0000
  C   C3500     1.0  0.72403  0.71678  0.65864  1.0000
  C   C3501     1.0  0.75275  0.65324  0.59294  1.0000
  H   H2803     1.0  0.78442  0.70440  0.76359  1.0000
  H   H2804     1.0  0.69708  0.61311  0.52489  1.0000
  H   H2805     1.0  0.68563  0.72755  0.60184  1.0000
  C   C3502     1.0  0.76322  0.60893  0.76124  1.0000
  C   C3503     1.0  0.75452  0.62770  0.81809  1.0000
  C   C3504     1.0  0.74660  0.64194  0.79383  1.0000
  C   C3505     1.0  0.74705  0.63987  0.75300  1.0000
  C   C3506     1.0  0.75522  0.62314  0.73689  1.0000
  P   P118      1.0  0.73629  0.65846  0.72274  1.0000
  C   C3507     1.0  0.71111  0.65607  0.72211  1.0000
  C   C3508     1.0  0.74409  0.68062  0.74444  1.0000
  C   C3509     1.0  0.76334  0.68448  0.74568  1.0000
  C   C3510     1.0  0.76961  0.70134  0.76311  1.0000
  C   C3511     1.0  0.75679  0.71428  0.78010  1.0000
  C   C3512     1.0  0.73774  0.71022  0.78029  1.0000
  C   C3513     1.0  0.73144  0.69334  0.76299  1.0000
  C   C3514     1.0  0.70306  0.63908  0.73481  1.0000
  C   C3515     1.0  0.68357  0.63726  0.73355  1.0000
  C   C3516     1.0  0.67200  0.65225  0.71926  1.0000
  C   C3517     1.0  0.67993  0.66896  0.70552  1.0000
  C   C3518     1.0  0.69942  0.67080  0.70662  1.0000
  C   C3519     1.0  0.74287  0.65658  0.67195  1.0000
  C   C3520     1.0  0.73682  0.64103  0.64923  1.0000
  C   C3521     1.0  0.74186  0.63932  0.60997  1.0000
  H   H2806     1.0  0.74461  0.72569  0.94099  1.0000
  C   C3522     1.0  0.75830  0.66904  0.61495  1.0000
  C   C3523     1.0  0.75314  0.67091  0.65401  1.0000
  H   H2807     1.0  0.76963  0.59610  0.74863  1.0000
  H   H2808     1.0  0.75405  0.62952  0.84958  1.0000
  H   H2809     1.0  0.74011  0.65459  0.80708  1.0000
  H   H2810     1.0  0.75549  0.62098  0.70570  1.0000
  H   H2811     1.0  0.77351  0.67453  0.73296  1.0000
  C   C3524     1.0  0.64434  0.61428  0.79688  1.0000
  C   C3525     1.0  0.90019  0.57286  0.96714  1.0000
  H   H2812     1.0  0.94730  0.52851  0.97520  1.0000
  H   H2813     1.0  0.74278  0.60962  0.51450  1.0000
  C   C3526     1.0  0.87451  0.63398  0.00418  1.0000
  C   C3527     1.0  0.65286  0.59499  0.95806  1.0000
  C   C3528     1.0  0.75826  0.69979  0.00172  1.0000
  H   H2814     1.0  0.66946  0.74495  0.54056  1.0000
  Fe  Fe232     1.0  0.83383  0.74463  0.80145  1.0000
  C   C3529     1.0  0.80883  0.73627  0.62421  1.0000
  H   H2815     1.0  0.71665  0.68270  0.61670  1.0000
  C   C3530     1.0  0.81844  0.70859  0.00048  1.0000
  H   H2816     1.0  0.64573  0.61305  0.61468  1.0000
  H   H2817     1.0  0.64413  0.50333  0.58563  1.0000
  H   H2818     1.0  0.76794  0.69811  0.54761  1.0000
  H   H2819     1.0  0.88601  0.57656  0.97611  1.0000
  H   H2820     1.0  0.70847  0.72283  0.99678  1.0000
  H   H2821     1.0  0.72369  0.69478  0.55085  1.0000
  S   S470      1.0  0.83516  0.62960  0.51570  1.0000
  C   C3531     1.0  0.71345  0.68389  0.55422  1.0000
  H   H2822     1.0  0.93876  0.49950  0.84910  1.0000
  H   H2823     1.0  0.70269  0.73676  0.85235  1.0000
  C   C3532     1.0  0.76010  0.63739  0.00672  1.0000
  C   C3533     1.0  0.73969  0.69398  0.00171  1.0000
  H   H2824     1.0  0.64676  0.60215  0.98322  1.0000
  C   C3534     1.0  0.95180  0.52505  0.00471  1.0000
  H   H2825     1.0  0.95225  0.73132  0.94703  1.0000
  C   C3535     1.0  0.91468  0.57157  0.99510  1.0000
  C   C3536     1.0  0.79316  0.74467  0.64207  1.0000
  H   H2826     1.0  0.86836  0.59537  0.51781  1.0000
  C   C3537     1.0  0.67377  0.73837  0.51336  1.0000
  H   H2827     1.0  0.66201  0.60176  0.52360  1.0000
  C   C3538     1.0  0.70444  0.67643  0.52133  1.0000
  H   H2828     1.0  0.86039  0.64005  0.00169  1.0000
  C   C3539     1.0  0.97303  0.58845  0.97307  1.0000
  C   C3540     1.0  0.77585  0.74533  0.62247  1.0000
  C   C3541     1.0  0.67037  0.74597  0.70159  1.0000
  C   C3542     1.0  0.64131  0.58792  0.92794  1.0000
  Fe  Fe233     1.0  0.83468  0.66181  0.51339  1.0000
  Fe  Fe234     1.0  0.66419  0.81547  0.10135  1.0000
  C   C3543     1.0  0.90133  0.81265  0.31725  1.0000
  H   H2829     1.0  0.75737  0.86768  0.24925  1.0000
  Fe  Fe235     1.0  0.67317  0.78481  0.16175  1.0000
  S   S471      1.0  0.70069  0.77650  0.13467  1.0000
  C   C3544     1.0  0.64614  0.84984  0.01964  1.0000
  Fe  Fe236     1.0  0.70502  0.80783  0.12762  1.0000
  S   S472      1.0  0.73457  0.81816  0.13694  1.0000
  H   H2830     1.0  0.70299  0.87294  0.30996  1.0000
  H   H2831     1.0  0.89046  0.83235  0.20971  1.0000
  S   S473      1.0  0.67881  0.81624  0.16007  1.0000
  S   S474      1.0  0.65725  0.78425  0.10479  1.0000
  C   C3545     1.0  0.66145  0.87275  0.35708  1.0000
  C   C3546     1.0  0.90279  0.80165  0.35124  1.0000
  Fe  Fe237     1.0  0.92195  0.88112  0.46654  1.0000
  S   S475      1.0  0.92728  0.90595  0.42716  1.0000
  S   S476      1.0  0.89385  0.86792  0.47613  1.0000
  Fe  Fe238     1.0  0.95211  0.88807  0.40734  1.0000
  C   C3547     1.0  0.92705  0.83185  0.34008  1.0000
  C   C3548     1.0  0.95680  0.93962  0.35930  1.0000
  S   S477      1.0  0.94539  0.86250  0.44307  1.0000
  H   H2832     1.0  0.64644  0.82167  0.45043  1.0000
  Fe  Fe239     1.0  0.82382  0.77524  0.38296  1.0000
  S   S478      1.0  0.85073  0.77953  0.35128  1.0000
  S   S479      1.0  0.82111  0.76381  0.44391  1.0000
  Fe  Fe240     1.0  0.79928  0.78926  0.31530  1.0000
  S   S480      1.0  0.82381  0.79506  0.27753  1.0000
  S   S481      1.0  0.76835  0.79074  0.30029  1.0000
  Fe  Fe241     1.0  0.83572  0.76698  0.29951  1.0000
  H   H2833     1.0  0.95458  0.85827  0.22557  1.0000
  Fe  Fe242     1.0  0.83708  0.80735  0.33180  1.0000
  S   S482      1.0  0.85499  0.83328  0.32489  1.0000
  H   H2834     1.0  0.65973  0.84255  0.02175  1.0000
  S   S483      1.0  0.81128  0.80425  0.36792  1.0000
  C   C3549     1.0  0.91483  0.94786  0.05935  1.0000
  H   H2835     1.0  0.89633  0.97284  0.06221  1.0000
  C   C3550     1.0  0.94160  0.94798  0.10403  1.0000
  C   C3551     1.0  0.93121  0.93899  0.07445  1.0000
  C   C3552     1.0  0.93643  0.96149  0.26924  1.0000
  H   H2836     1.0  0.78904  0.75961  0.03869  1.0000
  H   H2837     1.0  0.93577  0.92505  0.06381  1.0000
  C   C3553     1.0  0.88318  0.85820  0.43408  1.0000
  C   C3554     1.0  0.89066  0.86111  0.39717  1.0000
  C   C3555     1.0  0.88177  0.85362  0.36382  1.0000
  C   C3556     1.0  0.86576  0.84258  0.36727  1.0000
  C   C3557     1.0  0.85835  0.83953  0.40421  1.0000
  C   C3558     1.0  0.86695  0.84749  0.43750  1.0000
  H   H2838     1.0  0.90323  0.86925  0.39437  1.0000
  H   H2839     1.0  0.88748  0.85622  0.33537  1.0000
  H   H2840     1.0  0.84586  0.83126  0.40706  1.0000
  H   H2841     1.0  0.86099  0.84535  0.46589  1.0000
  C   C3559     1.0  0.74466  0.80957  0.18107  1.0000
  C   C3560     1.0  0.76331  0.81355  0.19123  1.0000
  C   C3561     1.0  0.77105  0.80739  0.22733  1.0000
  C   C3562     1.0  0.76001  0.79747  0.25348  1.0000
  C   C3563     1.0  0.74151  0.79334  0.24293  1.0000
  C   C3564     1.0  0.73388  0.79930  0.20692  1.0000
  H   H2842     1.0  0.77166  0.82171  0.17164  1.0000
  H   H2843     1.0  0.78531  0.81073  0.23535  1.0000
  H   H2844     1.0  0.73299  0.78541  0.26256  1.0000
  H   H2845     1.0  0.71945  0.79631  0.19971  1.0000
  C   C3565     1.0  0.87186  0.95614  0.18878  1.0000
  C   C3566     1.0  0.94735  0.95369  0.38126  1.0000
  H   H2846     1.0  0.80797  0.78024  0.16696  1.0000
  C   C3567     1.0  0.93147  0.82971  0.50600  1.0000
  H   H2847     1.0  0.79034  0.85319  0.09886  1.0000
  C   C3568     1.0  0.77589  0.76734  0.03353  1.0000
  Fe  Fe243     1.0  0.68534  0.77877  0.07751  1.0000
  H   H2848     1.0  0.93643  0.84360  0.33585  1.0000
  C   C3569     1.0  0.86637  0.81489  0.20598  1.0000
  H   H2849     1.0  0.87626  0.75804  0.19520  1.0000
  C   C3570     1.0  0.95715  0.96909  0.39671  1.0000
  H   H2850     1.0  0.64951  0.88215  0.36380  1.0000
  H   H2851     1.0  0.70586  0.80988  0.45473  1.0000
  H   H2852     1.0  0.85815  0.86251  0.12024  1.0000
  H   H2853     1.0  0.95905  0.78406  0.40355  1.0000
  C   C3571     1.0  0.76107  0.76547  0.05931  1.0000
  S   S484      1.0  0.90718  0.88056  0.04030  1.0000
  H   H2854     1.0  0.88149  0.80795  0.41884  1.0000
  H   H2855     1.0  0.81522  0.79683  0.02076  1.0000
  C   C3572     1.0  0.88070  0.91208  0.10986  1.0000
  C   C3573     1.0  0.92341  0.75288  0.39244  1.0000
  C   C3574     1.0  0.91352  0.82765  0.31155  1.0000
  H   H2856     1.0  0.89052  0.80970  0.29561  1.0000
  H   H2857     1.0  0.91226  0.83616  0.28526  1.0000
  C   C3575     1.0  0.64173  0.89894  0.06493  1.0000
  H   H2858     1.0  0.74575  0.85599  0.31176  1.0000
  H   H2859     1.0  0.74010  0.86089  0.18736  1.0000
  C   C3576     1.0  0.93564  0.96584  0.11890  1.0000
  C   C3577     1.0  0.69210  0.80706  0.44259  1.0000
  C   C3578     1.0  0.88009  0.76297  0.48484  1.0000
  C   C3579     1.0  0.88500  0.93038  0.33605  1.0000
  C   C3580     1.0  0.89209  0.91259  0.34906  1.0000
  C   C3581     1.0  0.90801  0.90432  0.33181  1.0000
  C   C3582     1.0  0.91683  0.91373  0.30151  1.0000
  C   C3583     1.0  0.90969  0.93146  0.28773  1.0000
  C   C3584     1.0  0.89377  0.93981  0.30561  1.0000
  P   P119      1.0  0.92099  0.94385  0.24846  1.0000
  C   C3585     1.0  0.79771  0.80481  0.09633  1.0000
  C   C3586     1.0  0.93356  0.92686  0.21726  1.0000
  S   S485      1.0  0.94856  0.97614  0.15735  1.0000
  H   H2860     1.0  0.87954  0.75046  0.50338  1.0000
  H   H2861     1.0  0.85515  0.88012  0.05801  1.0000
  H   H2862     1.0  0.70207  0.78322  0.40791  1.0000
  H   H2863     1.0  0.64464  0.89927  0.21395  1.0000
  H   H2864     1.0  0.90320  0.98302  0.50135  1.0000
  H   H2865     1.0  0.91467  0.98862  0.11486  1.0000
  H   H2866     1.0  0.67082  0.77565  0.38165  1.0000
  C   C3587     1.0  0.92849  0.82089  0.37420  1.0000
  H   H2867     1.0  0.72501  0.76270  0.33797  1.0000
  C   C3588     1.0  0.90272  0.95604  0.22003  1.0000
  C   C3589     1.0  0.90512  0.97470  0.20648  1.0000
  C   C3590     1.0  0.88600  0.94678  0.21096  1.0000
  H   H2868     1.0  0.87276  0.93688  0.34974  1.0000
  H   H2869     1.0  0.88542  0.90528  0.37282  1.0000
  H   H2870     1.0  0.67554  0.89405  0.32417  1.0000
  H   H2871     1.0  0.87421  0.80187  0.21359  1.0000
  H   H2872     1.0  0.88807  0.95360  0.29602  1.0000
  C   C3591     1.0  0.85234  0.78030  0.12024  1.0000
  H   H2873     1.0  0.95964  0.88917  0.15161  1.0000
  H   H2874     1.0  0.67135  0.78063  0.29068  1.0000
  H   H2875     1.0  0.65267  0.83815  0.21714  1.0000
  H   H2876     1.0  0.91512  0.93085  0.16668  1.0000
  C   C3592     1.0  0.86233  0.88647  0.08281  1.0000
  C   C3593     1.0  0.67638  0.81777  0.45487  1.0000
  H   H2877     1.0  0.67919  0.81448  0.29962  1.0000
  H   H2878     1.0  0.93929  0.82411  0.39560  1.0000
  H   H2879     1.0  0.91596  0.97290  0.31004  1.0000
  C   C3594     1.0  0.66226  0.85398  0.37114  1.0000
  H   H2880     1.0  0.88407  0.93230  0.22088  1.0000
  C   C3595     1.0  0.64660  0.95846  0.01548  1.0000
  H   H2881     1.0  0.91379  0.89070  0.34231  1.0000
  H   H2882     1.0  0.85906  0.94890  0.18141  1.0000
  C   C3596     1.0  0.93201  0.85768  0.18300  1.0000
  C   C3597     1.0  0.93974  0.86113  0.22002  1.0000
  C   C3598     1.0  0.92842  0.86866  0.24966  1.0000
  C   C3599     1.0  0.90928  0.87248  0.24255  1.0000
  C   C3600     1.0  0.90135  0.86887  0.20551  1.0000
  C   C3601     1.0  0.91292  0.86157  0.17570  1.0000
  P   P120      1.0  0.87643  0.87220  0.19608  1.0000
  C   C3602     1.0  0.86522  0.84934  0.19567  1.0000
  C   C3603     1.0  0.86510  0.88581  0.23468  1.0000
  C   C3604     1.0  0.86329  0.87733  0.27145  1.0000
  C   C3605     1.0  0.85424  0.88726  0.30167  1.0000
  C   C3606     1.0  0.84677  0.90574  0.29536  1.0000
  C   C3607     1.0  0.84815  0.91420  0.25861  1.0000
  C   C3608     1.0  0.85706  0.90420  0.22820  1.0000
  H   H2883     1.0  0.89342  0.78988  0.35487  1.0000
  C   C3609     1.0  0.74197  0.78755  0.01995  1.0000
  C   C3610     1.0  0.84702  0.81431  0.19942  1.0000
  C   C3611     1.0  0.83662  0.83124  0.19208  1.0000
  C   C3612     1.0  0.84567  0.84873  0.19040  1.0000
  C   C3613     1.0  0.87390  0.88452  0.14989  1.0000
  C   C3614     1.0  0.88258  0.90211  0.14509  1.0000
  H   H2884     1.0  0.91811  0.98181  0.21206  1.0000
  C   C3615     1.0  0.78802  0.82252  0.09679  1.0000
  H   H2885     1.0  0.94087  0.85219  0.15973  1.0000
  C   C3616     1.0  0.96204  0.75531  0.38118  1.0000
  H   H2886     1.0  0.93455  0.87148  0.27824  1.0000
  H   H2887     1.0  0.90084  0.87814  0.26610  1.0000
  H   H2888     1.0  0.90721  0.85881  0.14674  1.0000
  H   H2889     1.0  0.86874  0.86289  0.27663  1.0000
  H   H2890     1.0  0.85284  0.88043  0.32986  1.0000
  H   H2891     1.0  0.83970  0.91337  0.31883  1.0000
  H   H2892     1.0  0.84207  0.92842  0.25355  1.0000
  H   H2893     1.0  0.85737  0.91082  0.19979  1.0000
  H   H2894     1.0  0.84003  0.80077  0.20099  1.0000
  H   H2895     1.0  0.82151  0.83081  0.18839  1.0000
  H   H2896     1.0  0.83739  0.86181  0.18559  1.0000
  H   H2897     1.0  0.89077  0.90806  0.16873  1.0000
  C   C3617     1.0  0.96577  0.97840  0.26872  1.0000
  H   H2898     1.0  0.90251  0.77547  0.16646  1.0000
  C   C3618     1.0  0.82730  0.82097  0.09901  1.0000
  H   H2899     1.0  0.84466  0.76078  0.16636  1.0000
  S   S486      1.0  0.65953  0.77228  0.21476  1.0000
  C   C3619     1.0  0.89683  0.76756  0.46685  1.0000
  Fe  Fe244     1.0  0.96271  0.87599  0.49066  1.0000
  H   H2900     1.0  0.85441  0.75197  0.05889  1.0000
  H   H2901     1.0  0.88753  0.92564  0.10613  1.0000
  C   C3620     1.0  0.86409  0.87652  0.11819  1.0000
  H   H2902     1.0  0.64580  0.94429  0.45672  1.0000
  C   C3621     1.0  0.94553  0.79355  0.48321  1.0000
  C   C3622     1.0  0.64220  0.93757  0.48401  1.0000
  C   C3623     1.0  0.90902  0.96591  0.07372  1.0000
  H   H2903     1.0  0.64991  0.86123  0.45702  1.0000
  C   C3624     1.0  0.73499  0.85578  0.21496  1.0000
  H   H2904     1.0  0.90933  0.75871  0.47239  1.0000
  H   H2905     1.0  0.73255  0.77416  0.07237  1.0000
  C   C3625     1.0  0.93259  0.76964  0.40358  1.0000
  C   C3626     1.0  0.88532  0.78840  0.12076  1.0000
  C   C3627     1.0  0.92365  0.82046  0.47360  1.0000
  S   S487      1.0  0.81010  0.76006  0.33321  1.0000
  C   C3628     1.0  0.74413  0.77560  0.05252  1.0000
  C   C3629     1.0  0.89087  0.98420  0.18494  1.0000
  C   C3630     1.0  0.89741  0.78356  0.44218  1.0000
  H   H2906     1.0  0.70008  0.82916  0.25023  1.0000
  C   C3631     1.0  0.81746  0.80384  0.09788  1.0000
  C   C3632     1.0  0.64416  0.85070  0.20908  1.0000
  H   H2907     1.0  0.75499  0.75540  0.22345  1.0000
  H   H2908     1.0  0.67800  0.82928  0.47586  1.0000
  C   C3633     1.0  0.86734  0.78998  0.10394  1.0000
  C   C3634     1.0  0.91941  0.97489  0.10344  1.0000
  H   H2909     1.0  0.82520  0.85187  0.10011  1.0000
  Fe  Fe245     1.0  0.94650  0.91605  0.47504  1.0000
  H   H2910     1.0  0.74361  0.76568  0.15768  1.0000
  S   S488      1.0  0.69100  0.80997  0.06849  1.0000
  H   H2911     1.0  0.93103  0.90609  0.12679  1.0000
  S   S489      1.0  0.95314  0.86015  0.07980  1.0000
  C   C3635     1.0  0.67757  0.84176  0.36251  1.0000
  C   C3636     1.0  0.94994  0.91722  0.23100  1.0000
  C   C3637     1.0  0.65851  0.81329  0.44082  1.0000
  C   C3638     1.0  0.93622  0.90916  0.15602  1.0000
  C   C3639     1.0  0.72242  0.84095  0.28573  1.0000
  S   S490      1.0  0.95767  0.88783  0.34274  1.0000
  P   P121      1.0  0.71280  0.83302  0.33120  1.0000
  C   C3640     1.0  0.70665  0.80813  0.32545  1.0000
  C   C3641     1.0  0.72928  0.83485  0.37176  1.0000
  C   C3642     1.0  0.72321  0.84142  0.40847  1.0000
  C   C3643     1.0  0.73581  0.84201  0.44019  1.0000
  C   C3644     1.0  0.75453  0.83600  0.43557  1.0000
  C   C3645     1.0  0.76069  0.82946  0.39918  1.0000
  C   C3646     1.0  0.74815  0.82893  0.36742  1.0000
  S   S491      1.0  0.95119  0.94762  0.48589  1.0000
  P   P122      1.0  0.91939  0.79021  0.42173  1.0000
  H   H2912     1.0  0.89682  0.79590  0.10803  1.0000
  C   C3647     1.0  0.68923  0.80341  0.30890  1.0000
  C   C3648     1.0  0.69241  0.84836  0.34032  1.0000
  C   C3649     1.0  0.69161  0.86735  0.32664  1.0000
  C   C3650     1.0  0.67611  0.87943  0.33476  1.0000
  H   H2913     1.0  0.85195  0.79955  0.45032  1.0000
  C   C3651     1.0  0.71870  0.84520  0.21559  1.0000
  C   C3652     1.0  0.71254  0.83763  0.25068  1.0000
  C   C3653     1.0  0.87551  0.83229  0.20391  1.0000
  C   C3654     1.0  0.80596  0.76681  0.15164  1.0000
  C   C3655     1.0  0.68471  0.78420  0.30360  1.0000
  H   H2914     1.0  0.70875  0.84594  0.41292  1.0000
  H   H2915     1.0  0.73102  0.84707  0.46842  1.0000
  H   H2916     1.0  0.76429  0.83636  0.46014  1.0000
  H   H2917     1.0  0.77516  0.82464  0.39549  1.0000
  H   H2918     1.0  0.75315  0.82361  0.33954  1.0000
  H   H2919     1.0  0.94914  0.92785  0.34693  1.0000
  C   C3656     1.0  0.86454  0.79067  0.45493  1.0000
  C   C3657     1.0  0.87043  0.90435  0.07884  1.0000
  H   H2920     1.0  0.78769  0.75632  0.19558  1.0000
  H   H2921     1.0  0.78967  0.79191  0.09473  1.0000
  C   C3658     1.0  0.91619  0.80586  0.38023  1.0000
  C   C3659     1.0  0.94132  0.98855  0.31301  1.0000
  C   C3660     1.0  0.87428  0.97489  0.17591  1.0000
  C   C3661     1.0  0.92703  0.92299  0.17918  1.0000
  C   C3662     1.0  0.90328  0.80681  0.01323  1.0000
  H   H2922     1.0  0.73316  0.79615  0.34801  1.0000
  C   C3663     1.0  0.84755  0.76038  0.03595  1.0000
  H   H2923     1.0  0.69556  0.75449  0.19901  1.0000
  C   C3664     1.0  0.69751  0.76953  0.31418  1.0000
  C   C3665     1.0  0.95441  0.96392  0.25415  1.0000
  H   H2924     1.0  0.86338  0.98223  0.15875  1.0000
  C   C3666     1.0  0.83449  0.77516  0.04510  1.0000
  C   C3667     1.0  0.92993  0.97403  0.29866  1.0000
  H   H2925     1.0  0.65370  0.89043  0.05491  1.0000
  H   H2926     1.0  0.92924  0.90701  0.28935  1.0000
  H   H2927     1.0  0.71121  0.84228  0.18854  1.0000
  C   C3668     1.0  0.85574  0.76876  0.15333  1.0000
  H   H2928     1.0  0.67794  0.82726  0.37343  1.0000
  P   P123      1.0  0.82973  0.78072  0.09553  1.0000
  C   C3669     1.0  0.67212  0.78746  0.40202  1.0000
  Fe  Fe246     1.0  0.93716  0.87268  0.02834  1.0000
  H   H2929     1.0  0.84245  0.82079  0.09983  1.0000
  S   S492      1.0  0.69676  0.75701  0.03497  1.0000
  C   C3670     1.0  0.87378  0.76705  0.16979  1.0000
  C   C3671     1.0  0.74957  0.78691  0.50157  1.0000
  H   H2930     1.0  0.95422  0.94096  0.11577  1.0000
  H   H2931     1.0  0.66295  0.87061  0.23577  1.0000
  C   C3672     1.0  0.95189  0.77092  0.39694  1.0000
  S   S493      1.0  0.69413  0.77042  0.50155  1.0000
  C   C3673     1.0  0.68996  0.79197  0.41611  1.0000
  C   C3674     1.0  0.71487  0.77405  0.33050  1.0000
  C   C3675     1.0  0.88856  0.77686  0.15358  1.0000
  C   C3676     1.0  0.86401  0.77461  0.47904  1.0000
  H   H2932     1.0  0.90032  0.81439  0.04023  1.0000
  H   H2933     1.0  0.93247  0.95262  0.38640  1.0000
  C   C3677     1.0  0.65621  0.79790  0.41484  1.0000
  C   C3678     1.0  0.73832  0.85238  0.28512  1.0000
  H   H2934     1.0  0.94988  0.97999  0.41384  1.0000
  C   C3679     1.0  0.67049  0.75089  0.23171  1.0000
  C   C3680     1.0  0.74477  0.85943  0.24973  1.0000
  H   H2935     1.0  0.85107  0.77121  0.49317  1.0000
  C   C3681     1.0  0.93077  0.80241  0.46169  1.0000
  H   H2936     1.0  0.69409  0.75466  0.30920  1.0000
  C   C3682     1.0  0.88122  0.79523  0.43675  1.0000
  S   S494      1.0  0.90117  0.93638  0.02345  1.0000
  H   H2937     1.0  0.86941  0.91190  0.05119  1.0000
  H   H2938     1.0  0.64371  0.88769  0.12280  1.0000
  C   C3683     1.0  0.71943  0.79323  0.33618  1.0000
  C   C3684     1.0  0.79792  0.83948  0.09837  1.0000
  H   H2939     1.0  0.86524  0.79843  0.07768  1.0000
  C   C3685     1.0  0.81754  0.83871  0.09923  1.0000
  H   H2940     1.0  0.75481  0.79210  0.47415  1.0000
  H   H2941     1.0  0.77276  0.82304  0.09619  1.0000
  C   C3686     1.0  0.81497  0.76290  0.11615  1.0000
  H   H2942     1.0  0.91204  0.82743  0.45785  1.0000
  H   H2943     1.0  0.72864  0.79512  0.01545  1.0000
  C   C3687     1.0  0.95242  0.89964  0.16998  1.0000
  H   H2944     1.0  0.95942  0.95520  0.23008  1.0000
  H   H2945     1.0  0.95545  0.92023  0.25996  1.0000
  C   C3688     1.0  0.64109  0.75332  0.40358  1.0000
  H   H2946     1.0  0.92277  0.99781  0.45167  1.0000
  H   H2947     1.0  0.95080  0.77932  0.47573  1.0000
  S   S495      1.0  0.97184  0.89976  0.45217  1.0000
  H   H2948     1.0  0.76274  0.75619  0.08450  1.0000
  H   H2949     1.0  0.65102  0.84901  0.38901  1.0000
  C   C3689     1.0  0.64996  0.86900  0.21943  1.0000
  C   C3690     1.0  0.95925  0.90359  0.20749  1.0000
  C   C3691     1.0  0.79429  0.75335  0.16782  1.0000
  H   H2950     1.0  0.64900  0.75683  0.42985  1.0000
  H   H2951     1.0  0.76138  0.75848  0.49346  1.0000
  H   H2952     1.0  0.97270  0.96837  0.07878  1.0000
  C   C3692     1.0  0.82554  0.78557  0.01476  1.0000
  H   H2953     1.0  0.95749  0.98565  0.51122  1.0000
  H   H2954     1.0  0.95282  0.99719  0.06807  1.0000
  C   C3693     1.0  0.74352  0.75066  0.16566  1.0000
  C   C3694     1.0  0.95927  0.99067  0.29819  1.0000
  H   H2955     1.0  0.97178  0.89604  0.21822  1.0000
  H   H2956     1.0  0.77826  0.82262  0.01351  1.0000
  H   H2957     1.0  0.65660  0.78282  0.01356  1.0000
  H   H2958     1.0  0.90835  0.75191  0.39520  1.0000
  H   H2959     1.0  0.64126  0.79082  0.31236  1.0000
  H   H2960     1.0  0.66080  0.95619  0.02665  1.0000
  C   C3695     1.0  0.96676  0.99636  0.05587  1.0000
  H   H2961     1.0  0.80849  0.83905  0.01191  1.0000
  H   H2962     1.0  0.85645  0.75534  0.68283  1.0000
  C   C3696     1.0  0.70167  0.80691  0.77982  1.0000
  S   S496      1.0  0.94722  0.89014  0.88614  1.0000
  Fe  Fe247     1.0  0.65636  0.77221  0.62330  1.0000
  S   S497      1.0  0.68723  0.77135  0.61184  1.0000
  C   C3697     1.0  0.69418  0.77600  0.80637  1.0000
  Fe  Fe248     1.0  0.68658  0.80204  0.63110  1.0000
  S   S498      1.0  0.70945  0.81494  0.66883  1.0000
  C   C3698     1.0  0.92031  0.99241  0.74152  1.0000
  H   H2963     1.0  0.72465  0.80204  0.58072  1.0000
  S   S499      1.0  0.65616  0.80209  0.64786  1.0000
  P   P124      1.0  0.94670  0.80196  0.93602  1.0000
  H   H2964     1.0  0.88330  0.77781  0.66965  1.0000
  C   C3699     1.0  0.64132  0.95024  0.97983  1.0000
  Fe  Fe249     1.0  0.90087  0.86638  0.98285  1.0000
  S   S500      1.0  0.90331  0.89360  0.94899  1.0000
  S   S501      1.0  0.87669  0.84607  0.98174  1.0000
  Fe  Fe250     1.0  0.93382  0.88491  0.94405  1.0000
  C   C3700     1.0  0.97155  0.82826  0.96883  1.0000
  H   H2965     1.0  0.91381  0.82251  0.89959  1.0000
  S   S502      1.0  0.93069  0.85642  0.97321  1.0000
  H   H2966     1.0  0.82425  0.84408  0.94890  1.0000
  H   H2967     1.0  0.89548  0.79183  0.73090  1.0000
  S   S503      1.0  0.84052  0.76217  0.85458  1.0000
  C   C3701     1.0  0.71685  0.81621  0.94833  1.0000
  Fe  Fe251     1.0  0.79660  0.76583  0.78492  1.0000
  S   S504      1.0  0.82594  0.77001  0.76408  1.0000
  S   S505      1.0  0.77290  0.75959  0.74239  1.0000
  C   C3702     1.0  0.79578  0.78968  0.57626  1.0000
  H   H2968     1.0  0.90136  0.79842  0.53541  1.0000
  Fe  Fe252     1.0  0.82980  0.78731  0.81930  1.0000
  S   S506      1.0  0.84569  0.81491  0.81961  1.0000
  H   H2969     1.0  0.81815  0.78742  0.68018  1.0000
  S   S507      1.0  0.79959  0.78544  0.83699  1.0000
  H   H2970     1.0  0.76388  0.75201  0.63682  1.0000
  C   C3703     1.0  0.92736  0.95386  0.54821  1.0000
  C   C3704     1.0  0.82969  0.78128  0.97591  1.0000
  C   C3705     1.0  0.65330  0.86699  0.66203  1.0000
  H   H2971     1.0  0.92267  0.93941  0.54360  1.0000
  H   H2972     1.0  0.85632  0.84066  0.53624  1.0000
  C   C3706     1.0  0.66895  0.78415  0.91782  1.0000
  C   C3707     1.0  0.86936  0.83670  0.93626  1.0000
  C   C3708     1.0  0.87494  0.84472  0.90107  1.0000
  C   C3709     1.0  0.86780  0.83778  0.86533  1.0000
  C   C3710     1.0  0.85531  0.82259  0.86459  1.0000
  C   C3711     1.0  0.85021  0.81420  0.89971  1.0000
  C   C3712     1.0  0.85707  0.82136  0.93543  1.0000
  H   H2973     1.0  0.88437  0.85658  0.90148  1.0000
  H   H2974     1.0  0.87176  0.84433  0.83822  1.0000
  H   H2975     1.0  0.84057  0.80255  0.89930  1.0000
  H   H2976     1.0  0.85262  0.81519  0.96255  1.0000
  C   C3713     1.0  0.72713  0.79958  0.68949  1.0000
  C   C3714     1.0  0.74148  0.80731  0.71277  1.0000
  C   C3715     1.0  0.75553  0.79528  0.72999  1.0000
  C   C3716     1.0  0.75534  0.77547  0.72361  1.0000
  C   C3717     1.0  0.74093  0.76778  0.70069  1.0000
  C   C3718     1.0  0.72690  0.77974  0.68381  1.0000
  H   H2977     1.0  0.74172  0.82265  0.71753  1.0000
  H   H2978     1.0  0.76658  0.80132  0.74773  1.0000
  C   C3719     1.0  0.87973  0.82058  0.53236  1.0000
  H   H2979     1.0  0.71579  0.77349  0.66693  1.0000
  H   H2980     1.0  0.70165  0.78066  0.74649  1.0000
  C   C3720     1.0  0.70192  0.75635  0.90153  1.0000
  H   H2981     1.0  0.82238  0.78896  0.95247  1.0000
  C   C3721     1.0  0.75582  0.76358  0.86832  1.0000
  Fe  Fe253     1.0  0.91229  0.90701  0.00577  1.0000
  P   P125      1.0  0.68197  0.77014  0.88213  1.0000
  C   C3722     1.0  0.87244  0.81223  0.73666  1.0000
  H   H2982     1.0  0.78394  0.79174  0.67209  1.0000
  C   C3723     1.0  0.65819  0.80049  0.90649  1.0000
  C   C3724     1.0  0.66526  0.85843  0.63462  1.0000
  H   H2983     1.0  0.97347  0.75482  0.84129  1.0000
  H   H2984     1.0  0.90878  0.95987  0.59639  1.0000
  S   S508      1.0  0.68049  0.81395  0.57098  1.0000
  C   C3725     1.0  0.96006  0.82447  0.87558  1.0000
  H   H2985     1.0  0.65001  0.96164  0.51957  1.0000
  H   H2986     1.0  0.69200  0.81085  0.87634  1.0000
  C   C3726     1.0  0.69911  0.81531  0.81657  1.0000
  C   C3727     1.0  0.94837  0.89953  0.63045  1.0000
  H   H2987     1.0  0.88168  0.77992  0.94382  1.0000
  Fe  Fe254     1.0  0.81017  0.75907  0.86889  1.0000
  C   C3728     1.0  0.69379  0.80411  0.84811  1.0000
  C   C3729     1.0  0.66771  0.77759  0.95627  1.0000
  C   C3730     1.0  0.93588  0.91531  0.63324  1.0000
  C   C3731     1.0  0.91021  0.78913  0.94124  1.0000
  H   H2988     1.0  0.84535  0.76281  0.93697  1.0000
  C   C3732     1.0  0.94293  0.91786  0.70278  1.0000
  C   C3733     1.0  0.93300  0.92435  0.66934  1.0000
  P   P126      1.0  0.93865  0.92873  0.74990  1.0000
  C   C3734     1.0  0.92004  0.91545  0.77112  1.0000
  C   C3735     1.0  0.90684  0.97990  0.92615  1.0000
  H   H2989     1.0  0.76939  0.79300  0.60598  1.0000
  S   S509      1.0  0.93878  0.89296  0.51689  1.0000
  C   C3736     1.0  0.65719  0.78794  0.98379  1.0000
  S   S510      1.0  0.80075  0.75156  0.92889  1.0000
  C   C3737     1.0  0.82369  0.78770  0.61803  1.0000
  C   C3738     1.0  0.90131  0.91932  0.75959  1.0000
  C   C3739     1.0  0.88675  0.90943  0.77664  1.0000
  C   C3740     1.0  0.89081  0.89555  0.80514  1.0000
  C   C3741     1.0  0.90944  0.89131  0.81596  1.0000
  C   C3742     1.0  0.92402  0.90093  0.79842  1.0000
  C   C3743     1.0  0.93158  0.95367  0.74649  1.0000
  C   C3744     1.0  0.93899  0.96537  0.71764  1.0000
  H   H2990     1.0  0.76040  0.74865  0.86618  1.0000
  C   C3745     1.0  0.72600  0.75003  0.95128  1.0000
  C   C3746     1.0  0.78489  0.82490  0.98573  1.0000
  C   C3747     1.0  0.91939  0.96184  0.77430  1.0000
  Fe  Fe255     1.0  0.65002  0.81137  0.58595  1.0000
  C   C3748     1.0  0.93916  0.99151  0.55963  1.0000
  H   H2991     1.0  0.92302  0.93636  0.67101  1.0000
  H   H2992     1.0  0.94515  0.93050  0.83446  1.0000
  H   H2993     1.0  0.94818  0.96108  0.89180  1.0000
  H   H2994     1.0  0.96751  0.88038  0.66156  1.0000
  C   C3749     1.0  0.73257  0.79251  0.56148  1.0000
  C   C3750     1.0  0.87527  0.78921  0.68380  1.0000
  H   H2995     1.0  0.89795  0.93007  0.73759  1.0000
  H   H2996     1.0  0.87232  0.91258  0.76791  1.0000
  H   H2997     1.0  0.87955  0.88804  0.81878  1.0000
  H   H2998     1.0  0.91266  0.88072  0.83833  1.0000
  H   H2999     1.0  0.93835  0.89713  0.80648  1.0000
  H   H3000     1.0  0.94906  0.95963  0.69697  1.0000
  C   C3751     1.0  0.88766  0.80317  0.54557  1.0000
  H   H3001     1.0  0.88458  0.77885  0.58287  1.0000
  C   C3752     1.0  0.66522  0.86525  0.59631  1.0000
  H   H3002     1.0  0.91425  0.95334  0.79805  1.0000
  H   H3003     1.0  0.73227  0.75335  0.97942  1.0000
  C   C3753     1.0  0.84265  0.76653  0.96708  1.0000
  H   H3004     1.0  0.90404  0.98735  0.79267  1.0000
  C   C3754     1.0  0.89666  0.96310  0.92677  1.0000
  H   H3005     1.0  0.96470  0.78726  0.86347  1.0000
  C   C3755     1.0  0.95361  0.80307  0.51507  1.0000
  H   H3006     1.0  0.88232  0.96348  0.93688  1.0000
  H   H3007     1.0  0.68711  0.82289  0.94970  1.0000
  H   H3008     1.0  0.95307  0.82869  0.55066  1.0000
  H   H3009     1.0  0.71501  0.80288  0.93271  1.0000
  H   H3010     1.0  0.93026  0.93132  0.89531  1.0000
  C   C3756     1.0  0.73487  0.82181  0.95988  1.0000
  C   C3757     1.0  0.73676  0.83893  0.98111  1.0000
  P   P127      1.0  0.75481  0.80559  0.95264  1.0000
  C   C3758     1.0  0.77648  0.81844  0.95089  1.0000
  C   C3759     1.0  0.97139  0.95809  0.61845  1.0000
  H   H3011     1.0  0.89735  0.93262  0.91714  1.0000
  C   C3760     1.0  0.92638  0.82626  0.88441  1.0000
  C   C3761     1.0  0.93393  0.96184  0.90221  1.0000
  H   H3012     1.0  0.83560  0.81744  0.67325  1.0000
  C   C3762     1.0  0.64324  0.94562  0.68439  1.0000
  C   C3763     1.0  0.78564  0.82123  0.91536  1.0000
  C   C3764     1.0  0.80282  0.83039  0.91476  1.0000
  H   H3013     1.0  0.65768  0.80508  0.87632  1.0000
  C   C3765     1.0  0.94110  0.96116  0.52412  1.0000
  H   H3014     1.0  0.93923  0.85553  0.81076  1.0000
  C   C3766     1.0  0.75179  0.79265  0.90713  1.0000
  C   C3767     1.0  0.75739  0.77326  0.90402  1.0000
  C   C3768     1.0  0.85150  0.75600  0.99703  1.0000
  C   C3769     1.0  0.74857  0.77315  0.83543  1.0000
  C   C3770     1.0  0.74318  0.79251  0.83808  1.0000
  C   C3771     1.0  0.74466  0.80224  0.87379  1.0000
  C   C3772     1.0  0.94054  0.84503  0.83396  1.0000
  C   C3773     1.0  0.70101  0.82752  0.95782  1.0000
  H   H3015     1.0  0.65544  0.92361  0.64796  1.0000
  H   H3016     1.0  0.92601  0.84374  0.51482  1.0000
  C   C3774     1.0  0.86023  0.79819  0.58525  1.0000
  C   C3775     1.0  0.92374  0.94501  0.90329  1.0000
  C   C3776     1.0  0.90515  0.94566  0.91568  1.0000
  P   P128      1.0  0.84892  0.78533  0.62344  1.0000
  H   H3017     1.0  0.78544  0.78047  0.98123  1.0000
  H   H3018     1.0  0.77980  0.81615  0.88804  1.0000
  H   H3019     1.0  0.80997  0.83222  0.88729  1.0000
  C   C3777     1.0  0.95863  0.93039  0.82047  1.0000
  H   H3020     1.0  0.67457  0.76423  0.96481  1.0000
  S   S511      1.0  0.64819  0.78134  0.56269  1.0000
  H   H3021     1.0  0.76300  0.76549  0.92900  1.0000
  C   C3778     1.0  0.85436  0.75993  0.62013  1.0000
  C   C3779     1.0  0.86222  0.82694  0.54585  1.0000
  H   H3022     1.0  0.73809  0.79998  0.81218  1.0000
  H   H3023     1.0  0.74061  0.81731  0.87519  1.0000
  H   H3024     1.0  0.72242  0.86341  0.00699  1.0000
  C   C3780     1.0  0.96394  0.80996  0.97147  1.0000
  H   H3025     1.0  0.96337  0.97100  0.95394  1.0000
  C   C3781     1.0  0.92545  0.98429  0.58380  1.0000
  H   H3026     1.0  0.92439  0.99056  0.99464  1.0000
  H   H3027     1.0  0.67442  0.84636  0.64298  1.0000
  C   C3782     1.0  0.71079  0.76121  0.93697  1.0000
  H   H3028     1.0  0.93868  0.99358  0.69220  1.0000
  C   C3783     1.0  0.95976  0.92903  0.77967  1.0000
  S   S512      1.0  0.94295  0.90039  0.99823  1.0000
  C   C3784     1.0  0.70303  0.84458  0.97875  1.0000
  H   H3029     1.0  0.69248  0.76076  0.80208  1.0000
  C   C3785     1.0  0.94415  0.81868  0.89572  1.0000
  C   C3786     1.0  0.91952  0.96545  0.57798  1.0000
  C   C3787     1.0  0.96202  0.77536  0.88238  1.0000
  C   C3788     1.0  0.85255  0.81588  0.57241  1.0000
  C   C3789     1.0  0.92461  0.83928  0.85355  1.0000
  H   H3030     1.0  0.96725  0.83809  0.94592  1.0000
  C   C3790     1.0  0.66506  0.75327  0.86474  1.0000
  H   H3031     1.0  0.67538  0.75850  0.68712  1.0000
  H   H3032     1.0  0.92841  0.92049  0.60738  1.0000
  C   C3791     1.0  0.64134  0.88241  0.65119  1.0000
  C   C3792     1.0  0.69056  0.78450  0.84281  1.0000
  Fe  Fe256     1.0  0.67910  0.78294  0.55328  1.0000
  C   C3793     1.0  0.69946  0.78721  0.77488  1.0000
  H   H3033     1.0  0.65134  0.94159  0.96333  1.0000
  C   C3794     1.0  0.64449  0.94735  0.51940  1.0000
  C   C3795     1.0  0.95784  0.89264  0.66379  1.0000
  C   C3796     1.0  0.95498  0.90161  0.69991  1.0000
  C   C3797     1.0  0.65323  0.88062  0.58529  1.0000
  H   H3034     1.0  0.70578  0.77321  0.95433  1.0000
  C   C3798     1.0  0.80202  0.83416  0.98499  1.0000
  H   H3035     1.0  0.70118  0.83052  0.82049  1.0000
  H   H3036     1.0  0.70553  0.81560  0.75521  1.0000
  H   H3037     1.0  0.91253  0.78257  0.91291  1.0000
  C   C3799     1.0  0.96412  0.99680  0.91891  1.0000
  H   H3038     1.0  0.94330  0.76379  0.96998  1.0000
  H   H3039     1.0  0.91088  0.84513  0.84530  1.0000
  H   H3040     1.0  0.82379  0.78622  0.55470  1.0000
  C   C3800     1.0  0.75683  0.78946  0.99384  1.0000
  H   H3041     1.0  0.65318  0.86150  0.69158  1.0000
  C   C3801     1.0  0.81095  0.83695  0.94951  1.0000
  H   H3042     1.0  0.88723  0.82932  0.51206  1.0000
  C   C3802     1.0  0.92437  0.79964  0.95966  1.0000
  H   H3043     1.0  0.97060  0.89011  0.81884  1.0000
  C   C3803     1.0  0.91367  0.98112  0.77158  1.0000
  C   C3804     1.0  0.92079  0.80847  0.99585  1.0000
  H   H3044     1.0  0.67427  0.85839  0.57496  1.0000
  H   H3045     1.0  0.95849  0.95463  0.60329  1.0000
  H   H3046     1.0  0.83925  0.82133  0.58347  1.0000
  C   C3805     1.0  0.65480  0.75649  0.82989  1.0000
  H   H3047     1.0  0.84790  0.83094  0.73484  1.0000
  C   C3806     1.0  0.81530  0.78776  0.58059  1.0000
  H   H3048     1.0  0.95070  0.89256  0.60250  1.0000
  C   C3807     1.0  0.87802  0.79205  0.57214  1.0000
  C   C3808     1.0  0.74587  0.76078  0.54728  1.0000
  H   H3049     1.0  0.90006  0.99326  0.93522  1.0000
  H   H3050     1.0  0.93125  0.81704  0.01031  1.0000
  C   C3809     1.0  0.79272  0.79098  0.64652  1.0000
  C   C3810     1.0  0.84847  0.81140  0.68579  1.0000
  C   C3811     1.0  0.93325  0.98466  0.71505  1.0000
  H   H3051     1.0  0.96534  0.79649  0.53108  1.0000
  H   H3052     1.0  0.73086  0.76853  0.59993  1.0000
  C   C3812     1.0  0.73598  0.77339  0.57220  1.0000
  C   C3813     1.0  0.96938  0.79814  0.00306  1.0000
  C   C3814     1.0  0.78451  0.79156  0.60921  1.0000
  C   C3815     1.0  0.95357  0.77818  0.91888  1.0000
  C   C3816     1.0  0.97211  0.98086  0.93871  1.0000
  C   C3817     1.0  0.89274  0.78751  0.95873  1.0000
  H   H3053     1.0  0.74738  0.76563  0.80778  1.0000
  H   H3054     1.0  0.65329  0.88532  0.55529  1.0000
  H   H3055     1.0  0.85122  0.75881  0.55725  1.0000
  C   C3818     1.0  0.72090  0.85031  0.99027  1.0000
  C   C3819     1.0  0.81219  0.78865  0.65098  1.0000
  C   C3820     1.0  0.77381  0.77927  0.00098  1.0000
  H   H3056     1.0  0.87766  0.81821  0.76388  1.0000
  H   H3057     1.0  0.65065  0.86101  0.96196  1.0000
  H   H3058     1.0  0.97064  0.84238  0.83031  1.0000
  C   C3821     1.0  0.85559  0.81939  0.72026  1.0000
  C   C3822     1.0  0.88237  0.79727  0.71824  1.0000
  C   C3823     1.0  0.92575  0.97930  0.91511  1.0000
  C   C3824     1.0  0.85792  0.79575  0.66807  1.0000
  H   H3059     1.0  0.69071  0.85322  0.98647  1.0000
  H   H3060     1.0  0.73628  0.81396  0.51753  1.0000
  H   H3061     1.0  0.65688  0.76911  0.81243  1.0000
  C   C3825     1.0  0.95008  0.76210  0.94202  1.0000
  C   C3826     1.0  0.64097  0.86028  0.98591  1.0000
  H   H3062     1.0  0.65649  0.94911  0.69816  1.0000
  C   C3827     1.0  0.95824  0.83760  0.84495  1.0000
  C   C3828     1.0  0.73920  0.79923  0.52600  1.0000
  H   H3063     1.0  0.78937  0.78957  0.54734  1.0000
  C   C3829     1.0  0.64756  0.81082  0.93401  1.0000
  H   H3064     1.0  0.96229  0.89588  0.72550  1.0000
  C   C3830     1.0  0.94663  0.82117  0.52635  1.0000
  H   H3065     1.0  0.79435  0.75034  0.67152  1.0000
  C   C3831     1.0  0.85447  0.75076  0.58353  1.0000
  C   C3832     1.0  0.64129  0.88944  0.61276  1.0000
  C   C3833     1.0  0.64254  0.93112  0.65612  1.0000
  C   C3834     1.0  0.88929  0.79632  0.99473  1.0000
  C   C3835     1.0  0.94693  0.97997  0.52992  1.0000
  H   H3066     1.0  0.75038  0.84342  0.99122  1.0000
  H   H3067     1.0  0.74057  0.75244  0.69612  1.0000
  C   C3836     1.0  0.96699  0.75685  0.86950  1.0000
  C   C3837     1.0  0.85753  0.74893  0.65401  1.0000
  C   C3838     1.0  0.64717  0.80460  0.97274  1.0000
  H   H3068     1.0  0.64150  0.94664  0.58141  1.0000
  H   H3069     1.0  0.97294  0.93177  0.65111  1.0000
  C   C3839     1.0  0.97052  0.88191  0.87952  1.0000
  H   H3070     1.0  0.65292  0.84247  0.51854  1.0000
  H   H3071     1.0  0.96349  0.78418  0.00643  1.0000
  H   H3072     1.0  0.87553  0.79560  0.00753  1.0000
  C   C3840     1.0  0.75311  0.76780  0.51240  1.0000
