data_image0
_chemical_formula_structural       FeSHFeS2FeSFeHS2FeS2FeSCFe2S3C4H3C6HCHC6H4CHC3HC5HC2PC4H4SHC2H3SHCHC6H4C2HC6PC8H2CHSC5H6C3H2C2H2C2HPC2HCHCHCH5CHCH2CH4C2H2CHC5PC2HC2HC4H2CHCH7C2HC5HSHC3H2CHFeS2FeSCFeSFeCS2C3HCH2CHC2HC4HC4HCHSH5C2HPH2C6H3CHCH6C2HC2HFeS2FeS2FeSFeHS2CH2C5H2SH2CHC5PC3H2C3HC4PHCHC3H2CHCHCH3CH3CHCHC3H2C2HC2HCHCH2CHCHC2HC2H3CHC2H2CFeCHFeS2FeHFeS3CH2C5H4C5H4C3H2C2HCH3CH4C2H2CH3CHC3SH2CH2C6PC6HC4H2CH2CH6C8HCH2C2H3CH2C2HCHC3HC3H6CH2C4SCPC2H2C2H2C4HCH2C2H3CHCHCFeS2FeS2FeSFeS3CH2C3H4C6H3CHC3HC6PC11HC2H10C2H2CH2CHCH2CSC5HCPC8HCHC2H3CH6CH2CH2SHC4HCHCFeS2FeSFeSFeHS2C2HC6H5C5H3C8PC9H2C3H6CH4CH6CHSCH2CHC2H3C2H3CHC2HPH2C2HC2SC3H2C2FeSFeS2FeSFeS3H3CH2C6H5C8PCH2C10HC7H3CH5CHCH5CH4C3H4C2HC4HSH2C2HCHC4H3PC3H2C2HSHCHPC3H3C6HC2HC2H2C2HCHCH3PH3C3HC3HCHC3HC2HCH2CPH2C3H2C4HC2H4CHC2HC4H2C2PCHCH2C3H4C6HCHCHCH3C2HCH9CHC2H3C2HCH2CH2SCHC4SHCHCH2C4HCHC2FeS2FeS2FeSFeHS2FeS2FeSCFeHS2PCHC2HC4H2C4H2C7H4C8HSCH5CH2CHCH3FeCH4C2H2SHCHCH3C4H3C4H8CH2CH3CHSH3C6HC2H2C2H4CHC7PC7HC10HCHC3HCHCH4C6HCPHC4H2C2FeSCFeS2FeCFeCS2FeS2FeS2FeSFeS2C2H3C2H2C6H4CHC2HCHCHC7PC7HC7H5C2HCH6CHC5H3C2S2HCHC2H4C2H2C4H2CHC4HC3PH3C2H3CH3C2H4CHCH2C2H3CH
_chemical_formula_sum              "Fe48 S96 H576 C720 P24"
_cell_length_a       29.8965
_cell_length_b       29.8454
_cell_length_c       56.1852
_cell_angle_alpha    90.1811
_cell_angle_beta     90.389
_cell_angle_gamma    121.113

_space_group_name_H-M_alt    "P 1"
_space_group_IT_number       1

loop_
  _space_group_symop_operation_xyz
  'x, y, z'

loop_
  _atom_site_type_symbol
  _atom_site_label
  _atom_site_symmetry_multiplicity
  _atom_site_fract_x
  _atom_site_fract_y
  _atom_site_fract_z
  _atom_site_occupancy
  Fe  Fe1       1.0  0.04969  0.30601  0.14329  1.0000
  S   S1        1.0  0.11931  0.38461  0.15289  1.0000
  H   H1        1.0  0.06592  0.41155  0.29388  1.0000
  Fe  Fe2       1.0  0.11287  0.28527  0.10610  1.0000
  S   S2        1.0  0.18578  0.36265  0.11340  1.0000
  S   S3        1.0  0.10866  0.22488  0.07958  1.0000
  Fe  Fe3       1.0  0.16417  0.34300  0.15186  1.0000
  S   S4        1.0  0.22037  0.35840  0.18239  1.0000
  Fe  Fe4       1.0  0.13348  0.39650  0.11367  1.0000
  H   H2        1.0  0.39531  0.12008  0.10764  1.0000
  S   S5        1.0  0.09377  0.26368  0.14481  1.0000
  S   S6        1.0  0.06146  0.31996  0.10371  1.0000
  Fe  Fe5       1.0  0.33795  0.18743  0.22046  1.0000
  S   S7        1.0  0.25847  0.11486  0.22018  1.0000
  S   S8        1.0  0.36342  0.26204  0.20035  1.0000
  Fe  Fe6       1.0  0.38491  0.14321  0.25549  1.0000
  S   S9        1.0  0.30765  0.06723  0.25857  1.0000
  C   C1        1.0  0.19182  0.42131  0.26304  1.0000
  Fe  Fe7       1.0  0.30179  0.07161  0.21850  1.0000
  Fe  Fe8       1.0  0.27079  0.11708  0.26007  1.0000
  S   S10       1.0  0.20513  0.10795  0.28401  1.0000
  S   S11       1.0  0.38121  0.14494  0.21564  1.0000
  S   S12       1.0  0.34779  0.19203  0.26002  1.0000
  C   C2        1.0  0.24751  0.28880  0.04458  1.0000
  C   C3        1.0  0.05138  0.01569  0.27216  1.0000
  C   C4        1.0  0.21776  0.15319  0.30755  1.0000
  C   C5        1.0  0.17587  0.15412  0.31835  1.0000
  H   H3        1.0  0.32782  0.99971  0.12520  1.0000
  H   H4        1.0  0.13657  0.12842  0.31172  1.0000
  H   H5        1.0  0.38270  0.33803  0.03256  1.0000
  C   C6        1.0  0.10249  0.30120  0.22071  1.0000
  C   C7        1.0  0.16094  0.23402  0.06128  1.0000
  C   C8        1.0  0.20846  0.28173  0.06066  1.0000
  C   C9        1.0  0.05687  0.38206  0.21001  1.0000
  C   C10       1.0  0.02669  0.34482  0.26998  1.0000
  C   C11       1.0  0.15383  0.19299  0.04623  1.0000
  H   H6        1.0  0.21467  0.31360  0.07216  1.0000
  C   C12       1.0  0.27690  0.21956  0.33602  1.0000
  H   H7        1.0  0.37798  0.22012  0.03823  1.0000
  C   C13       1.0  0.25753  0.32779  0.18459  1.0000
  C   C14       1.0  0.31195  0.35903  0.18316  1.0000
  C   C15       1.0  0.34345  0.33785  0.18760  1.0000
  C   C16       1.0  0.32111  0.28538  0.19408  1.0000
  C   C17       1.0  0.26662  0.25356  0.19535  1.0000
  C   C18       1.0  0.23481  0.27473  0.19051  1.0000
  H   H8        1.0  0.32991  0.39998  0.17877  1.0000
  H   H9        1.0  0.38546  0.36263  0.18649  1.0000
  H   H10       1.0  0.24906  0.21292  0.20026  1.0000
  H   H11       1.0  0.19296  0.25032  0.19206  1.0000
  C   C19       1.0  0.44972  0.38373  0.12798  1.0000
  H   H12       1.0  0.43144  0.44669  0.25379  1.0000
  C   C20       1.0  0.31457  0.44543  0.22278  1.0000
  C   C21       1.0  0.30518  0.40745  0.23976  1.0000
  C   C22       1.0  0.34711  0.40727  0.25106  1.0000
  H   H13       1.0  0.44075  0.29556  0.31161  1.0000
  C   C23       1.0  0.10031  0.25584  0.21255  1.0000
  C   C24       1.0  0.30940  0.09289  0.05536  1.0000
  C   C25       1.0  0.38309  0.34223  0.27472  1.0000
  C   C26       1.0  0.39626  0.32636  0.29582  1.0000
  C   C27       1.0  0.43188  0.30924  0.29543  1.0000
  H   H14       1.0  0.03169  0.39843  0.17690  1.0000
  C   C28       1.0  0.44118  0.32283  0.25290  1.0000
  C   C29       1.0  0.40539  0.33971  0.25321  1.0000
  P   P1        1.0  0.38259  0.27942  0.11498  1.0000
  C   C30       1.0  0.21583  0.21669  0.25513  1.0000
  C   C31       1.0  0.26523  0.26162  0.25788  1.0000
  C   C32       1.0  0.00117  0.28723  0.35432  1.0000
  C   C33       1.0  0.01109  0.17162  0.32858  1.0000
  H   H15       1.0  0.28199  0.44486  0.21389  1.0000
  H   H16       1.0  0.26513  0.37819  0.24380  1.0000
  H   H17       1.0  0.11733  0.15584  0.04664  1.0000
  H   H18       1.0  0.37821  0.32584  0.31250  1.0000
  S   S13       1.0  0.46073  0.17100  0.27680  1.0000
  H   H19       1.0  0.43708  0.39329  0.11166  1.0000
  C   C34       1.0  0.34655  0.18419  0.04557  1.0000
  C   C35       1.0  0.31476  0.36467  0.32328  1.0000
  H   H20       1.0  0.21161  0.18321  0.24547  1.0000
  H   H21       1.0  0.29835  0.26237  0.24978  1.0000
  H   H22       1.0  0.17831  0.38436  0.32987  1.0000
  S   S14       1.0  0.15685  0.46969  0.09173  1.0000
  H   H23       1.0  0.99657  0.21440  0.18540  1.0000
  C   C36       1.0  0.31959  0.27372  0.11687  1.0000
  H   H24       1.0  0.28372  0.32613  0.04404  1.0000
  C   C37       1.0  0.31412  0.31417  0.12632  1.0000
  C   C38       1.0  0.26475  0.30838  0.12759  1.0000
  C   C39       1.0  0.22052  0.26208  0.11981  1.0000
  C   C40       1.0  0.22565  0.22183  0.11023  1.0000
  C   C41       1.0  0.27501  0.22771  0.10873  1.0000
  C   C42       1.0  0.08810  0.40304  0.23052  1.0000
  H   H25       1.0  0.23066  0.33517  0.29064  1.0000
  H   H26       1.0  0.34734  0.34987  0.13307  1.0000
  H   H27       1.0  0.26073  0.33961  0.13502  1.0000
  H   H28       1.0  0.18223  0.25745  0.12101  1.0000
  C   C43       1.0  0.13418  0.38577  0.03231  1.0000
  C   C44       1.0  0.01649  0.02474  0.28468  1.0000
  H   H29       1.0  0.07420  0.17517  0.21960  1.0000
  C   C45       1.0  0.13777  0.37439  0.29667  1.0000
  C   C46       1.0  0.17783  0.25718  0.27813  1.0000
  C   C47       1.0  0.45097  0.33346  0.03997  1.0000
  C   C48       1.0  0.40336  0.32877  0.04571  1.0000
  C   C49       1.0  0.38187  0.31142  0.06825  1.0000
  C   C50       1.0  0.40768  0.48284  0.22769  1.0000
  P   P2        1.0  0.21033  0.03053  0.07517  1.0000
  C   C51       1.0  0.26398  0.09055  0.06364  1.0000
  C   C52       1.0  0.18372  0.04697  0.10029  1.0000
  C   C53       1.0  0.21740  0.08688  0.11623  1.0000
  C   C54       1.0  0.19740  0.10059  0.13549  1.0000
  C   C55       1.0  0.14351  0.07486  0.13891  1.0000
  C   C56       1.0  0.10965  0.03520  0.12315  1.0000
  C   C57       1.0  0.12959  0.02112  0.10397  1.0000
  C   C58       1.0  0.98203  0.07933  0.32965  1.0000
  H   H30       1.0  0.11781  0.25633  0.19569  1.0000
  H   H31       1.0  0.09304  0.03948  0.27583  1.0000
  C   C59       1.0  0.36571  0.48285  0.21662  1.0000
  H   H32       1.0  0.40763  0.20350  0.09319  1.0000
  S   S15       1.0  0.06961  0.32053  0.35238  1.0000
  C   C60       1.0  0.30121  0.18181  0.05341  1.0000
  C   C61       1.0  0.07587  0.21022  0.22608  1.0000
  C   C62       1.0  0.38904  0.18881  0.11013  1.0000
  C   C63       1.0  0.44729  0.32007  0.15538  1.0000
  C   C64       1.0  0.34008  0.39441  0.30309  1.0000
  H   H33       1.0  0.25922  0.10766  0.11372  1.0000
  H   H34       1.0  0.22364  0.13130  0.14775  1.0000
  H   H35       1.0  0.12802  0.08555  0.15382  1.0000
  H   H36       1.0  0.43320  0.28020  0.16069  1.0000
  H   H37       1.0  0.19847  0.01121  0.17732  1.0000
  H   H38       1.0  0.31290  0.05855  0.05516  1.0000
  C   C65       1.0  0.37195  0.21640  0.12389  1.0000
  C   C66       1.0  0.27180  0.00898  0.10484  1.0000
  C   C67       1.0  0.14206  0.38844  0.27264  1.0000
  H   H39       1.0  0.34491  0.30819  0.07220  1.0000
  H   H40       1.0  0.27452  0.03885  0.11659  1.0000
  C   C68       1.0  0.07963  0.30102  0.24244  1.0000
  C   C69       1.0  0.33799  0.14666  0.15313  1.0000
  H   H41       1.0  0.15191  0.18770  0.34614  1.0000
  H   H42       1.0  0.12386  0.40319  0.04664  1.0000
  C   C70       1.0  0.18447  0.18776  0.33785  1.0000
  C   C71       1.0  0.19321  0.19991  0.03033  1.0000
  H   H43       1.0  0.03449  0.21082  0.33596  1.0000
  P   P3        1.0  0.33543  0.36232  0.27500  1.0000
  C   C72       1.0  0.01254  0.12997  0.33907  1.0000
  C   C73       1.0  0.38186  0.14118  0.11823  1.0000
  H   H44       1.0  0.98389  0.04749  0.33781  1.0000
  C   C74       1.0  0.16221  0.99834  0.05156  1.0000
  H   H45       1.0  0.22443  0.13380  0.06764  1.0000
  C   C75       1.0  0.25984  0.13515  0.06220  1.0000
  H   H46       1.0  0.27847  0.19622  0.10144  1.0000
  C   C76       1.0  0.27141  0.30454  0.27106  1.0000
  H   H47       1.0  0.31778  0.13012  0.16968  1.0000
  H   H48       1.0  0.10007  0.34704  0.30417  1.0000
  H   H49       1.0  0.32967  0.21368  0.15549  1.0000
  H   H50       1.0  0.26583  0.44542  0.31321  1.0000
  H   H51       1.0  0.30100  0.18637  0.30827  1.0000
  C   C77       1.0  0.22715  0.30232  0.28081  1.0000
  H   H52       1.0  0.03480  0.17471  0.25850  1.0000
  C   C78       1.0  0.26844  0.18682  0.31626  1.0000
  H   H53       1.0  0.39386  0.34901  0.23650  1.0000
  H   H54       1.0  0.12241  0.33634  0.21008  1.0000
  C   C79       1.0  0.17225  0.21423  0.26543  1.0000
  H   H55       1.0  0.13437  0.17874  0.26378  1.0000
  H   H56       1.0  0.13911  0.47450  0.25013  1.0000
  H   H57       1.0  0.29170  0.32230  0.32228  1.0000
  H   H58       1.0  0.03299  0.34009  0.20736  1.0000
  C   C80       1.0  0.37037  0.44924  0.30522  1.0000
  C   C81       1.0  0.08563  0.46939  0.19588  1.0000
  H   H59       1.0  0.31611  0.24417  0.34299  1.0000
  H   H60       1.0  0.99058  0.27391  0.31655  1.0000
  C   C82       1.0  0.23633  0.44226  0.27769  1.0000
  H   H61       1.0  0.03237  0.05597  0.29773  1.0000
  C   C83       1.0  0.34491  0.19403  0.14505  1.0000
  C   C84       1.0  0.05569  0.41514  0.19278  1.0000
  C   C85       1.0  0.05612  0.25542  0.25623  1.0000
  C   C86       1.0  0.23149  0.42947  0.30184  1.0000
  C   C87       1.0  0.35066  0.13976  0.04655  1.0000
  P   P4        1.0  0.08467  0.35999  0.25379  1.0000
  C   C88       1.0  0.18225  0.39518  0.31125  1.0000
  C   C89       1.0  0.35731  0.12071  0.13997  1.0000
  H   H62       1.0  0.03737  0.13705  0.35450  1.0000
  C   C90       1.0  0.40782  0.29823  0.08523  1.0000
  C   C91       1.0  0.31951  0.38937  0.34512  1.0000
  H   H63       1.0  0.19623  0.43029  0.24421  1.0000
  C   C92       1.0  0.23504  0.21998  0.34706  1.0000
  C   C93       1.0  0.98313  0.36809  0.29961  1.0000
  C   C94       1.0  0.45449  0.30763  0.27400  1.0000
  C   C95       1.0  0.02890  0.37810  0.28826  1.0000
  H   H64       1.0  0.19127  0.18630  0.10384  1.0000
  H   H65       1.0  0.03964  0.25503  0.27336  1.0000
  C   C96       1.0  0.05382  0.21003  0.24797  1.0000
  H   H66       1.0  0.14406  0.25532  0.28613  1.0000
  C   C97       1.0  0.11680  0.45755  0.23391  1.0000
  H   H67       1.0  0.12773  0.32346  0.05413  1.0000
  H   H68       1.0  0.06785  0.01492  0.12590  1.0000
  H   H69       1.0  0.29774  0.21598  0.05239  1.0000
  H   H70       1.0  0.39079  0.47333  0.29013  1.0000
  H   H71       1.0  0.47818  0.29686  0.09277  1.0000
  H   H72       1.0  0.45665  0.31917  0.23611  1.0000
  H   H73       1.0  0.35226  0.08425  0.14656  1.0000
  C   C98       1.0  0.39849  0.44550  0.24500  1.0000
  C   C99       1.0  0.42960  0.33123  0.13430  1.0000
  H   H74       1.0  0.38525  0.14114  0.03985  1.0000
  C   C100      1.0  0.45651  0.30470  0.07959  1.0000
  C   C101      1.0  0.13651  0.34096  0.03658  1.0000
  C   C102      1.0  0.16505  0.02494  0.03046  1.0000
  C   C103      1.0  0.34964  0.44380  0.34710  1.0000
  C   C104      1.0  0.23983  0.24830  0.02906  1.0000
  H   H75       1.0  0.98518  0.39279  0.31425  1.0000
  S   S16       1.0  0.28816  0.00406  0.19403  1.0000
  H   H76       1.0  0.27463  0.46804  0.27030  1.0000
  C   C105      1.0  0.37504  0.47376  0.32715  1.0000
  C   C106      1.0  0.11588  0.49058  0.21653  1.0000
  C   C107      1.0  0.47767  0.32165  0.05695  1.0000
  H   H77       1.0  0.19616  0.06485  0.02770  1.0000
  H   H78       1.0  0.46290  0.09080  0.24736  1.0000
  C   C108      1.0  0.23836  0.99255  0.08491  1.0000
  H   H79       1.0  0.15419  0.28447  0.50052  1.0000
  Fe  Fe9       1.0  0.20312  0.37486  0.41969  1.0000
  S   S17       1.0  0.20111  0.30107  0.42979  1.0000
  S   S18       1.0  0.25273  0.44780  0.44261  1.0000
  Fe  Fe10      1.0  0.11529  0.31525  0.38308  1.0000
  S   S19       1.0  0.10661  0.23743  0.39091  1.0000
  C   C109      1.0  0.07680  0.33207  0.51643  1.0000
  Fe  Fe11      1.0  0.11360  0.26321  0.42923  1.0000
  S   S20       1.0  0.06668  0.20948  0.45957  1.0000
  Fe  Fe12      1.0  0.19427  0.28258  0.39050  1.0000
  C   C110      1.0  0.44046  0.42854  0.43527  1.0000
  S   S21       1.0  0.11553  0.33768  0.42124  1.0000
  S   S22       1.0  0.20296  0.35961  0.38049  1.0000
  C   C111      1.0  0.99539  0.41181  0.57254  1.0000
  C   C112      1.0  0.02670  0.37872  0.45360  1.0000
  C   C113      1.0  0.01641  0.39110  0.47624  1.0000
  H   H80       1.0  0.09182  0.10355  0.44141  1.0000
  C   C114      1.0  0.00947  0.07556  0.43958  1.0000
  H   H81       1.0  0.43600  0.32774  0.40425  1.0000
  H   H82       1.0  0.32694  0.45062  0.50007  1.0000
  C   C115      1.0  0.45954  0.46556  0.55884  1.0000
  H   H83       1.0  0.08477  0.26847  0.52910  1.0000
  C   C116      1.0  0.05632  0.08997  0.45146  1.0000
  C   C117      1.0  0.13837  0.30996  0.50084  1.0000
  H   H84       1.0  0.01312  0.07002  0.50848  1.0000
  C   C118      1.0  0.11875  0.47968  0.49159  1.0000
  C   C119      1.0  0.01874  0.21647  0.47456  1.0000
  C   C120      1.0  0.03845  0.41445  0.52786  1.0000
  C   C121      1.0  0.15584  0.35071  0.48457  1.0000
  H   H85       1.0  0.35377  0.31917  0.38934  1.0000
  C   C122      1.0  0.09387  0.37310  0.50000  1.0000
  C   C123      1.0  0.42446  0.35466  0.41050  1.0000
  C   C124      1.0  0.05770  0.08833  0.47628  1.0000
  C   C125      1.0  0.13379  0.38211  0.48410  1.0000
  H   H86       1.0  0.99774  0.35329  0.41793  1.0000
  C   C126      1.0  0.09915  0.30089  0.51686  1.0000
  H   H87       1.0  0.17293  0.47960  0.51733  1.0000
  S   S23       1.0  0.24810  0.25967  0.37287  1.0000
  H   H88       1.0  0.06362  0.38174  0.44995  1.0000
  H   H89       1.0  0.38388  0.45289  0.43083  1.0000
  H   H90       1.0  0.09429  0.10059  0.48544  1.0000
  H   H91       1.0  0.45068  0.37848  0.47679  1.0000
  H   H92       1.0  0.18598  0.35746  0.47201  1.0000
  C   C127      1.0  0.47704  0.48733  0.58152  1.0000
  C   C128      1.0  0.45576  0.39408  0.42696  1.0000
  H   H93       1.0  0.01286  0.16650  0.50348  1.0000
  P   P5        1.0  0.06629  0.41481  0.49924  1.0000
  H   H94       1.0  0.46471  0.48044  0.52122  1.0000
  H   H95       1.0  0.99919  0.29437  0.39227  1.0000
  C   C129      1.0  0.36676  0.47903  0.49517  1.0000
  C   C130      1.0  0.37818  0.34995  0.40197  1.0000
  C   C131      1.0  0.36358  0.38518  0.40957  1.0000
  C   C132      1.0  0.39513  0.42504  0.42576  1.0000
  C   C133      1.0  0.03981  0.45766  0.56489  1.0000
  C   C134      1.0  0.98934  0.36246  0.43536  1.0000
  H   H96       1.0  0.43193  0.42398  0.55678  1.0000
  H   H97       1.0  0.46278  0.46219  0.59696  1.0000
  H   H98       1.0  0.01483  0.26707  0.44856  1.0000
  C   C135      1.0  0.39411  0.46423  0.48019  1.0000
  H   H99       1.0  0.00913  0.07686  0.42033  1.0000
  C   C136      1.0  0.06142  0.45902  0.54266  1.0000
  H   H100      1.0  0.32771  0.38154  0.40291  1.0000
  H   H101      1.0  0.14798  0.41318  0.47110  1.0000
  H   H102      1.0  0.04586  0.32301  0.52875  1.0000
  H   H103      1.0  0.35353  0.46271  0.36413  1.0000
  H   H104      1.0  0.37550  0.42377  0.47445  1.0000
  H   H105      1.0  0.29997  0.36608  0.36057  1.0000
  C   C137      1.0  0.01203  0.07146  0.48924  1.0000
  C   C138      1.0  0.99842  0.19013  0.49615  1.0000
  H   H106      1.0  0.31539  0.47924  0.39929  1.0000
  C   C139      1.0  0.99997  0.24707  0.46525  1.0000
  C   C140      1.0  0.99299  0.36910  0.53549  1.0000
  H   H107      1.0  0.98885  0.19792  0.38828  1.0000
  Fe  Fe13      1.0  0.26082  0.12627  0.94245  1.0000
  S   S24       1.0  0.33767  0.13104  0.93968  1.0000
  S   S25       1.0  0.19020  0.06632  0.92080  1.0000
  Fe  Fe14      1.0  0.29918  0.20563  0.98357  1.0000
  S   S26       1.0  0.37903  0.21470  0.98382  1.0000
  S   S27       1.0  0.28993  0.26062  0.00862  1.0000
  Fe  Fe15      1.0  0.37510  0.21834  0.94407  1.0000
  S   S28       1.0  0.44174  0.27037  0.91880  1.0000
  Fe  Fe16      1.0  0.33501  0.12688  0.97949  1.0000
  H   H108      1.0  0.13025  0.02070  0.99619  1.0000
  S   S29       1.0  0.29752  0.21401  0.94367  1.0000
  S   S30       1.0  0.25596  0.11763  0.98246  1.0000
  C   C141      1.0  0.38183  0.17449  0.87286  1.0000
  H   H109      1.0  0.07700  0.27147  0.89929  1.0000
  H   H110      1.0  0.26124  0.37412  0.01093  1.0000
  C   C142      1.0  0.35671  0.20139  0.86662  1.0000
  C   C143      1.0  0.14443  0.34951  0.89830  1.0000
  C   C144      1.0  0.34857  0.20776  0.84267  1.0000
  C   C145      1.0  0.19928  0.04143  0.89366  1.0000
  C   C146      1.0  0.24415  0.07125  0.88021  1.0000
  H   H111      1.0  0.32847  0.22803  0.83791  1.0000
  H   H112      1.0  0.34358  0.21719  0.88048  1.0000
  S   S31       1.0  0.36257  0.07720  0.99731  1.0000
  H   H113      1.0  0.27388  0.10940  0.88666  1.0000
  H   H114      1.0  0.36056  0.19341  0.80636  1.0000
  C   C147      1.0  0.41090  0.08934  0.89147  1.0000
  H   H115      1.0  0.08120  0.43536  0.95830  1.0000
  C   C148      1.0  0.10286  0.13411  0.97828  1.0000
  C   C149      1.0  0.15346  0.16315  0.96937  1.0000
  C   C150      1.0  0.17883  0.21774  0.96841  1.0000
  C   C151      1.0  0.15355  0.24385  0.97606  1.0000
  C   C152      1.0  0.10209  0.21411  0.98444  1.0000
  P   P6        1.0  0.18441  0.31413  0.97274  1.0000
  C   C153      1.0  0.25472  0.34487  0.97490  1.0000
  C   C154      1.0  0.16826  0.32795  0.94371  1.0000
  C   C155      1.0  0.20109  0.37669  0.93307  1.0000
  H   H116      1.0  0.35615  0.01356  0.95064  1.0000
  H   H117      1.0  0.15312  0.28469  0.02209  1.0000
  C   C156      1.0  0.33610  0.39477  0.99724  1.0000
  C   C157      1.0  0.12323  0.29021  0.93143  1.0000
  C   C158      1.0  0.28183  0.37182  0.99567  1.0000
  H   H118      1.0  0.46707  0.34622  0.02235  1.0000
  C   C159      1.0  0.36367  0.39086  0.97815  1.0000
  C   C160      1.0  0.33711  0.36457  0.95734  1.0000
  C   C161      1.0  0.28293  0.34201  0.95563  1.0000
  C   C162      1.0  0.16274  0.34130  0.99566  1.0000
  P   P7        1.0  0.43453  0.12221  0.86346  1.0000
  H   H119      1.0  0.08110  0.23292  0.98997  1.0000
  C   C163      1.0  0.98508  0.40488  0.99845  1.0000
  H   H120      1.0  0.08359  0.09188  0.97928  1.0000
  C   C164      1.0  0.16021  0.38635  0.99145  1.0000
  C   C165      1.0  0.99590  0.45532  0.00392  1.0000
  C   C166      1.0  0.24988  0.05248  0.85812  1.0000
  H   H121      1.0  0.17325  0.14338  0.96331  1.0000
  H   H122      1.0  0.21828  0.23914  0.96187  1.0000
  C   C167      1.0  0.45749  0.05308  0.84069  1.0000
  H   H123      1.0  0.23608  0.40637  0.94221  1.0000
  C   C168      1.0  0.18918  0.38737  0.91046  1.0000
  H   H124      1.0  0.35652  0.41429  0.01354  1.0000
  C   C169      1.0  0.44609  0.01069  0.82575  1.0000
  H   H125      1.0  0.09734  0.25225  0.93913  1.0000
  H   H126      1.0  0.38796  0.17022  0.89152  1.0000
  H   H127      1.0  0.28420  0.07670  0.84766  1.0000
  C   C170      1.0  0.33741  0.02828  0.91549  1.0000
  H   H128      1.0  0.35840  0.36073  0.94271  1.0000
  H   H129      1.0  0.26293  0.32124  0.93946  1.0000
  H   H130      1.0  0.13547  0.35764  0.88069  1.0000
  C   C171      1.0  0.32281  0.00957  0.00353  1.0000
  H   H131      1.0  0.10494  0.01741  0.71340  1.0000
  C   C172      1.0  0.05730  0.44094  0.97098  1.0000
  H   H132      1.0  0.16996  0.40498  0.97426  1.0000
  C   C173      1.0  0.39931  0.15400  0.85519  1.0000
  C   C174      1.0  0.42240  0.07094  0.84243  1.0000
  C   C175      1.0  0.42535  0.06693  0.93119  1.0000
  H   H133      1.0  0.01714  0.00194  0.70456  1.0000
  H   H134      1.0  0.34463  0.05358  0.83240  1.0000
  C   C176      1.0  0.21195  0.00263  0.84960  1.0000
  C   C177      1.0  0.39266  0.16213  0.83114  1.0000
  H   H135      1.0  0.33016  0.05188  0.88047  1.0000
  C   C178      1.0  0.15084  0.31895  0.01837  1.0000
  C   C179      1.0  0.36665  0.18825  0.82493  1.0000
  H   H136      1.0  0.29563  0.00356  0.91753  1.0000
  C   C180      1.0  0.37423  0.04338  0.83021  1.0000
  H   H137      1.0  0.03805  0.13706  0.99290  1.0000
  C   C181      1.0  0.35705  0.05606  0.89443  1.0000
  H   H138      1.0  0.40732  0.14818  0.81719  1.0000
  H   H139      1.0  0.40549  0.40740  0.97961  1.0000
  C   C182      1.0  0.01586  0.39769  0.98208  1.0000
  H   H140      1.0  0.18715  0.16811  0.01882  1.0000
  C   C183      1.0  0.14586  0.40838  0.00973  1.0000
  H   H141      1.0  0.21491  0.42487  0.90226  1.0000
  C   C184      1.0  0.36292  0.00107  0.81534  1.0000
  C   C185      1.0  0.37147  0.03397  0.93399  1.0000
  H   H142      1.0  0.14444  0.44341  0.00658  1.0000
  C   C186      1.0  0.11147  0.30100  0.90880  1.0000
  C   C187      1.0  0.07723  0.15959  0.98588  1.0000
  H   H143      1.0  0.18844  0.00624  0.96797  1.0000
  H   H144      1.0  0.45154  0.07156  0.94567  1.0000
  H   H145      1.0  0.24965  0.00693  0.00675  1.0000
  C   C188      1.0  0.44519  0.09414  0.90987  1.0000
  H   H146      1.0  0.00779  0.35859  0.97813  1.0000
  C   C189      1.0  0.16025  0.99216  0.88484  1.0000
  C   C190      1.0  0.12755  0.99995  0.01242  1.0000
  H   H147      1.0  0.38873  0.99911  0.00192  1.0000
  H   H148      1.0  0.47330  0.99708  0.82439  1.0000
  C   C191      1.0  0.12689  0.79497  0.17149  1.0000
  Fe  Fe17      1.0  0.04755  0.73289  0.05099  1.0000
  C   C192      1.0  0.01971  0.56207  0.02775  1.0000
  H   H149      1.0  0.39862  0.51602  0.32873  1.0000
  Fe  Fe18      1.0  0.11358  0.81690  0.08909  1.0000
  S   S32       1.0  0.17877  0.80066  0.08693  1.0000
  S   S33       1.0  0.11451  0.87866  0.11366  1.0000
  Fe  Fe19      1.0  0.16530  0.79816  0.04732  1.0000
  H   H150      1.0  0.20516  0.78134  0.13607  1.0000
  Fe  Fe20      1.0  0.11614  0.71517  0.08663  1.0000
  S   S34       1.0  0.11532  0.65574  0.11267  1.0000
  S   S35       1.0  0.10395  0.81965  0.04921  1.0000
  S   S36       1.0  0.05110  0.73160  0.09104  1.0000
  C   C193      1.0  0.24377  0.80670  0.14366  1.0000
  H   H151      1.0  0.02491  0.65514  0.14944  1.0000
  H   H152      1.0  0.20104  0.61517  0.15732  1.0000
  C   C194      1.0  0.23968  0.97065  0.17159  1.0000
  C   C195      1.0  0.24101  0.93167  0.15803  1.0000
  C   C196      1.0  0.20329  0.90367  0.14014  1.0000
  C   C197      1.0  0.16349  0.91402  0.13567  1.0000
  C   C198      1.0  0.16202  0.95292  0.14927  1.0000
  H   H153      1.0  0.24071  0.65092  0.23143  1.0000
  H   H154      1.0  0.27173  0.92339  0.16117  1.0000
  H   H155      1.0  0.20498  0.87407  0.12977  1.0000
  H   H156      1.0  0.13113  0.96091  0.14611  1.0000
  C   C199      1.0  0.22053  0.70133  0.21291  1.0000
  C   C200      1.0  0.16133  0.56189  0.08194  1.0000
  C   C201      1.0  0.15253  0.60336  0.08596  1.0000
  C   C202      1.0  0.12764  0.60461  0.10670  1.0000
  C   C203      1.0  0.11192  0.56408  0.12334  1.0000
  H   H157      1.0  0.07339  0.81711  0.15812  1.0000
  H   H158      1.0  0.15239  0.77930  0.27129  1.0000
  H   H159      1.0  0.16509  0.63436  0.07306  1.0000
  H   H160      1.0  0.09268  0.56474  0.13946  1.0000
  C   C204      1.0  0.01134  0.55643  0.07080  1.0000
  C   C205      1.0  0.20009  0.98139  0.16704  1.0000
  C   C206      1.0  0.22811  0.65890  0.21468  1.0000
  H   H161      1.0  0.26180  0.89931  0.06410  1.0000
  H   H162      1.0  0.15504  0.83438  0.17736  1.0000
  C   C207      1.0  0.22066  0.62755  0.19473  1.0000
  C   C208      1.0  0.03804  0.55787  0.05020  1.0000
  H   H163      1.0  0.02632  0.55442  0.08812  1.0000
  C   C209      1.0  0.08318  0.92181  0.03628  1.0000
  H   H164      1.0  0.07314  0.55611  0.05191  1.0000
  H   H165      1.0  0.13802  0.53257  0.21920  1.0000
  H   H166      1.0  0.20361  0.87649  0.27286  1.0000
  C   C210      1.0  0.19852  0.68119  0.17114  1.0000
  H   H167      1.0  0.27974  0.83261  0.10940  1.0000
  H   H168      1.0  0.38346  0.89515  0.16980  1.0000
  H   H169      1.0  0.22866  0.72627  0.22832  1.0000
  H   H170      1.0  0.18858  0.69011  0.15390  1.0000
  C   C211      1.0  0.20441  0.71209  0.19123  1.0000
  C   C212      1.0  0.05290  0.69401  0.15605  1.0000
  H   H171      1.0  0.22709  0.59506  0.19598  1.0000
  H   H172      1.0  0.30981  0.84248  0.19665  1.0000
  C   C213      1.0  0.28598  0.83558  0.12849  1.0000
  H   H173      1.0  0.25171  0.92680  0.23722  1.0000
  H   H174      1.0  0.11768  0.92543  0.07038  1.0000
  H   H175      1.0  0.15003  0.73256  0.23444  1.0000
  C   C214      1.0  0.03282  0.97629  0.25483  1.0000
  H   H176      1.0  0.00814  0.72776  0.14401  1.0000
  C   C215      1.0  0.09924  0.70352  0.16696  1.0000
  C   C216      1.0  0.08034  0.78523  0.16080  1.0000
  C   C217      1.0  0.20597  0.63879  0.17296  1.0000
  S   S37       1.0  0.10854  0.71103  0.04684  1.0000
  H   H177      1.0  0.25009  0.88116  0.20071  1.0000
  H   H178      1.0  0.10515  0.67103  0.16913  1.0000
  C   C218      1.0  0.04350  0.73486  0.15292  1.0000
  H   H179      1.0  0.36879  0.89022  0.12609  1.0000
  H   H180      1.0  0.44735  0.51182  0.22289  1.0000
  C   C219      1.0  0.17466  0.80121  0.25597  1.0000
  C   C220      1.0  0.20331  0.85592  0.25687  1.0000
  C   C221      1.0  0.23069  0.88429  0.23688  1.0000
  C   C222      1.0  0.23019  0.85805  0.21615  1.0000
  C   C223      1.0  0.20318  0.80304  0.21535  1.0000
  C   C224      1.0  0.17393  0.77486  0.23517  1.0000
  P   P8        1.0  0.19832  0.76900  0.18785  1.0000
  C   C225      1.0  0.13716  0.75441  0.17434  1.0000
  C   C226      1.0  0.25168  0.80982  0.16839  1.0000
  C   C227      1.0  0.30252  0.84101  0.17767  1.0000
  C   C228      1.0  0.34447  0.87053  0.16248  1.0000
  C   C229      1.0  0.33621  0.86781  0.13789  1.0000
  C   C230      1.0  0.12080  0.94663  0.05430  1.0000
  H   H181      1.0  0.32272  0.93081  0.09855  1.0000
  C   C231      1.0  0.14506  0.52100  0.09833  1.0000
  C   C232      1.0  0.26457  0.92992  0.07552  1.0000
  C   C233      1.0  0.23406  0.95190  0.07065  1.0000
  C   C234      1.0  0.29903  0.94776  0.09490  1.0000
  H   H182      1.0  0.06014  0.96966  0.24511  1.0000
  H   H183      1.0  0.05135  0.88182  0.03859  1.0000
  C   C235      1.0  0.30237  0.98703  0.10969  1.0000
  H   H184      1.0  0.18102  0.56133  0.06606  1.0000
  H   H185      1.0  0.20812  0.93799  0.05546  1.0000
  C   C236      1.0  0.12029  0.52228  0.11915  1.0000
  H   H186      1.0  0.37264  0.51140  0.20305  1.0000
  H   H187      1.0  0.10759  0.49111  0.13196  1.0000
  H   H188      1.0  0.08498  0.49485  0.18233  1.0000
  H   H189      1.0  0.10254  0.98983  0.09228  1.0000
  H   H190      1.0  0.22368  0.58595  0.02747  1.0000
  H   H191      1.0  0.27104  0.68293  0.02721  1.0000
  C   C237      1.0  0.40920  0.57817  0.65593  1.0000
  C   C238      1.0  0.20972  0.54908  0.49607  1.0000
  C   C239      1.0  0.39165  0.77540  0.62429  1.0000
  C   C240      1.0  0.33289  0.72491  0.58309  1.0000
  C   C241      1.0  0.41021  0.59500  0.42448  1.0000
  C   C242      1.0  0.38796  0.58912  0.44691  1.0000
  C   C243      1.0  0.33943  0.54407  0.45200  1.0000
  C   C244      1.0  0.33680  0.74774  0.62482  1.0000
  H   H192      1.0  0.31026  0.70577  0.56715  1.0000
  C   C245      1.0  0.38364  0.55512  0.40732  1.0000
  H   H193      1.0  0.40769  0.61975  0.46015  1.0000
  H   H194      1.0  0.26531  0.70155  0.60483  1.0000
  C   C246      1.0  0.44872  0.87786  0.64939  1.0000
  C   C247      1.0  0.38742  0.75216  0.58240  1.0000
  H   H195      1.0  0.40711  0.75421  0.56592  1.0000
  H   H196      1.0  0.07641  0.49163  0.46324  1.0000
  H   H197      1.0  0.09193  0.57931  0.50044  1.0000
  C   C248      1.0  0.05414  0.56147  0.50893  1.0000
  H   H198      1.0  0.40044  0.55954  0.38987  1.0000
  H   H199      1.0  0.23706  0.61289  0.47137  1.0000
  C   C249      1.0  0.44846  0.90132  0.62779  1.0000
  C   C250      1.0  0.47717  0.96026  0.66992  1.0000
  H   H200      1.0  0.44621  0.72289  0.64121  1.0000
  C   C251      1.0  0.16737  0.50101  0.50323  1.0000
  H   H201      1.0  0.31623  0.74549  0.64094  1.0000
  C   C252      1.0  0.46839  0.55305  0.48117  1.0000
  C   C253      1.0  0.47796  0.49736  0.53878  1.0000
  C   C254      1.0  0.15546  0.55562  0.46579  1.0000
  H   H202      1.0  0.03135  0.68037  0.68602  1.0000
  C   C255      1.0  0.00873  0.52785  0.49598  1.0000
  C   C256      1.0  0.41668  0.77718  0.60290  1.0000
  C   C257      1.0  0.39538  0.54751  0.63525  1.0000
  H   H203      1.0  0.24757  0.56458  0.50460  1.0000
  H   H204      1.0  0.01123  0.51952  0.47741  1.0000
  H   H205      1.0  0.43723  0.87925  0.61128  1.0000
  H   H206      1.0  0.00041  0.55934  0.56228  1.0000
  H   H207      1.0  0.08594  0.59900  0.54280  1.0000
  H   H208      1.0  0.32203  0.54030  0.46924  1.0000
  C   C258      1.0  0.20382  0.57629  0.47732  1.0000
  H   H209      1.0  0.15129  0.57631  0.45094  1.0000
  H   H210      1.0  0.45885  0.79813  0.60193  1.0000
  C   C259      1.0  0.43349  0.54412  0.62237  1.0000
  C   C260      1.0  0.11304  0.50746  0.47285  1.0000
  C   C261      1.0  0.01183  0.69922  0.69338  1.0000
  C   C262      1.0  0.44124  0.56738  0.49659  1.0000
  S   S38       1.0  0.47035  0.65177  0.41690  1.0000
  C   C263      1.0  0.30762  0.72260  0.60429  1.0000
  P   P9        1.0  0.43014  0.80988  0.65039  1.0000
  C   C264      1.0  0.00208  0.54998  0.54380  1.0000
  C   C265      1.0  0.05078  0.57258  0.53281  1.0000
  H   H211      1.0  0.35504  0.52623  0.62923  1.0000
  H   H212      1.0  0.37973  0.58065  0.66599  1.0000
  C   C266      1.0  0.46342  0.90782  0.67046  1.0000
  C   C267      1.0  0.44486  0.50131  0.47278  1.0000
  H   H213      1.0  0.46163  0.97160  0.61065  1.0000
  H   H214      1.0  0.36918  0.54212  0.51499  1.0000
  C   C268      1.0  0.47676  0.98333  0.64839  1.0000
  C   C269      1.0  0.33553  0.50962  0.41258  1.0000
  C   C270      1.0  0.46243  0.95387  0.62733  1.0000
  C   C271      1.0  0.39045  0.53053  0.50350  1.0000
  H   H215      1.0  0.05770  0.49203  0.57630  1.0000
  C   C272      1.0  0.35389  0.79203  0.68364  1.0000
  H   H216      1.0  0.42177  0.52043  0.60638  1.0000
  H   H217      1.0  0.45947  0.60716  0.50314  1.0000
  C   C273      1.0  0.31321  0.50395  0.43498  1.0000
  C   C274      1.0  0.46116  0.60560  0.66371  1.0000
  H   H218      1.0  0.09593  0.49483  0.53720  1.0000
  H   H219      1.0  0.47223  0.62956  0.67974  1.0000
  H   H220      1.0  0.34563  0.81675  0.67270  1.0000
  C   C275      1.0  0.39345  0.78211  0.67735  1.0000
  H   H221      1.0  0.43547  0.74414  0.68860  1.0000
  C   C276      1.0  0.40431  0.75131  0.69242  1.0000
  H   H222      1.0  0.46419  0.89065  0.68734  1.0000
  C   C277      1.0  0.99390  0.87913  0.69366  1.0000
  Fe  Fe21      1.0  0.10702  0.81794  0.76930  1.0000
  S   S39       1.0  0.13426  0.76125  0.77553  1.0000
  S   S40       1.0  0.03855  0.80534  0.74594  1.0000
  Fe  Fe22      1.0  0.18347  0.89713  0.80699  1.0000
  S   S41       1.0  0.21506  0.84526  0.81580  1.0000
  S   S42       1.0  0.22378  0.98038  0.82230  1.0000
  Fe  Fe23      1.0  0.21644  0.83235  0.77653  1.0000
  S   S43       1.0  0.29020  0.84914  0.75617  1.0000
  Fe  Fe24      1.0  0.13089  0.77925  0.81432  1.0000
  S   S44       1.0  0.09978  0.71918  0.84391  1.0000
  S   S45       1.0  0.18870  0.88785  0.76748  1.0000
  S   S46       1.0  0.09950  0.83214  0.80814  1.0000
  C   C278      1.0  0.14029  0.69128  0.92953  1.0000
  H   H223      1.0  0.31479  0.72487  0.73562  1.0000
  H   H224      1.0  0.04459  0.63429  0.87568  1.0000
  C   C279      1.0  0.22105  0.96238  0.95391  1.0000
  C   C280      1.0  0.31818  0.92656  0.00970  1.0000
  C   C281      1.0  0.26883  0.98460  0.00752  1.0000
  H   H225      1.0  0.17276  0.67315  0.95965  1.0000
  H   H226      1.0  0.36261  0.75132  0.79520  1.0000
  H   H227      1.0  0.00817  0.77616  0.00230  1.0000
  H   H228      1.0  0.28523  0.96799  0.86259  1.0000
  C   C282      1.0  0.41447  0.80298  0.76826  1.0000
  C   C283      1.0  0.42231  0.84115  0.75161  1.0000
  C   C284      1.0  0.38454  0.85574  0.74863  1.0000
  C   C285      1.0  0.33857  0.83261  0.76226  1.0000
  C   C286      1.0  0.33147  0.79553  0.77934  1.0000
  C   C287      1.0  0.36911  0.78079  0.78225  1.0000
  H   H229      1.0  0.46991  0.66359  0.95389  1.0000
  H   H230      1.0  0.39036  0.88425  0.73529  1.0000
  H   H231      1.0  0.29638  0.77730  0.78992  1.0000
  C   C288      1.0  0.15153  0.65704  0.00833  1.0000
  H   H232      1.0  0.05139  0.85657  0.69750  1.0000
  C   C289      1.0  0.23035  0.66039  0.02174  1.0000
  C   C290      1.0  0.03453  0.73382  0.71290  1.0000
  C   C291      1.0  0.39897  0.98493  0.81295  1.0000
  H   H233      1.0  0.07140  0.74171  0.72035  1.0000
  C   C292      1.0  0.99277  0.74883  0.90193  1.0000
  C   C293      1.0  0.98791  0.76250  0.87874  1.0000
  C   C294      1.0  0.03259  0.79577  0.86571  1.0000
  C   C295      1.0  0.08232  0.81505  0.87571  1.0000
  C   C296      1.0  0.08745  0.80113  0.89893  1.0000
  C   C297      1.0  0.04234  0.76830  0.91205  1.0000
  P   P10       1.0  0.15064  0.82929  0.91317  1.0000
  C   C298      1.0  0.15243  0.77829  0.92943  1.0000
  C   C299      1.0  0.20354  0.85513  0.89194  1.0000
  C   C300      1.0  0.22505  0.82539  0.88424  1.0000
  C   C301      1.0  0.00990  0.75877  0.72247  1.0000
  C   C302      1.0  0.22597  0.90690  0.88412  1.0000
  C   C303      1.0  0.13268  0.72893  0.91869  1.0000
  C   C304      1.0  0.17741  0.78847  0.95171  1.0000
  C   C305      1.0  0.16093  0.88256  0.93238  1.0000
  C   C306      1.0  0.21130  0.91789  0.94120  1.0000
  C   C307      1.0  0.12024  0.89182  0.93709  1.0000
  C   C308      1.0  0.26927  0.84778  0.86982  1.0000
  H   H234      1.0  0.32511  0.91647  0.85082  1.0000
  C   C309      1.0  0.99407  0.68452  0.83709  1.0000
  C   C310      1.0  0.98358  0.91991  0.69560  1.0000
  H   H235      1.0  0.09898  0.94372  0.95323  1.0000
  H   H236      1.0  0.02864  0.80583  0.84768  1.0000
  H   H237      1.0  0.11650  0.84036  0.86526  1.0000
  H   H238      1.0  0.04553  0.75877  0.93031  1.0000
  H   H239      1.0  0.20816  0.78497  0.88915  1.0000
  H   H240      1.0  0.21011  0.93056  0.88966  1.0000
  H   H241      1.0  0.11349  0.72048  0.90138  1.0000
  H   H242      1.0  0.19252  0.82583  0.96064  1.0000
  H   H243      1.0  0.24338  0.91184  0.93766  1.0000
  H   H244      1.0  0.00604  0.58052  0.91841  1.0000
  C   C311      1.0  0.01572  0.63921  0.86631  1.0000
  C   C312      1.0  0.37580  0.73058  0.71328  1.0000
  H   H245      1.0  0.12511  0.96888  0.89502  1.0000
  H   H246      1.0  0.99345  0.83163  0.79353  1.0000
  C   C313      1.0  0.18436  0.75050  0.96262  1.0000
  H   H247      1.0  0.38970  0.95168  0.80155  1.0000
  H   H248      1.0  0.29552  0.77952  0.70956  1.0000
  C   C314      1.0  0.12405  0.60217  0.00863  1.0000
  H   H249      1.0  0.12641  0.65397  0.92075  1.0000
  C   C315      1.0  0.26943  0.92875  0.86925  1.0000
  H   H250      1.0  0.02784  0.53854  0.95023  1.0000
  H   H251      1.0  0.28529  0.82446  0.86380  1.0000
  C   C316      1.0  0.03193  0.67882  0.84931  1.0000
  S   S47       1.0  0.45863  0.78000  0.77168  1.0000
  C   C317      1.0  0.16671  0.97259  0.86298  1.0000
  C   C318      1.0  0.07400  0.97900  0.70759  1.0000
  C   C319      1.0  0.29172  0.89961  0.86249  1.0000
  C   C320      1.0  0.18047  0.97122  0.95853  1.0000
  C   C321      1.0  0.20421  0.68599  0.01515  1.0000
  H   H252      1.0  0.45678  0.85841  0.74064  1.0000
  C   C322      1.0  0.23956  0.93030  0.01236  1.0000
  P   P11       1.0  0.05495  0.56477  0.00126  1.0000
  C   C323      1.0  0.16633  0.70212  0.95144  1.0000
  C   C324      1.0  0.03936  0.59550  0.97742  1.0000
  C   C325      1.0  0.03742  0.64086  0.98195  1.0000
  C   C326      1.0  0.02472  0.66429  0.96372  1.0000
  C   C327      1.0  0.01355  0.64258  0.94083  1.0000
  C   C328      1.0  0.01497  0.59735  0.93617  1.0000
  C   C329      1.0  0.02769  0.57380  0.95435  1.0000
  C   C330      1.0  0.13006  0.93591  0.95022  1.0000
  H   H253      1.0  0.05778  0.92878  0.00127  1.0000
  C   C331      1.0  0.33590  0.73981  0.71912  1.0000
  H   H254      1.0  0.13680  0.93444  0.85651  1.0000
  C   C332      1.0  0.32510  0.77070  0.70437  1.0000
  C   C333      1.0  0.15045  0.57675  0.01587  1.0000
  H   H255      1.0  0.04475  0.65782  0.99969  1.0000
  H   H256      1.0  0.02298  0.69901  0.96749  1.0000
  H   H257      1.0  0.00337  0.66049  0.92670  1.0000
  C   C334      1.0  0.34713  0.98024  0.00483  1.0000
  H   H258      1.0  0.19778  0.91088  0.01487  1.0000
  H   H259      1.0  0.20460  0.75936  0.97960  1.0000
  H   H260      1.0  0.08118  0.86617  0.93022  1.0000
  H   H261      1.0  0.13236  0.67790  0.00327  1.0000
  H   H262      1.0  0.38573  0.70874  0.72541  1.0000
  H   H263      1.0  0.00611  0.71486  0.82390  1.0000
  C   C335      1.0  0.08672  0.94831  0.01528  1.0000
  H   H264      1.0  0.33774  0.90460  0.01059  1.0000
  H   H265      1.0  0.26034  0.99069  0.95982  1.0000
  C   C336      1.0  0.08382  0.93815  0.70569  1.0000
  H   H266      1.0  0.13001  0.53461  0.01750  1.0000
  H   H267      1.0  0.22457  0.72842  0.01573  1.0000
  S   S48       1.0  0.23087  0.83362  0.02049  1.0000
  H   H268      1.0  0.10106  0.52475  0.96799  1.0000
  C   C337      1.0  0.04389  0.88841  0.69856  1.0000
  C   C338      1.0  0.20362  0.60579  0.02186  1.0000
  C   C339      1.0  0.03802  0.49908  0.99314  1.0000
  C   C340      1.0  0.02407  0.97000  0.70256  1.0000
  H   H269      1.0  0.12209  0.94463  0.71015  1.0000
  C   C341      1.0  0.26449  0.90134  0.01386  1.0000
  H   H270      1.0  0.32551  0.98005  0.80605  1.0000
  C   C342      1.0  0.06835  0.49145  0.97646  1.0000
  Fe  Fe25      1.0  0.80846  0.12761  0.27649  1.0000
  S   S49       1.0  0.78233  0.18297  0.28732  1.0000
  S   S50       1.0  0.87547  0.14251  0.25219  1.0000
  Fe  Fe26      1.0  0.73272  0.04190  0.31144  1.0000
  S   S51       1.0  0.70053  0.09063  0.32471  1.0000
  Fe  Fe27      1.0  0.69995  0.11259  0.28636  1.0000
  S   S52       1.0  0.63005  0.10253  0.26469  1.0000
  Fe  Fe28      1.0  0.78483  0.15635  0.32453  1.0000
  H   H271      1.0  0.52918  0.44399  0.17590  1.0000
  S   S53       1.0  0.72664  0.05886  0.27300  1.0000
  S   S54       1.0  0.81665  0.10592  0.31392  1.0000
  C   C343      1.0  0.79902  0.15066  0.17516  1.0000
  C   C344      1.0  0.91665  0.24265  0.33418  1.0000
  H   H272      1.0  0.89387  0.22741  0.31797  1.0000
  C   C345      1.0  0.58219  0.11997  0.26973  1.0000
  C   C346      1.0  0.59008  0.15923  0.28589  1.0000
  C   C347      1.0  0.55238  0.17407  0.28796  1.0000
  C   C348      1.0  0.79861  0.00051  0.24018  1.0000
  C   C349      1.0  0.78382  0.10866  0.19058  1.0000
  C   C350      1.0  0.53592  0.09537  0.25600  1.0000
  H   H273      1.0  0.62562  0.17878  0.29640  1.0000
  H   H274      1.0  0.49485  0.35133  0.18694  1.0000
  H   H275      1.0  0.50033  0.46461  0.13809  1.0000
  H   H276      1.0  0.52934  0.06485  0.24352  1.0000
  H   H277      1.0  0.86503  0.04184  0.21727  1.0000
  C   C351      1.0  0.90659  0.24741  0.19896  1.0000
  C   C352      1.0  0.88377  0.21546  0.21902  1.0000
  C   C353      1.0  0.90153  0.18289  0.22689  1.0000
  C   C354      1.0  0.94245  0.18299  0.21469  1.0000
  C   C355      1.0  0.86974  0.00244  0.27372  1.0000
  H   H278      1.0  0.89232  0.27206  0.19276  1.0000
  H   H279      1.0  0.85212  0.21552  0.22820  1.0000
  H   H280      1.0  0.92381  0.15885  0.35533  1.0000
  C   C356      1.0  0.97796  0.30295  0.26251  1.0000
  C   C357      1.0  0.71915  0.24269  0.24955  1.0000
  C   C358      1.0  0.56441  0.10769  0.19398  1.0000
  C   C359      1.0  0.54015  0.13500  0.20090  1.0000
  C   C360      1.0  0.57039  0.18713  0.20835  1.0000
  C   C361      1.0  0.62490  0.21213  0.20870  1.0000
  C   C362      1.0  0.64959  0.18472  0.20218  1.0000
  C   C363      1.0  0.61893  0.13244  0.19451  1.0000
  P   P12       1.0  0.72008  0.21887  0.20131  1.0000
  C   C364      1.0  0.74364  0.17480  0.19627  1.0000
  C   C365      1.0  0.73809  0.26479  0.17722  1.0000
  C   C366      1.0  0.76467  0.31899  0.18153  1.0000
  C   C367      1.0  0.77790  0.35379  0.16257  1.0000
  C   C368      1.0  0.76403  0.33475  0.13927  1.0000
  C   C369      1.0  0.73640  0.28082  0.13491  1.0000
  C   C370      1.0  0.72313  0.24594  0.15383  1.0000
  C   C371      1.0  0.72897  0.13279  0.21180  1.0000
  C   C372      1.0  0.74874  0.09970  0.20884  1.0000
  H   H281      1.0  0.55139  0.20779  0.21425  1.0000
  H   H282      1.0  0.51491  0.32589  0.05258  1.0000
  C   C373      1.0  0.77945  0.18394  0.17810  1.0000
  C   C374      1.0  0.74952  0.25131  0.22920  1.0000
  C   C375      1.0  0.80400  0.28443  0.23084  1.0000
  H   H283      1.0  0.54086  0.06699  0.18863  1.0000
  H   H284      1.0  0.73770  0.06775  0.22104  1.0000
  H   H285      1.0  0.80045  0.08406  0.18882  1.0000
  H   H286      1.0  0.64779  0.25270  0.21433  1.0000
  H   H287      1.0  0.63677  0.11054  0.18900  1.0000
  H   H288      1.0  0.77493  0.33465  0.19943  1.0000
  C   C376      1.0  0.94717  0.24703  0.18661  1.0000
  H   H289      1.0  0.77447  0.36179  0.12461  1.0000
  H   H290      1.0  0.72529  0.26601  0.11687  1.0000
  H   H291      1.0  0.70146  0.20419  0.15024  1.0000
  H   H292      1.0  0.70270  0.12597  0.22639  1.0000
  C   C377      1.0  0.49818  0.11006  0.25811  1.0000
  H   H293      1.0  0.85596  0.00370  0.33621  1.0000
  H   H294      1.0  0.62221  0.17334  0.34061  1.0000
  H   H295      1.0  0.79392  0.21757  0.16664  1.0000
  H   H296      1.0  0.82827  0.29009  0.21556  1.0000
  H   H297      1.0  0.67745  0.21512  0.24925  1.0000
  H   H298      1.0  0.81501  0.32257  0.28882  1.0000
  C   C378      1.0  0.79684  0.30297  0.27217  1.0000
  H   H299      1.0  0.79886  0.39559  0.16596  1.0000
  S   S55       1.0  0.82338  0.20925  0.35632  1.0000
  C   C379      1.0  0.94880  0.11216  0.29921  1.0000
  H   H300      1.0  0.92776  0.04371  0.24654  1.0000
  H   H301      1.0  0.77138  0.00082  0.22748  1.0000
  C   C380      1.0  0.50634  0.14984  0.27398  1.0000
  H   H302      1.0  0.89508  0.25931  0.26853  1.0000
  C   C381      1.0  0.93233  0.29285  0.27393  1.0000
  C   C382      1.0  0.93486  0.32545  0.29245  1.0000
  H   H303      1.0  0.84975  0.06775  0.35818  1.0000
  H   H304      1.0  0.82785  0.15884  0.16159  1.0000
  H   H305      1.0  0.97594  0.19406  0.30103  1.0000
  C   C383      1.0  0.88680  0.02444  0.25109  1.0000
  C   C384      1.0  0.74273  0.26884  0.27087  1.0000
  H   H306      1.0  0.89958  0.31680  0.30168  1.0000
  H   H307      1.0  0.86954  0.33616  0.25324  1.0000
  H   H308      1.0  0.71901  0.26157  0.28653  1.0000
  C   C385      1.0  0.82750  0.31051  0.25218  1.0000
  H   H309      1.0  0.92444  0.10640  0.28383  1.0000
  C   C386      1.0  0.89168  0.23827  0.35571  1.0000
  C   C387      1.0  0.85131  0.02325  0.23438  1.0000
  H   H310      1.0  0.71493  0.21322  0.35357  1.0000
  P   P13       1.0  0.91665  0.00629  0.29542  1.0000
  H   H311      1.0  0.49788  0.11545  0.20106  1.0000
  H   H312      1.0  0.55904  0.20481  0.30033  1.0000
  C   C388      1.0  0.95090  0.07033  0.30927  1.0000
  C   C389      1.0  0.50192  0.41269  0.16417  1.0000
  H   H313      1.0  0.97522  0.27805  0.24785  1.0000
  C   C390      1.0  0.97131  0.26841  0.33342  1.0000
  C   C391      1.0  0.48289  0.36062  0.17034  1.0000
  S   S56       1.0  0.97262  0.28563  0.16070  1.0000
  C   C392      1.0  0.96541  0.21508  0.19474  1.0000
  C   C393      1.0  0.63191  0.15940  0.35646  1.0000
  C   C394      1.0  0.48556  0.42425  0.14292  1.0000
  H   H314      1.0  0.95634  0.15785  0.22064  1.0000
  H   H315      1.0  0.48044  0.29232  0.27360  1.0000
  C   C395      1.0  0.96246  0.99413  0.28004  1.0000
  C   C396      1.0  0.97853  0.16243  0.30890  1.0000
  Fe  Fe29      1.0  0.84027  0.18822  0.54430  1.0000
  S   S57       1.0  0.77586  0.20621  0.54567  1.0000
  Fe  Fe30      1.0  0.79875  0.11896  0.58887  1.0000
  S   S58       1.0  0.73315  0.13378  0.59280  1.0000
  S   S59       1.0  0.80832  0.06718  0.61582  1.0000
  Fe  Fe31      1.0  0.72382  0.12057  0.55324  1.0000
  S   S60       1.0  0.64338  0.07279  0.53663  1.0000
  Fe  Fe32      1.0  0.79184  0.21794  0.58486  1.0000
  S   S61       1.0  0.80589  0.28587  0.60894  1.0000
  S   S62       1.0  0.78649  0.10141  0.54933  1.0000
  S   S63       1.0  0.85916  0.20436  0.58335  1.0000
  H   H316      1.0  0.94464  0.17439  0.52503  1.0000
  H   H317      1.0  0.75435  0.05974  0.49075  1.0000
  H   H318      1.0  0.90241  0.25402  0.39345  1.0000
  C   C397      1.0  0.76019  0.03346  0.63800  1.0000
  H   H319      1.0  0.93711  0.33199  0.56359  1.0000
  H   H320      1.0  0.91151  0.08744  0.66430  1.0000
  C   C398      1.0  0.78143  0.32860  0.60608  1.0000
  C   C399      1.0  0.75425  0.32894  0.58579  1.0000
  C   C400      1.0  0.73715  0.36493  0.58413  1.0000
  C   C401      1.0  0.74822  0.40173  0.60240  1.0000
  C   C402      1.0  0.77525  0.40121  0.62268  1.0000
  C   C403      1.0  0.79086  0.36418  0.62466  1.0000
  H   H321      1.0  0.74670  0.30178  0.57137  1.0000
  H   H322      1.0  0.71571  0.36467  0.56850  1.0000
  H   H323      1.0  0.78360  0.42893  0.63696  1.0000
  H   H324      1.0  0.81138  0.36385  0.64053  1.0000
  H   H325      1.0  0.72839  0.33069  0.51625  1.0000
  C   C404      1.0  0.89920  0.44230  0.58792  1.0000
  C   C405      1.0  0.87223  0.08771  0.46926  1.0000
  C   C406      1.0  0.79974  0.39851  0.52866  1.0000
  C   C407      1.0  0.92054  0.13564  0.37073  1.0000
  C   C408      1.0  0.58058  0.07050  0.48024  1.0000
  C   C409      1.0  0.74324  0.34201  0.68681  1.0000
  C   C410      1.0  0.60123  0.06155  0.45977  1.0000
  C   C411      1.0  0.65876  0.15508  0.45506  1.0000
  P   P14       1.0  0.68015  0.16670  0.67244  1.0000
  C   C412      1.0  0.65278  0.15245  0.64259  1.0000
  H   H326      1.0  0.75892  0.38360  0.68926  1.0000
  H   H327      1.0  0.49193  0.39776  0.43311  1.0000
  C   C413      1.0  0.90936  0.01803  0.65192  1.0000
  C   C414      1.0  0.85595  0.04362  0.45469  1.0000
  C   C415      1.0  0.97187  0.36757  0.55780  1.0000
  C   C416      1.0  0.92155  0.25752  0.37671  1.0000
  C   C417      1.0  0.67207  0.19211  0.62540  1.0000
  C   C418      1.0  0.65208  0.18127  0.60217  1.0000
  C   C419      1.0  0.61283  0.13061  0.59579  1.0000
  C   C420      1.0  0.59324  0.09093  0.61275  1.0000
  C   C421      1.0  0.61333  0.10156  0.63602  1.0000
  C   C422      1.0  0.73531  0.15735  0.67307  1.0000
  H   H328      1.0  0.64045  0.05796  0.68689  1.0000
  C   C423      1.0  0.55414  0.43082  0.51517  1.0000
  C   C424      1.0  0.95695  0.15770  0.38936  1.0000
  C   C425      1.0  0.81130  0.16518  0.65355  1.0000
  C   C426      1.0  0.76928  0.17330  0.65365  1.0000
  C   C427      1.0  0.76975  0.34744  0.51968  1.0000
  C   C428      1.0  0.59114  0.47055  0.62810  1.0000
  C   C429      1.0  0.82062  0.17392  0.45075  1.0000
  H   H329      1.0  0.58533  0.02161  0.45386  1.0000
  H   H330      1.0  0.84154  0.01433  0.39326  1.0000
  H   H331      1.0  0.93006  0.04349  0.48768  1.0000
  C   C430      1.0  0.78257  0.05512  0.48073  1.0000
  H   H332      1.0  0.55195  0.10093  0.36370  1.0000
  H   H333      1.0  0.70344  0.23136  0.62973  1.0000
  H   H334      1.0  0.66813  0.21201  0.58898  1.0000
  H   H335      1.0  0.94657  0.27451  0.46993  1.0000
  H   H336      1.0  0.59850  0.06993  0.64866  1.0000
  C   C431      1.0  0.85325  0.42030  0.53344  1.0000
  H   H337      1.0  0.57372  0.06732  0.39939  1.0000
  C   C432      1.0  0.50839  0.39319  0.50354  1.0000
  H   H338      1.0  0.83640  0.17624  0.63816  1.0000
  H   H339      1.0  0.76336  0.19194  0.63850  1.0000
  H   H340      1.0  0.63482  0.02779  0.37841  1.0000
  H   H341      1.0  0.56295  0.05183  0.60768  1.0000
  H   H342      1.0  0.74386  0.14892  0.46311  1.0000
  C   C433      1.0  0.74578  0.13563  0.69297  1.0000
  H   H343      1.0  0.61047  0.45143  0.66211  1.0000
  H   H344      1.0  0.84998  0.14703  0.39632  1.0000
  H   H345      1.0  0.97949  0.14662  0.42413  1.0000
  H   H346      1.0  0.84836  0.12654  0.49408  1.0000
  C   C434      1.0  0.59935  0.12155  0.48830  1.0000
  C   C435      1.0  0.91415  0.05381  0.66933  1.0000
  C   C436      1.0  0.83571  0.09284  0.48260  1.0000
  H   H347      1.0  0.78077  0.42042  0.53196  1.0000
  H   H348      1.0  0.60474  0.44882  0.61806  1.0000
  H   H349      1.0  0.59842  0.12191  0.57757  1.0000
  H   H350      1.0  0.70071  0.99675  0.57069  1.0000
  C   C437      1.0  0.61678  0.00664  0.52774  1.0000
  C   C438      1.0  0.82671  0.14678  0.41096  1.0000
  H   H351      1.0  0.68945  0.01084  0.52016  1.0000
  C   C439      1.0  0.87424  0.05412  0.39221  1.0000
  C   C440      1.0  0.63793  0.16389  0.47553  1.0000
  C   C441      1.0  0.67470  0.25742  0.67217  1.0000
  C   C442      1.0  0.67598  0.00656  0.65579  1.0000
  H   H352      1.0  0.89373  0.36796  0.46518  1.0000
  S   S64       1.0  0.72561  0.44601  0.59961  1.0000
  H   H353      1.0  0.97407  0.33463  0.52418  1.0000
  H   H354      1.0  0.70409  0.05058  0.62347  1.0000
  C   C443      1.0  0.79285  0.31772  0.51550  1.0000
  C   C444      1.0  0.93098  0.37123  0.46192  1.0000
  H   H355      1.0  0.91297  0.11825  0.47007  1.0000
  C   C445      1.0  0.91097  0.07583  0.41087  1.0000
  H   H356      1.0  0.68897  0.18820  0.44540  1.0000
  C   C446      1.0  0.76598  0.01188  0.46572  1.0000
  C   C447      1.0  0.59440  0.47193  0.65292  1.0000
  C   C448      1.0  0.84587  0.33880  0.52053  1.0000
  C   C449      1.0  0.96512  0.05709  0.47740  1.0000
  H   H357      1.0  0.83928  0.19380  0.46728  1.0000
  H   H358      1.0  0.63934  0.00556  0.65508  1.0000
  H   H359      1.0  0.55067  0.03769  0.49015  1.0000
  P   P15       1.0  0.67236  0.09379  0.42199  1.0000
  C   C450      1.0  0.51118  0.46056  0.47829  1.0000
  C   C451      1.0  0.94128  0.22537  0.49902  1.0000
  C   C452      1.0  0.60477  0.09961  0.38967  1.0000
  H   H360      1.0  0.89291  0.19213  0.43418  1.0000
  H   H361      1.0  0.86349  0.31525  0.51775  1.0000
  C   C453      1.0  0.96139  0.25135  0.47742  1.0000
  C   C454      1.0  0.71268  0.03200  0.63765  1.0000
  H   H362      1.0  0.65216  0.20346  0.48169  1.0000
  S   S65       1.0  0.89302  0.23294  0.51333  1.0000
  H   H363      1.0  0.91201  0.34434  0.42548  1.0000
  C   C455      1.0  0.95180  0.12825  0.40956  1.0000
  H   H364      1.0  0.64440  0.03071  0.58214  1.0000
  P   P16       1.0  0.90274  0.03751  0.43698  1.0000
  C   C456      1.0  0.74199  0.12379  0.42656  1.0000
  C   C457      1.0  0.96383  0.06039  0.45252  1.0000
  C   C458      1.0  0.76631  0.14879  0.44816  1.0000
  H   H365      1.0  0.76951  0.27801  0.50871  1.0000
  H   H366      1.0  0.80624  0.00850  0.65701  1.0000
  H   H367      1.0  0.84612  0.01253  0.50802  1.0000
  C   C459      1.0  0.48673  0.40799  0.48525  1.0000
  C   C460      1.0  0.65711  0.12123  0.39682  1.0000
  C   C461      1.0  0.63186  0.00379  0.39341  1.0000
  C   C462      1.0  0.70378  0.23476  0.67927  1.0000
  C   C463      1.0  0.57796  0.48337  0.50871  1.0000
  C   C464      1.0  0.81998  0.14135  0.67291  1.0000
  H   H368      1.0  0.48713  0.02391  0.64808  1.0000
  C   C465      1.0  0.85084  0.17283  0.43217  1.0000
  C   C466      1.0  0.87587  0.38978  0.52954  1.0000
  H   H369      1.0  0.73719  0.18147  0.38925  1.0000
  C   C467      1.0  0.77257  0.12200  0.40819  1.0000
  C   C468      1.0  0.64188  0.10380  0.44749  1.0000
  H   H370      1.0  0.85146  0.13344  0.67237  1.0000
  H   H371      1.0  0.58420  0.12812  0.50455  1.0000
  C   C469      1.0  0.64820  0.02536  0.41637  1.0000
  C   C470      1.0  0.69658  0.16326  0.38400  1.0000
  H   H372      1.0  0.92520  0.99165  0.39614  1.0000
  C   C471      1.0  0.97621  0.28079  0.37608  1.0000
  H   H373      1.0  0.85573  0.04364  0.54982  1.0000
  C   C472      1.0  0.95987  0.19461  0.50840  1.0000
  H   H374      1.0  0.66183  0.00977  0.45246  1.0000
  H   H375      1.0  0.63725  0.23405  0.66327  1.0000
  H   H376      1.0  0.75479  0.10273  0.39140  1.0000
  P   P17       1.0  0.89312  0.48628  0.54497  1.0000
  H   H377      1.0  0.57101  0.41936  0.52930  1.0000
  H   H378      1.0  0.88946  0.40734  0.57793  1.0000
  H   H379      1.0  0.91671  0.40544  0.53361  1.0000
  C   C473      1.0  0.68399  0.18191  0.36378  1.0000
  C   C474      1.0  0.69457  0.31088  0.67578  1.0000
  C   C475      1.0  0.77000  0.00820  0.65663  1.0000
  H   H380      1.0  0.67274  0.32849  0.66961  1.0000
  C   C476      1.0  0.94121  0.35795  0.43958  1.0000
  C   C477      1.0  0.64758  0.99352  0.43485  1.0000
  C   C478      1.0  0.80251  0.00637  0.45270  1.0000
  H   H381      1.0  0.90571  0.40941  0.62089  1.0000
  C   C479      1.0  0.75242  0.26624  0.69061  1.0000
  H   H382      1.0  0.90300  0.02415  0.63348  1.0000
  C   C480      1.0  0.87896  0.08404  0.37225  1.0000
  C   C481      1.0  0.90855  0.44337  0.61240  1.0000
  C   C482      1.0  0.82106  0.00749  0.54423  1.0000
  H   H383      1.0  0.74872  0.01311  0.36657  1.0000
  C   C483      1.0  0.78743  0.12687  0.69268  1.0000
  C   C484      1.0  0.59229  0.11850  0.36949  1.0000
  H   H384      1.0  0.92505  0.47988  0.49653  1.0000
  C   C485      1.0  0.96874  0.38861  0.48005  1.0000
  H   H385      1.0  0.96040  0.39987  0.49695  1.0000
  H   H386      1.0  0.78642  0.99217  0.57887  1.0000
  C   C486      1.0  0.90149  0.48552  0.57683  1.0000
  P   P18       1.0  0.48201  0.48065  0.45574  1.0000
  H   H387      1.0  0.97915  0.41045  0.58990  1.0000
  H   H388      1.0  0.48960  0.35251  0.50874  1.0000
  C   C487      1.0  0.92164  0.04581  0.69316  1.0000
  C   C488      1.0  0.91891  0.48694  0.62609  1.0000
  C   C489      1.0  0.63087  0.12411  0.69351  1.0000
  H   H389      1.0  0.80481  0.48643  0.56601  1.0000
  H   H390      1.0  0.92468  0.48719  0.64517  1.0000
  C   C490      1.0  0.75995  0.30962  0.90059  1.0000
  C   C491      1.0  0.58874  0.43335  0.93147  1.0000
  C   C492      1.0  0.57811  0.40893  0.90915  1.0000
  C   C493      1.0  0.49728  0.33365  0.92415  1.0000
  H   H391      1.0  0.82963  0.25078  0.91181  1.0000
  C   C494      1.0  0.53280  0.35926  0.90556  1.0000
  C   C495      1.0  0.55257  0.40828  0.94989  1.0000
  H   H392      1.0  0.60494  0.42824  0.89474  1.0000
  H   H393      1.0  0.54225  0.12148  0.73239  1.0000
  H   H394      1.0  0.79289  0.43332  0.83541  1.0000
  H   H395      1.0  0.56017  0.42701  0.96718  1.0000
  C   C496      1.0  0.77735  0.27441  0.89830  1.0000
  H   H396      1.0  0.57633  0.28522  0.89973  1.0000
  C   C497      1.0  0.50719  0.35868  0.94631  1.0000
  C   C498      1.0  0.60507  0.32067  0.96337  1.0000
  H   H397      1.0  0.72970  0.30609  0.88863  1.0000
  C   C499      1.0  0.71954  0.42487  0.84545  1.0000
  C   C500      1.0  0.82029  0.35226  0.93357  1.0000
  C   C501      1.0  0.56403  0.10794  0.72245  1.0000
  C   C502      1.0  0.83760  0.31698  0.93123  1.0000
  H   H398      1.0  0.86770  0.31982  0.94310  1.0000
  H   H399      1.0  0.65071  0.41819  0.86094  1.0000
  C   C503      1.0  0.68622  0.39694  0.95114  1.0000
  C   C504      1.0  0.68585  0.41702  0.86420  1.0000
  P   P19       1.0  0.75856  0.39417  0.92106  1.0000
  C   C505      1.0  0.78136  0.34891  0.91822  1.0000
  H   H400      1.0  0.79394  0.10806  0.70765  1.0000
  C   C506      1.0  0.63981  0.37472  0.96397  1.0000
  H   H401      1.0  0.67297  0.28496  0.92786  1.0000
  H   H402      1.0  0.71058  0.43210  0.82767  1.0000
  C   C507      1.0  0.66448  0.31052  0.93795  1.0000
  C   C508      1.0  0.58195  0.03962  0.71305  1.0000
  C   C509      1.0  0.53785  0.18474  0.84801  1.0000
  H   H403      1.0  0.76072  0.24424  0.88464  1.0000
  H   H404      1.0  0.52486  0.03151  0.73857  1.0000
  H   H405      1.0  0.61642  0.23544  0.83559  1.0000
  H   H406      1.0  0.81389  0.41704  0.87576  1.0000
  C   C510      1.0  0.81617  0.27809  0.91361  1.0000
  C   C511      1.0  0.60266  0.26453  0.86816  1.0000
  C   C512      1.0  0.76565  0.42498  0.84976  1.0000
  C   C513      1.0  0.56617  0.25666  0.88555  1.0000
  C   C514      1.0  0.77764  0.41620  0.87272  1.0000
  C   C515      1.0  0.55410  0.05723  0.72592  1.0000
  H   H407      1.0  0.83746  0.38201  0.94734  1.0000
  C   C516      1.0  0.74379  0.40781  0.89165  1.0000
  H   H408      1.0  0.57465  0.00037  0.71575  1.0000
  C   C517      1.0  0.61742  0.28855  0.95038  1.0000
  H   H409      1.0  0.52698  0.15870  0.83281  1.0000
  C   C518      1.0  0.69807  0.40896  0.88727  1.0000
  H   H410      1.0  0.59014  0.24667  0.94977  1.0000
  H   H411      1.0  0.52519  0.34048  0.88828  1.0000
  H   H412      1.0  0.67187  0.40397  0.90158  1.0000
  C   C519      1.0  0.58849  0.22864  0.84938  1.0000
  C   C520      1.0  0.92383  0.00174  0.69963  1.0000
  H   H413      1.0  0.64150  0.29900  0.86894  1.0000
  C   C521      1.0  0.69933  0.36496  0.93829  1.0000
  H   H414      1.0  0.80990  0.34391  0.70273  1.0000
  H   H415      1.0  0.56820  0.30383  0.97264  1.0000
  H   H416      1.0  0.92521  0.07350  0.70667  1.0000
  H   H417      1.0  0.77581  0.25000  0.69621  1.0000
  H   H418      1.0  0.71112  0.43924  0.95088  1.0000
  H   H419      1.0  0.72173  0.12486  0.70866  1.0000
  H   H420      1.0  0.92920  0.99591  0.71823  1.0000
  H   H421      1.0  0.63018  0.39990  0.97377  1.0000
  H   H422      1.0  0.78707  0.42340  0.97124  1.0000
  C   C522      1.0  0.80833  0.45380  0.93548  1.0000
  H   H423      1.0  0.49320  0.07126  0.85117  1.0000
  C   C523      1.0  0.51573  0.21265  0.88433  1.0000
  C   C524      1.0  0.60224  0.14131  0.70633  1.0000
  H   H424      1.0  0.95321  0.37137  0.00723  1.0000
  H   H425      1.0  0.60945  0.18045  0.70408  1.0000
  H   H426      1.0  0.48702  0.11871  0.90789  1.0000
  C   C525      1.0  0.61953  0.07258  0.69669  1.0000
  C   C526      1.0  0.50138  0.17586  0.86576  1.0000
  H   H427      1.0  0.48749  0.20802  0.89763  1.0000
  C   C527      1.0  0.81328  0.45660  0.96043  1.0000
  H   H428      1.0  0.97189  0.45993  0.01687  1.0000
  H   H429      1.0  0.48014  0.33960  0.96072  1.0000
  C   C528      1.0  0.77198  0.31963  0.69435  1.0000
  H   H430      1.0  0.94650  0.55965  0.08516  1.0000
  H   H431      1.0  0.89929  0.90044  0.30385  1.0000
  S   S66       1.0  0.70303  0.95746  0.32167  1.0000
  C   C529      1.0  0.84762  0.86985  0.33353  1.0000
  H   H432      1.0  0.90279  0.93091  0.25844  1.0000
  C   C530      1.0  0.67634  0.88221  0.35567  1.0000
  C   C531      1.0  0.81954  0.87913  0.35063  1.0000
  C   C532      1.0  0.87886  0.90891  0.31724  1.0000
  C   C533      1.0  0.94666  0.56147  0.04684  1.0000
  S   S67       1.0  0.97077  0.68122  0.03107  1.0000
  H   H433      1.0  0.84433  0.83200  0.33257  1.0000
  C   C534      1.0  0.70259  0.93618  0.35110  1.0000
  H   H434      1.0  0.74064  0.96198  0.26741  1.0000
  C   C535      1.0  0.82374  0.92786  0.35188  1.0000
  H   H435      1.0  0.65573  0.85466  0.34132  1.0000
  H   H436      1.0  0.80195  0.96367  0.29676  1.0000
  C   C536      1.0  0.88223  0.95761  0.31804  1.0000
  C   C537      1.0  0.78134  0.97878  0.26266  1.0000
  C   C538      1.0  0.94418  0.95465  0.26252  1.0000
  C   C539      1.0  0.85503  0.96700  0.33572  1.0000
  H   H437      1.0  0.91224  0.56472  0.04557  1.0000
  C   C540      1.0  0.96608  0.55893  0.06914  1.0000
  H   H438      1.0  0.96495  0.91544  0.23644  1.0000
  C   C541      1.0  0.81667  0.97996  0.27942  1.0000
  C   C542      1.0  0.97924  0.94578  0.25000  1.0000
  Fe  Fe33      1.0  0.61092  0.72004  0.48146  1.0000
  S   S68       1.0  0.52919  0.70583  0.48266  1.0000
  S   S69       1.0  0.61972  0.65954  0.50285  1.0000
  Fe  Fe34      1.0  0.64310  0.80690  0.44402  1.0000
  S   S70       1.0  0.56328  0.79626  0.44240  1.0000
  S   S71       1.0  0.71091  0.87623  0.42545  1.0000
  Fe  Fe35      1.0  0.56716  0.79357  0.48220  1.0000
  S   S72       1.0  0.53502  0.83371  0.50465  1.0000
  Fe  Fe36      1.0  0.53267  0.70968  0.44293  1.0000
  H   H439      1.0  0.61886  0.87734  0.66201  1.0000
  S   S73       1.0  0.64836  0.80772  0.48424  1.0000
  S   S74       1.0  0.61308  0.72047  0.44134  1.0000
  Fe  Fe37      1.0  0.79039  0.63658  0.60687  1.0000
  S   S75       1.0  0.71616  0.56519  0.61841  1.0000
  S   S76       1.0  0.79722  0.69210  0.57717  1.0000
  Fe  Fe38      1.0  0.85627  0.61880  0.64382  1.0000
  S   S77       1.0  0.78671  0.54467  0.65710  1.0000
  C   C543      1.0  0.48583  0.57132  0.63019  1.0000
  Fe  Fe39      1.0  0.74661  0.59096  0.65578  1.0000
  H   H440      1.0  0.55075  0.55409  0.66468  1.0000
  S   S78       1.0  0.83585  0.59564  0.60522  1.0000
  S   S79       1.0  0.81745  0.66604  0.64449  1.0000
  P   P20       1.0  0.53615  0.56844  0.61367  1.0000
  C   C544      1.0  0.62246  0.68378  0.69117  1.0000
  H   H441      1.0  0.62696  0.91565  0.44517  1.0000
  C   C545      1.0  0.86291  0.52421  0.53876  1.0000
  C   C546      1.0  0.61217  0.95052  0.38944  1.0000
  H   H442      1.0  0.52464  0.71538  0.64263  1.0000
  C   C547      1.0  0.58143  0.84423  0.65668  1.0000
  C   C548      1.0  0.73014  0.95274  0.39264  1.0000
  C   C549      1.0  0.70434  0.89864  0.39716  1.0000
  C   C550      1.0  0.67679  0.86349  0.37860  1.0000
  H   H443      1.0  0.80915  0.82008  0.68406  1.0000
  H   H444      1.0  0.65690  0.82182  0.38176  1.0000
  C   C551      1.0  0.56859  0.90095  0.51263  1.0000
  C   C552      1.0  0.62324  0.93349  0.51217  1.0000
  C   C553      1.0  0.53129  0.57291  0.56401  1.0000
  C   C554      1.0  0.53863  0.92154  0.52069  1.0000
  H   H445      1.0  0.64667  0.91794  0.50595  1.0000
  H   H446      1.0  0.54537  0.62764  0.39977  1.0000
  C   C555      1.0  0.73094  0.91495  0.52980  1.0000
  C   C556      1.0  0.67048  0.66924  0.52279  1.0000
  C   C557      1.0  0.71760  0.71716  0.52480  1.0000
  C   C558      1.0  0.75595  0.72340  0.54149  1.0000
  C   C559      1.0  0.74757  0.68206  0.55646  1.0000
  C   C560      1.0  0.70033  0.63426  0.55454  1.0000
  C   C561      1.0  0.66216  0.62794  0.53776  1.0000
  H   H447      1.0  0.72441  0.74943  0.51356  1.0000
  H   H448      1.0  0.79234  0.76054  0.54284  1.0000
  H   H449      1.0  0.69328  0.60215  0.56595  1.0000
  H   H450      1.0  0.62569  0.59100  0.53659  1.0000
  C   C562      1.0  0.53095  0.53208  0.43759  1.0000
  C   C563      1.0  0.48805  0.80529  0.65062  1.0000
  C   C564      1.0  0.59234  0.63376  0.61132  1.0000
  C   C565      1.0  0.64243  0.64128  0.60907  1.0000
  C   C566      1.0  0.68622  0.69179  0.60846  1.0000
  C   C567      1.0  0.68045  0.73519  0.61005  1.0000
  C   C568      1.0  0.63053  0.72809  0.61159  1.0000
  C   C569      1.0  0.58653  0.67755  0.61178  1.0000
  H   H451      1.0  0.87589  0.62464  0.50461  1.0000
  S   S80       1.0  0.70141  0.58696  0.68868  1.0000
  C   C570      1.0  0.55625  0.49838  0.49057  1.0000
  H   H452      1.0  0.64799  0.60829  0.60811  1.0000
  H   H453      1.0  0.72468  0.69705  0.60716  1.0000
  H   H454      1.0  0.71465  0.77419  0.61009  1.0000
  H   H455      1.0  0.62596  0.76175  0.61251  1.0000
  H   H456      1.0  0.54817  0.67274  0.61256  1.0000
  C   C571      1.0  0.66408  0.97097  0.57936  1.0000
  H   H457      1.0  0.80150  0.93471  0.36500  1.0000
  H   H458      1.0  0.49652  0.89680  0.52117  1.0000
  C   C572      1.0  0.88854  0.82179  0.62946  1.0000
  H   H459      1.0  0.78895  0.97317  0.44094  1.0000
  C   C573      1.0  0.88568  0.85763  0.66794  1.0000
  H   H460      1.0  0.96312  0.83977  0.68895  1.0000
  H   H461      1.0  0.53936  0.62424  0.65708  1.0000
  H   H462      1.0  0.75036  0.98048  0.40686  1.0000
  Fe  Fe40      1.0  0.76277  0.52509  0.61873  1.0000
  C   C574      1.0  0.56053  0.53014  0.65411  1.0000
  H   H463      1.0  0.91599  0.57112  0.51074  1.0000
  H   H464      1.0  0.59007  0.51179  0.44360  1.0000
  H   H465      1.0  0.80058  0.60967  0.52910  1.0000
  H   H466      1.0  0.83979  0.82775  0.41218  1.0000
  C   C575      1.0  0.53722  0.84878  0.65649  1.0000
  C   C576      1.0  0.84966  0.92945  0.44424  1.0000
  H   H467      1.0  0.95540  0.88572  0.64673  1.0000
  H   H468      1.0  0.83078  0.88538  0.61693  1.0000
  S   S81       1.0  0.93705  0.64491  0.65881  1.0000
  H   H469      1.0  0.90812  0.94711  0.64448  1.0000
  C   C577      1.0  0.67623  0.65665  0.67050  1.0000
  H   H470      1.0  0.59482  0.87753  0.40492  1.0000
  C   C578      1.0  0.81748  0.58535  0.53145  1.0000
  H   H471      1.0  0.48765  0.98283  0.68629  1.0000
  H   H472      1.0  0.61101  0.79249  0.65265  1.0000
  H   H473      1.0  0.53195  0.88166  0.61046  1.0000
  C   C579      1.0  0.55703  0.52907  0.62914  1.0000
  C   C580      1.0  0.85182  0.86767  0.41693  1.0000
  C   C581      1.0  0.88506  0.90886  0.40205  1.0000
  C   C582      1.0  0.79719  0.54598  0.54854  1.0000
  H   H474      1.0  0.58726  0.84612  0.59926  1.0000
  H   H475      1.0  0.52869  0.75186  0.53495  1.0000
  H   H476      1.0  0.64177  0.71170  0.55590  1.0000
  C   C583      1.0  0.78156  0.97850  0.56061  1.0000
  C   C584      1.0  0.51316  0.54116  0.58427  1.0000
  C   C585      1.0  0.61708  0.57633  0.41970  1.0000
  C   C586      1.0  0.60939  0.91863  0.40819  1.0000
  H   H477      1.0  0.91459  0.56338  0.58267  1.0000
  H   H478      1.0  0.50796  0.58216  0.47616  1.0000
  H   H479      1.0  0.65295  0.70847  0.65619  1.0000
  H   H480      1.0  0.80822  0.84608  0.44954  1.0000
  H   H481      1.0  0.52868  0.57547  0.52577  1.0000
  H   H482      1.0  0.74203  0.96495  0.68952  1.0000
  H   H483      1.0  0.66835  0.88920  0.62676  1.0000
  H   H484      1.0  0.78358  0.88821  0.58133  1.0000
  C   C587      1.0  0.77048  0.94387  0.51346  1.0000
  H   H485      1.0  0.71382  0.88275  0.66185  1.0000
  H   H486      1.0  0.76512  0.75696  0.65131  1.0000
  C   C588      1.0  0.62769  0.94022  0.43083  1.0000
  H   H487      1.0  0.56005  0.97336  0.60186  1.0000
  H   H488      1.0  0.81560  0.75805  0.61622  1.0000
  H   H489      1.0  0.76449  0.53952  0.55938  1.0000
  C   C589      1.0  0.83493  0.78593  0.63057  1.0000
  H   H490      1.0  0.69640  0.87927  0.52390  1.0000
  S   S82       1.0  0.58355  0.71232  0.68927  1.0000
  H   H491      1.0  0.91040  0.82132  0.61423  1.0000
  H   H492      1.0  0.79668  0.88456  0.65732  1.0000
  H   H493      1.0  0.61321  0.51262  0.51785  1.0000
  C   C590      1.0  0.83422  0.87799  0.43803  1.0000
  C   C591      1.0  0.51381  0.55093  0.54137  1.0000
  C   C592      1.0  0.88113  0.97077  0.42886  1.0000
  C   C593      1.0  0.52824  0.75293  0.64566  1.0000
  C   C594      1.0  0.88271  0.56336  0.52133  1.0000
  C   C595      1.0  0.51847  0.56430  0.42469  1.0000
  H   H494      1.0  0.76596  0.93033  0.49517  1.0000
  C   C596      1.0  0.89945  0.96021  0.40789  1.0000
  C   C597      1.0  0.91388  0.85773  0.64801  1.0000
  H   H495      1.0  0.55648  0.68663  0.53740  1.0000
  H   H496      1.0  0.54188  0.88605  0.66142  1.0000
  C   C598      1.0  0.91815  0.96506  0.68230  1.0000
  C   C599      1.0  0.93924  0.71347  0.69308  1.0000
  H   H497      1.0  0.58572  0.84109  0.55064  1.0000
  H   H498      1.0  0.83655  0.93668  0.46093  1.0000
  H   H499      1.0  0.69765  0.65754  0.65492  1.0000
  H   H500      1.0  0.70101  0.80164  0.56989  1.0000
  C   C600      1.0  0.57700  0.79642  0.65135  1.0000
  H   H501      1.0  0.55953  0.61442  0.56550  1.0000
  C   C601      1.0  0.65101  0.68536  0.67121  1.0000
  C   C602      1.0  0.56558  0.76230  0.54337  1.0000
  C   C603      1.0  0.58124  0.72569  0.54466  1.0000
  C   C604      1.0  0.62974  0.74007  0.55463  1.0000
  C   C605      1.0  0.66284  0.79098  0.56311  1.0000
  C   C606      1.0  0.64620  0.82706  0.56312  1.0000
  C   C607      1.0  0.59807  0.81294  0.55239  1.0000
  P   P21       1.0  0.68794  0.89202  0.57525  1.0000
  C   C608      1.0  0.64806  0.91861  0.58386  1.0000
  C   C609      1.0  0.72174  0.88820  0.60128  1.0000
  C   C610      1.0  0.70266  0.88675  0.62418  1.0000
  C   C611      1.0  0.72887  0.88381  0.64422  1.0000
  C   C612      1.0  0.77546  0.88432  0.64164  1.0000
  C   C613      1.0  0.79485  0.88554  0.61895  1.0000
  C   C614      1.0  0.76798  0.88719  0.59881  1.0000
  H   H502      1.0  0.79427  0.84861  0.36292  1.0000
  C   C615      1.0  0.86006  0.59386  0.51776  1.0000
  C   C616      1.0  0.58466  0.95826  0.59701  1.0000
  C   C617      1.0  0.56870  0.90636  0.60176  1.0000
  C   C618      1.0  0.60019  0.88651  0.59530  1.0000
  C   C619      1.0  0.73631  0.93189  0.55352  1.0000
  C   C620      1.0  0.80662  0.78535  0.65034  1.0000
  C   C621      1.0  0.55518  0.60254  0.40955  1.0000
  C   C622      1.0  0.96412  0.68884  0.68337  1.0000
  C   C623      1.0  0.58015  0.53754  0.43460  1.0000
  C   C624      1.0  0.95995  0.50538  0.50688  1.0000
  H   H503      1.0  0.63316  0.63923  0.39577  1.0000
  C   C625      1.0  0.83191  0.82099  0.66901  1.0000
  H   H504      1.0  0.57322  0.49959  0.59696  1.0000
  C   C626      1.0  0.56241  0.97402  0.52782  1.0000
  C   C627      1.0  0.91248  0.52941  0.59071  1.0000
  C   C628      1.0  0.91186  0.97410  0.65831  1.0000
  H   H505      1.0  0.89952  0.90104  0.38590  1.0000
  C   C629      1.0  0.60463  0.60896  0.40724  1.0000
  H   H506      1.0  0.90244  0.70567  0.68563  1.0000
  C   C630      1.0  0.67269  0.62569  0.68979  1.0000
  H   H507      1.0  0.57449  0.53960  0.48627  1.0000
  H   H508      1.0  0.58336  0.50415  0.68510  1.0000
  H   H509      1.0  0.92835  0.56354  0.62592  1.0000
  H   H510      1.0  0.60025  0.93414  0.37165  1.0000
  C   C631      1.0  0.82006  0.51587  0.55229  1.0000
  C   C632      1.0  0.95627  0.51602  0.53094  1.0000
  C   C633      1.0  0.48391  0.75729  0.64518  1.0000
  C   C634      1.0  0.57304  0.49937  0.61622  1.0000
  C   C635      1.0  0.49923  0.60228  0.65088  1.0000
  C   C636      1.0  0.57894  0.50155  0.66588  1.0000
  H   H511      1.0  0.65529  0.58104  0.41775  1.0000
  C   C637      1.0  0.92078  0.52989  0.61525  1.0000
  P   P22       1.0  0.91791  0.90657  0.69103  1.0000
  H   H512      1.0  0.72487  0.98231  0.46419  1.0000
  C   C638      1.0  0.72898  0.97147  0.36978  1.0000
  C   C639      1.0  0.64742  0.98615  0.52011  1.0000
  C   C640      1.0  0.73341  0.98305  0.67498  1.0000
  C   C641      1.0  0.68634  0.98254  0.67472  1.0000
  H   H513      1.0  0.48026  0.55967  0.42622  1.0000
  H   H514      1.0  0.53841  0.98930  0.53364  1.0000
  C   C642      1.0  0.81560  0.99006  0.52069  1.0000
  C   C643      1.0  0.63229  0.99053  0.58590  1.0000
  Fe  Fe41      1.0  0.62447  0.88480  0.72085  1.0000
  S   S83       1.0  0.54681  0.81196  0.71319  1.0000
  C   C644      1.0  0.97225  0.74493  0.99450  1.0000
  Fe  Fe42      1.0  0.64786  0.83025  0.76147  1.0000
  S   S84       1.0  0.57171  0.75475  0.75632  1.0000
  S   S85       1.0  0.70892  0.83986  0.78890  1.0000
  Fe  Fe43      1.0  0.59046  0.76962  0.71753  1.0000
  C   C645      1.0  0.75598  0.55025  0.81650  1.0000
  Fe  Fe44      1.0  0.53561  0.80507  0.75267  1.0000
  C   C646      1.0  0.59734  0.61840  0.87959  1.0000
  S   S86       1.0  0.66865  0.84267  0.72253  1.0000
  S   S87       1.0  0.61111  0.88021  0.76056  1.0000
  Fe  Fe45      1.0  0.73897  0.63309  0.87281  1.0000
  S   S88       1.0  0.71992  0.54941  0.87372  1.0000
  S   S89       1.0  0.69619  0.64471  0.84185  1.0000
  Fe  Fe46      1.0  0.81177  0.66213  0.91663  1.0000
  S   S90       1.0  0.79658  0.58085  0.92006  1.0000
  S   S91       1.0  0.87492  0.72807  0.93940  1.0000
  Fe  Fe47      1.0  0.80618  0.58516  0.88040  1.0000
  S   S92       1.0  0.85776  0.56124  0.86199  1.0000
  Fe  Fe48      1.0  0.71171  0.55337  0.91316  1.0000
  S   S93       1.0  0.82547  0.66767  0.87703  1.0000
  S   S94       1.0  0.72620  0.63543  0.91229  1.0000
  C   C647      1.0  0.90319  0.71422  0.96405  1.0000
  C   C648      1.0  0.95028  0.75432  0.97419  1.0000
  H   H515      1.0  0.81023  0.84204  0.77909  1.0000
  H   H516      1.0  0.85436  0.50530  0.99090  1.0000
  H   H517      1.0  0.92975  0.67700  0.77740  1.0000
  C   C649      1.0  0.92443  0.61016  0.85853  1.0000
  C   C650      1.0  0.96239  0.60464  0.87060  1.0000
  H   H518      1.0  0.91154  0.65514  0.83236  1.0000
  H   H519      1.0  0.50734  0.75329  0.97046  1.0000
  C   C651      1.0  0.70610  0.78527  0.80304  1.0000
  C   C652      1.0  0.66460  0.73424  0.79890  1.0000
  C   C653      1.0  0.66271  0.69193  0.81083  1.0000
  C   C654      1.0  0.70225  0.69992  0.82700  1.0000
  C   C655      1.0  0.74454  0.75078  0.83075  1.0000
  C   C656      1.0  0.74612  0.79329  0.81901  1.0000
  H   H520      1.0  0.63359  0.72727  0.78669  1.0000
  H   H521      1.0  0.63006  0.65271  0.80764  1.0000
  H   H522      1.0  0.77575  0.75743  0.84280  1.0000
  H   H523      1.0  0.77843  0.83260  0.82237  1.0000
  C   C657      1.0  0.89860  0.86183  0.73636  1.0000
  H   H524      1.0  0.95749  0.56530  0.00917  1.0000
  C   C658      1.0  0.88724  0.76662  0.82919  1.0000
  C   C659      1.0  0.92138  0.76188  0.78360  1.0000
  H   H525      1.0  0.59770  0.65201  0.72625  1.0000
  C   C660      1.0  0.93599  0.63373  0.74861  1.0000
  H   H526      1.0  0.80885  0.77406  0.88760  1.0000
  C   C661      1.0  0.94043  0.65071  0.84195  1.0000
  H   H527      1.0  0.84090  0.49655  0.90279  1.0000
  C   C662      1.0  0.91229  0.60329  0.72826  1.0000
  C   C663      1.0  0.57603  0.53731  0.89881  1.0000
  C   C664      1.0  0.80041  0.69991  0.75158  1.0000
  C   C665      1.0  0.87271  0.84716  0.75815  1.0000
  C   C666      1.0  0.58065  0.56048  0.92104  1.0000
  C   C667      1.0  0.59368  0.61267  0.92258  1.0000
  C   C668      1.0  0.60112  0.64172  0.90182  1.0000
  P   P23       1.0  0.62379  0.71054  0.90407  1.0000
  C   C669      1.0  0.58726  0.72322  0.92565  1.0000
  C   C670      1.0  0.69191  0.74132  0.91222  1.0000
  C   C671      1.0  0.72835  0.74804  0.89490  1.0000
  C   C672      1.0  0.78101  0.76967  0.90101  1.0000
  C   C673      1.0  0.79742  0.78367  0.92462  1.0000
  C   C674      1.0  0.76110  0.77563  0.94215  1.0000
  C   C675      1.0  0.70841  0.75426  0.93603  1.0000
  H   H528      1.0  0.64675  0.53578  0.78980  1.0000
  C   C676      1.0  0.60764  0.77413  0.93465  1.0000
  C   C677      1.0  0.61458  0.73573  0.87645  1.0000
  C   C678      1.0  0.65304  0.78515  0.86815  1.0000
  C   C679      1.0  0.68779  0.55148  0.79359  1.0000
  C   C680      1.0  0.59841  0.77549  0.83413  1.0000
  C   C681      1.0  0.55946  0.72685  0.84254  1.0000
  C   C682      1.0  0.56724  0.70722  0.86374  1.0000
  H   H529      1.0  0.59939  0.63072  0.93996  1.0000
  H   H530      1.0  0.71554  0.73513  0.87682  1.0000
  H   H531      1.0  0.83805  0.79928  0.92946  1.0000
  H   H532      1.0  0.77378  0.78483  0.96055  1.0000
  H   H533      1.0  0.68065  0.74673  0.94997  1.0000
  C   C683      1.0  0.64504  0.62483  0.71007  1.0000
  C   C684      1.0  0.52957  0.74492  0.95795  1.0000
  H   H534      1.0  0.56742  0.49739  0.89768  1.0000
  C   C685      1.0  0.93751  0.80460  0.82205  1.0000
  H   H535      1.0  0.51968  0.64446  0.92501  1.0000
  H   H536      1.0  0.52337  0.70435  0.83248  1.0000
  H   H537      1.0  0.53654  0.66962  0.87011  1.0000
  H   H538      1.0  0.58337  0.54925  0.86089  1.0000
  H   H539      1.0  0.60615  0.64075  0.86335  1.0000
  H   H540      1.0  0.67526  0.84223  0.84028  1.0000
  C   C686      1.0  0.87869  0.66446  0.97422  1.0000
  H   H541      1.0  0.84220  0.63342  0.96683  1.0000
  C   C687      1.0  0.58459  0.56633  0.87811  1.0000
  C   C688      1.0  0.62011  0.65399  0.71082  1.0000
  C   C689      1.0  0.83736  0.61275  0.73400  1.0000
  C   C690      1.0  0.53708  0.68356  0.93242  1.0000
  C   C691      1.0  0.77885  0.61628  0.78625  1.0000
  H   H542      1.0  0.93478  0.76120  0.76581  1.0000
  H   H543      1.0  0.83733  0.69713  0.71895  1.0000
  H   H544      1.0  0.95042  0.57281  0.88293  1.0000
  C   C692      1.0  0.57902  0.78483  0.95088  1.0000
  C   C693      1.0  0.81292  0.87352  0.74441  1.0000
  S   S95       1.0  0.64056  0.95511  0.69818  1.0000
  S   S96       1.0  0.64755  0.49365  0.93772  1.0000
  H   H545      1.0  0.68938  0.80864  0.87782  1.0000
  C   C694      1.0  0.86283  0.59246  0.72108  1.0000
  H   H546      1.0  0.88547  0.83087  0.77194  1.0000
  C   C695      1.0  0.78603  0.72574  0.71274  1.0000
  C   C696      1.0  0.83027  0.85347  0.76223  1.0000
  H   H547      1.0  0.83463  0.60914  0.80816  1.0000
  H   H548      1.0  0.73229  0.75357  0.71151  1.0000
  H   H549      1.0  0.76815  0.53366  0.83040  1.0000
  H   H550      1.0  0.93263  0.58888  0.71781  1.0000
  C   C697      1.0  0.81085  0.70692  0.72714  1.0000
  C   C698      1.0  0.90026  0.65526  0.99463  1.0000
  H   H551      1.0  0.79881  0.60363  0.72825  1.0000
  H   H552      1.0  0.71681  0.74549  0.75488  1.0000
  C   C699      1.0  0.75225  0.73978  0.72272  1.0000
  C   C700      1.0  0.50854  0.69437  0.94866  1.0000
  C   C701      1.0  0.74306  0.73466  0.74717  1.0000
  C   C702      1.0  0.88155  0.54327  0.93324  1.0000
  H   H553      1.0  0.87377  0.76876  0.84677  1.0000
  H   H554      1.0  0.91417  0.58234  0.96673  1.0000
  C   C703      1.0  0.84350  0.49722  0.92198  1.0000
  H   H555      1.0  0.75949  0.71103  0.78055  1.0000
  C   C704      1.0  0.76735  0.71519  0.76162  1.0000
  C   C705      1.0  0.86195  0.64539  0.75385  1.0000
  C   C706      1.0  0.64495  0.80476  0.84704  1.0000
  C   C707      1.0  0.96212  0.74834  0.71249  1.0000
  H   H556      1.0  0.71288  0.60982  0.76661  1.0000
  C   C708      1.0  0.91075  0.65424  0.76153  1.0000
  C   C709      1.0  0.85155  0.50273  0.97165  1.0000
  C   C710      1.0  0.87160  0.72252  0.79092  1.0000
  P   P24       1.0  0.82867  0.67167  0.77026  1.0000
  H   H557      1.0  0.57611  0.53844  0.93707  1.0000
  H   H558      1.0  0.95802  0.72358  0.91212  1.0000
  H   H559      1.0  0.77946  0.87761  0.74763  1.0000
  C   C711      1.0  0.95453  0.80224  0.79923  1.0000
  C   C712      1.0  0.85420  0.72580  0.81366  1.0000
  H   H560      1.0  0.81511  0.69711  0.81943  1.0000
  H   H561      1.0  0.64254  0.60122  0.72516  1.0000
  H   H562      1.0  0.97450  0.64241  0.75414  1.0000
  C   C713      1.0  0.94688  0.69538  0.00496  1.0000
  H   H563      1.0  0.59507  0.82417  0.95784  1.0000
  H   H564      1.0  0.88019  0.61696  0.00268  1.0000
  H   H565      1.0  0.96320  0.83600  0.83414  1.0000
  C   C714      1.0  0.72559  0.59426  0.78073  1.0000
  C   C715      1.0  0.79376  0.59344  0.80396  1.0000
  H   H566      1.0  0.93153  0.85669  0.73375  1.0000
  H   H567      1.0  0.59286  0.79037  0.81747  1.0000
  H   H568      1.0  0.90673  0.57733  0.92261  1.0000
  H   H569      1.0  0.82464  0.90397  0.70906  1.0000
  C   C716      1.0  0.88544  0.54616  0.95805  1.0000
  H   H570      1.0  0.94271  0.76732  0.71982  1.0000
  C   C717      1.0  0.70295  0.52966  0.81156  1.0000
  H   H571      1.0  0.64558  0.80560  0.92900  1.0000
  H   H572      1.0  0.84471  0.56922  0.70520  1.0000
  C   C718      1.0  0.83862  0.88827  0.72260  1.0000
  C   C719      1.0  0.88222  0.88331  0.71852  1.0000
  H   H573      1.0  0.67362  0.49727  0.82184  1.0000
  H   H574      1.0  0.94950  0.74692  0.87080  1.0000
  H   H575      1.0  0.96953  0.79294  0.96645  1.0000
  C   C720      1.0  0.97306  0.56263  0.02619  1.0000
  H   H576      1.0  0.79177  0.72757  0.69372  1.0000
