data_image0
_chemical_formula_structural       FeS2FeS2FeSFeS3H2FeSC3PCHC2HCSH2C4HC6H3C6H5CHC2FeCH3C2H3CHSH3PH2C4H8CHC6PC3HC3HCHC6HCH3C2H3CHSH5C2HPHC6HCHSH2C3HC2H5C2H3C5HCSCH3CH2CHC5H2C3HC6H2C3SC4HCHCH2C3HC2FeH4CHCH3SFeS2C3H2FeS2FeS2FeSFeS3HC4H5CHC4H2C6H4C3HCHCH3C3H2C3HC10HCH2CPC2H6C3HC3H3C2HC2HCH2S2C2HC2H2C6PCHCHC5H8C2HC2HC2H4FeHCHC8PC3HC8HCH15C3HC2H3C6PC6HCHCH5SHC4H3C2H2PHCHC2HC5H2C3Fe2SHFeHFeS3CH2FeSC6H3SH4FeHSFeS2FeSCSHS2H4CHFeC2H2C3H3C6H3CSCPC6PC4HC16H4C2H12C3H2PCHCH4C3HSCHSHCHCHC2HC2HCHCSCHSC4H3CH2C2HC4PC15HC2H5C2H3CHPC3H3C2HC2SC2HCH2CSC2FeHCH2CHCHCH2C2HSHSCH2CHC3HC3H3CH3C2H2C5H3CH2CHC2SHFeS2FeS2FeSFeSH2C6H3CH4S2FeS2FeS2FeSCS2C6H2C2HCHCH6C6H2C4HC2HCH2CHC5HC5H3CHC2HSCHC4HC3HCHCHCHC2HCHC2HCHCHC2H3C2HC2HC2PC2H2C3HCH3C3H2CHC2H3CHC4HFeH2PCH3CPC2PC7HC3H2C2H3PHCHCHC2HC2HCH2CHCH6CH2C2HCHCFeCH5C3H2CH2CHC5SFe2CHFe2SHS2CS2FeS3HC5HC9H4CH2C2HCHC2H3CS2CFeC2SH2CHC4HCHC2H3CH3CHC2SCHCHC2HCH2C2HPC3SC3HC3SCH3CSHC2HCH2CHC3H2FeCFeHC3H5FeHCH3C5H2CH5CH5C2FeCHC3H2CH3CH2PC2HC2HC2HPCHC3H3C2H2CHC3HCHC2H2CHCSCHC2SCSCSH3SFe2S2FeSFeS2C6H6C2HC5H3CSH3CHSCHCHC7PC18H20CH2SHC2HCHC2HCH4CH2C3H3C2HC2H2FeHCH4FeH2C3H3C2HCPC2HCH3C3FeS2FeS2FeSFeS3CSFeSCHCSC2H2CFeHCH2CHC5H5CHCHCH2C2H3C2HC3H2CHCH2C6PC5H2C12H7C2H7CSH4C7PC3HC3H2CH2C3H6C2H2CH2C2H2C5H6CH3C7FeC2HC5PC4SC8HC2H2C2H7C2HPC2SC3HC3H2CH2CHSC5HCH2CHCH2C2HC4HC2H2C2H2CHC2HCHCHCHCH2CH3SC3FeH2C6SH4CFeS2FeS2FeSFeS3C6H5C5H2C6HCH4SHC4HC2HC2HC3HCHC3HCH2C2HCHCH3SHC3HCHPC7PHC3H4C3H7C2H3CHCSFeH2SHC2H2CH2C2HCHCHC2HCHC2H4C2HC9HCPC2H3CH3CSC5PCHC5HCHC2HCH2C2HC6HC9HCHC3PHCHCH3C4HC2H4C3HCHC2Fe2SCHCFeCS2H2CFeSCHC4H3C2H3FeSCFeS2FeS3HS2CHCH2C6PCH3C7H2CH2CHS2C4PC3H2C3H2C2HC4H3CHC2H4CHSHCHC7HC3HSFeHC4H3C2PH3CH2CH3C4HC3HCH3C4H2CSH4CHC2HC2HC2H2C2H2FeC2PC4H3C6HSH5CH3CHC2HC3SFeH2SHCH2C3FeH2CHCH3CHCH2FeSHFeS2FeS2FeSFeSH2C6H8S2FeS2FeS2FeSHS2C6H2C4HCH2CH2C7HPC10HC2H11CHC2HCHCH3C4H5C2H3CHC7HC2H2CHC2H2CH4SHCHCHC5HC2H4C2HC6HCHCH3SC2H4C2HC3FeC2H2CHC3HC2PC2PC3HCH2C2SC2FeCH2CHCHCHCH4CHC2HC2HSCFeC2FeCH2S2FeS2FeS3C4FeCH2C2H2C2HCH3CHCHCHC2HC2H3PCH9SC2HC3HC2HCHCHC7H2C2HCHC2SHCHC3HC7H3C2H2C2H3SHC2H6CHCHC4HC6PCFeC2HC2H5C3H5C2HCH2C4HC2HC7HSCH2CH3CH4CH2CHFeHSC3HC2FeH2PH2C3HC2PC2SHCHFeS3HCHSCFeS2FeSCS2C6H6C6H2PHC2H5FeCHC2H3C2H3C5SH4C3HC9HCH3C2H3C4HC2HC3H7CH4PCHCH2C3H2C8PC18H22C4HC3H2CSFeC4SH2C2H3CHPCHC3HCHCHCHFeH2
_chemical_formula_sum              "Fe96 S192 H1152 C1440 P48"
_cell_length_a       43.224
_cell_length_b       43.3216
_cell_length_c       37.3217
_cell_angle_alpha    90.0244
_cell_angle_beta     90.0301
_cell_angle_gamma    119.873

_space_group_name_H-M_alt    "P 1"
_space_group_IT_number       1

loop_
  _space_group_symop_operation_xyz
  'x, y, z'

loop_
  _atom_site_type_symbol
  _atom_site_label
  _atom_site_symmetry_multiplicity
  _atom_site_fract_x
  _atom_site_fract_y
  _atom_site_fract_z
  _atom_site_occupancy
  Fe  Fe1       1.0  0.40155  0.12145  0.30544  1.0000
  S   S1        1.0  0.38097  0.15944  0.31477  1.0000
  S   S2        1.0  0.43998  0.13516  0.25709  1.0000
  Fe  Fe2       1.0  0.37005  0.08324  0.37931  1.0000
  S   S3        1.0  0.34835  0.11925  0.39136  1.0000
  S   S4        1.0  0.35390  0.03675  0.41892  1.0000
  Fe  Fe3       1.0  0.33095  0.11150  0.33411  1.0000
  S   S5        1.0  0.27721  0.10668  0.32512  1.0000
  Fe  Fe4       1.0  0.40042  0.16348  0.37098  1.0000
  S   S6        1.0  0.42442  0.21450  0.40291  1.0000
  S   S7        1.0  0.34962  0.07263  0.32184  1.0000
  S   S8        1.0  0.42409  0.12824  0.36194  1.0000
  H   H1        1.0  0.41854  0.04956  0.33368  1.0000
  H   H2        1.0  0.27158  0.26869  0.44929  1.0000
  Fe  Fe5       1.0  0.00259  0.15777  0.00846  1.0000
  S   S9        1.0  0.02426  0.21641  0.99977  1.0000
  C   C1        1.0  0.18084  0.00038  0.29275  1.0000
  C   C2        1.0  0.07392  0.04632  0.45250  1.0000
  C   C3        1.0  0.35291  0.03458  0.46704  1.0000
  P   P1        1.0  0.33203  0.26153  0.47299  1.0000
  C   C4        1.0  0.19795  0.29763  0.99773  1.0000
  H   H3        1.0  0.35907  0.05735  0.98879  1.0000
  C   C5        1.0  0.33122  0.02216  0.07218  1.0000
  C   C6        1.0  0.16460  0.26659  0.00105  1.0000
  H   H4        1.0  0.01822  0.02208  0.28977  1.0000
  C   C7        1.0  0.17607  0.02700  0.30849  1.0000
  S   S10       1.0  0.05226  0.00584  0.39001  1.0000
  H   H5        1.0  0.02408  0.11128  0.06711  1.0000
  H   H6        1.0  0.30048  0.15081  0.46266  1.0000
  C   C8        1.0  0.13317  0.10671  0.98148  1.0000
  C   C9        1.0  0.36144  0.30268  0.45026  1.0000
  C   C10       1.0  0.06144  0.01222  0.43739  1.0000
  C   C11       1.0  0.00602  0.06274  0.09688  1.0000
  H   H7        1.0  0.32413  0.99867  0.08808  1.0000
  C   C12       1.0  0.44311  0.13241  0.20925  1.0000
  C   C13       1.0  0.41463  0.10813  0.18793  1.0000
  C   C14       1.0  0.41958  0.10524  0.15079  1.0000
  C   C15       1.0  0.16276  0.23539  0.01376  1.0000
  C   C16       1.0  0.20590  0.05949  0.31847  1.0000
  C   C17       1.0  0.02946  0.07196  0.03655  1.0000
  H   H8        1.0  0.38903  0.09083  0.20017  1.0000
  H   H9        1.0  0.39750  0.08580  0.13490  1.0000
  H   H10       1.0  0.20211  0.08038  0.32975  1.0000
  C   C18       1.0  0.46164  0.28673  0.39469  1.0000
  C   C19       1.0  0.45591  0.25397  0.38153  1.0000
  C   C20       1.0  0.99383  0.14484  0.12669  1.0000
  C   C21       1.0  0.46561  0.31105  0.16846  1.0000
  C   C22       1.0  0.03586  0.27014  0.20847  1.0000
  C   C23       1.0  0.99939  0.03591  0.20593  1.0000
  H   H11       1.0  0.04006  0.08905  0.01338  1.0000
  H   H12       1.0  0.98843  0.01067  0.11908  1.0000
  H   H13       1.0  0.01482  0.15314  0.18067  1.0000
  H   H14       1.0  0.27360  0.02753  0.37899  1.0000
  H   H15       1.0  0.44589  0.28735  0.41690  1.0000
  C   C24       1.0  0.24053  0.06510  0.31370  1.0000
  H   H16       1.0  0.40644  0.99490  0.05543  1.0000
  C   C25       1.0  0.21547  0.00594  0.28814  1.0000
  C   C26       1.0  0.41443  0.03743  0.99544  1.0000
  Fe  Fe6       1.0  0.07347  0.21748  0.97885  1.0000
  C   C27       1.0  0.24528  0.03806  0.29903  1.0000
  H   H17       1.0  0.23353  0.06436  0.39290  1.0000
  H   H18       1.0  0.27186  0.04222  0.29515  1.0000
  H   H19       1.0  0.99870  0.07256  0.12019  1.0000
  C   C28       1.0  0.47307  0.01505  0.34725  1.0000
  C   C29       1.0  0.22751  0.26652  0.02051  1.0000
  H   H20       1.0  0.43331  0.28045  0.12414  1.0000
  H   H21       1.0  0.45090  0.13114  0.43952  1.0000
  H   H22       1.0  0.36610  0.28046  0.17984  1.0000
  C   C30       1.0  0.32236  0.27888  0.15135  1.0000
  H   H23       1.0  0.43202  0.07441  0.40720  1.0000
  S   S11       1.0  0.45779  0.12059  0.08731  1.0000
  H   H24       1.0  0.41381  0.18097  0.02454  1.0000
  H   H25       1.0  0.15479  0.12542  0.99843  1.0000
  H   H26       1.0  0.05495  0.28378  0.15477  1.0000
  P   P2        1.0  0.34471  0.98785  0.01582  1.0000
  H   H27       1.0  0.43995  0.02715  0.43513  1.0000
  H   H28       1.0  0.35626  0.10742  0.01715  1.0000
  C   C31       1.0  0.02232  0.27871  0.23846  1.0000
  C   C32       1.0  0.44575  0.04204  0.24020  1.0000
  C   C33       1.0  0.99714  0.05566  0.46054  1.0000
  C   C34       1.0  0.23845  0.98715  0.45878  1.0000
  H   H29       1.0  0.27813  0.27137  0.11826  1.0000
  H   H30       1.0  0.19262  0.21137  0.03395  1.0000
  H   H31       1.0  0.07415  0.27824  0.04720  1.0000
  H   H32       1.0  0.39440  0.22605  0.02432  1.0000
  H   H33       1.0  0.42062  0.04165  0.23701  1.0000
  H   H34       1.0  0.45703  0.05677  0.06612  1.0000
  H   H35       1.0  0.02543  0.04964  0.21852  1.0000
  H   H36       1.0  0.33818  0.28484  0.39744  1.0000
  C   C35       1.0  0.00028  0.02801  0.09625  1.0000
  H   H37       1.0  0.44696  0.28915  0.25647  1.0000
  C   C36       1.0  0.40484  0.17065  0.08115  1.0000
  C   C37       1.0  0.40475  0.18724  0.04914  1.0000
  C   C38       1.0  0.39384  0.21261  0.04902  1.0000
  C   C39       1.0  0.38392  0.22211  0.08101  1.0000
  C   C40       1.0  0.38324  0.20508  0.11332  1.0000
  C   C41       1.0  0.39398  0.17931  0.11307  1.0000
  P   P3        1.0  0.37116  0.21830  0.15475  1.0000
  C   C42       1.0  0.41084  0.25427  0.17473  1.0000
  C   C43       1.0  0.34087  0.23457  0.14446  1.0000
  C   C44       1.0  0.34206  0.02431  0.03634  1.0000
  H   H38       1.0  0.13715  0.21140  0.01645  1.0000
  C   C45       1.0  0.99505  0.04672  0.42434  1.0000
  C   C46       1.0  0.29067  0.22964  0.11032  1.0000
  C   C47       1.0  0.31320  0.21637  0.11957  1.0000
  H   H39       1.0  0.47212  0.22811  0.34260  1.0000
  C   C48       1.0  0.41483  0.25725  0.21218  1.0000
  H   H40       1.0  0.05556  0.11775  0.46985  1.0000
  C   C49       1.0  0.34994  0.18085  0.18524  1.0000
  C   C50       1.0  0.31324  0.16466  0.19278  1.0000
  C   C51       1.0  0.29731  0.13610  0.21679  1.0000
  C   C52       1.0  0.31771  0.12327  0.23320  1.0000
  C   C53       1.0  0.35413  0.13912  0.22583  1.0000
  C   C54       1.0  0.37029  0.16805  0.20239  1.0000
  H   H41       1.0  0.41353  0.15113  0.08123  1.0000
  C   C55       1.0  0.42709  0.03105  0.34223  1.0000
  H   H42       1.0  0.99511  0.08315  0.20056  1.0000
  H   H43       1.0  0.37737  0.24322  0.08037  1.0000
  H   H44       1.0  0.39452  0.16599  0.13726  1.0000
  C   C56       1.0  0.18792  0.05940  0.42128  1.0000
  C   C57       1.0  0.34913  0.08355  0.03245  1.0000
  H   H45       1.0  0.45759  0.04199  0.13005  1.0000
  H   H46       1.0  0.26997  0.21614  0.09034  1.0000
  H   H47       1.0  0.30939  0.19225  0.10685  1.0000
  C   C58       1.0  0.19417  0.23543  0.02361  1.0000
  H   H48       1.0  0.36382  0.18398  0.44585  1.0000
  S   S12       1.0  0.12594  0.26790  0.98882  1.0000
  H   H49       1.0  0.29679  0.17411  0.18066  1.0000
  H   H50       1.0  0.26915  0.12402  0.22308  1.0000
  H   H51       1.0  0.30532  0.10135  0.25203  1.0000
  H   H52       1.0  0.37000  0.12933  0.23878  1.0000
  H   H53       1.0  0.39873  0.18048  0.19790  1.0000
  C   C59       1.0  0.46218  0.03899  0.33641  1.0000
  C   C60       1.0  0.22349  0.06778  0.41834  1.0000
  H   H54       1.0  0.14711  0.05649  0.45646  1.0000
  P   P4        1.0  0.03333  0.02058  0.99520  1.0000
  H   H55       1.0  0.07900  0.06831  0.43508  1.0000
  C   C61       1.0  0.25549  0.17145  0.42257  1.0000
  C   C62       1.0  0.27492  0.16605  0.39587  1.0000
  C   C63       1.0  0.31155  0.18953  0.39252  1.0000
  C   C64       1.0  0.32873  0.21875  0.41562  1.0000
  C   C65       1.0  0.30921  0.22495  0.44195  1.0000
  C   C66       1.0  0.27257  0.20062  0.44571  1.0000
  H   H56       1.0  0.33718  0.10320  0.08050  1.0000
  C   C67       1.0  0.45284  0.12682  0.13411  1.0000
  H   H57       1.0  0.14943  0.02289  0.31208  1.0000
  S   S13       1.0  0.26609  0.26570  0.03420  1.0000
  H   H58       1.0  0.27327  0.08583  0.44532  1.0000
  H   H59       1.0  0.01988  0.15801  0.11425  1.0000
  C   C68       1.0  0.98649  0.04785  0.29110  1.0000
  C   C69       1.0  0.22938  0.29753  0.00713  1.0000
  C   C70       1.0  0.47266  0.27974  0.04439  1.0000
  H   H60       1.0  0.01529  0.26232  0.26230  1.0000
  C   C71       1.0  0.44408  0.07867  0.43348  1.0000
  C   C72       1.0  0.29528  0.26089  0.12611  1.0000
  H   H61       1.0  0.47897  0.98675  0.25544  1.0000
  H   H62       1.0  0.22720  0.15274  0.42541  1.0000
  H   H63       1.0  0.26163  0.14338  0.37802  1.0000
  H   H64       1.0  0.32665  0.18477  0.37218  1.0000
  H   H65       1.0  0.35733  0.23623  0.41310  1.0000
  C   C73       1.0  0.32953  0.05056  0.08799  1.0000
  C   C74       1.0  0.24606  0.08027  0.44817  1.0000
  H   H66       1.0  0.41490  0.05342  0.01799  1.0000
  H   H67       1.0  0.02095  0.26853  0.33250  1.0000
  H   H68       1.0  0.00635  0.07176  0.27773  1.0000
  C   C75       1.0  0.04457  0.29109  0.17756  1.0000
  C   C76       1.0  0.45662  0.29637  0.02601  1.0000
  C   C77       1.0  0.44833  0.05186  0.44936  1.0000
  C   C78       1.0  0.34510  0.26582  0.16053  1.0000
  C   C79       1.0  0.38376  0.00476  0.98753  1.0000
  H   H69       1.0  0.10015  0.07693  0.02582  1.0000
  C   C80       1.0  0.99084  0.14203  0.16454  1.0000
  S   S14       1.0  0.05375  0.15964  0.99067  1.0000
  C   C81       1.0  0.40295  0.99934  0.35931  1.0000
  H   H70       1.0  0.28664  0.03513  0.44408  1.0000
  H   H71       1.0  0.29121  0.00217  0.98198  1.0000
  H   H72       1.0  0.32612  0.30329  0.16336  1.0000
  C   C82       1.0  0.33847  0.08123  0.06816  1.0000
  H   H73       1.0  0.25711  0.20380  0.46664  1.0000
  H   H74       1.0  0.39493  0.23732  0.22967  1.0000
  C   C83       1.0  0.17487  0.06349  0.45412  1.0000
  H   H75       1.0  0.17037  0.04938  0.39816  1.0000
  C   C84       1.0  0.47637  0.25332  0.35279  1.0000
  C   C85       1.0  0.44616  0.01045  0.24644  1.0000
  C   C86       1.0  0.99665  0.30151  0.33381  1.0000
  C   C87       1.0  0.02407  0.03722  0.03580  1.0000
  C   C88       1.0  0.00869  0.01509  0.06562  1.0000
  H   H76       1.0  0.03593  0.29130  0.08659  1.0000
  H   H77       1.0  0.32141  0.04885  0.11573  1.0000
  C   C89       1.0  0.45465  0.11057  0.45177  1.0000
  C   C90       1.0  0.02045  0.08464  0.06696  1.0000
  C   C91       1.0  0.25515  0.00786  0.39778  1.0000
  H   H78       1.0  0.37616  0.99433  0.36364  1.0000
  C   C92       1.0  0.43638  0.28150  0.15300  1.0000
  C   C93       1.0  0.35081  0.05517  0.01652  1.0000
  C   C94       1.0  0.44417  0.28680  0.22754  1.0000
  C   C95       1.0  0.35813  0.30657  0.41330  1.0000
  C   C96       1.0  0.26238  0.01224  0.43450  1.0000
  C   C97       1.0  0.99607  0.26879  0.33318  1.0000
  H   H79       1.0  0.00537  0.02989  0.41514  1.0000
  H   H80       1.0  0.03936  0.24704  0.20920  1.0000
  C   C98       1.0  0.10211  0.07928  0.99691  1.0000
  C   C99       1.0  0.98236  0.05474  0.19575  1.0000
  C   C100      1.0  0.99310  0.01990  0.29778  1.0000
  S   S15       1.0  0.35632  0.31165  0.98466  1.0000
  C   C101      1.0  0.08593  0.30179  0.06402  1.0000
  C   C102      1.0  0.35571  0.16725  0.46938  1.0000
  C   C103      1.0  0.98421  0.07784  0.47249  1.0000
  C   C104      1.0  0.98279  0.99929  0.19992  1.0000
  H   H81       1.0  0.00221  0.98758  0.06499  1.0000
  C   C105      1.0  0.47569  0.03992  0.11137  1.0000
  H   H82       1.0  0.40689  0.27813  0.47426  1.0000
  C   C106      1.0  0.45750  0.29747  0.98860  1.0000
  H   H83       1.0  0.46343  0.21300  0.19963  1.0000
  H   H84       1.0  0.06412  0.99975  0.05442  1.0000
  C   C107      1.0  0.46945  0.31376  0.20574  1.0000
  C   C108      1.0  0.47524  0.04810  0.07526  1.0000
  C   C109      1.0  0.47783  0.07433  0.23802  1.0000
  H   H85       1.0  0.47187  0.27871  0.07333  1.0000
  C   C110      1.0  0.06447  0.30940  0.08619  1.0000
  C   C111      1.0  0.47866  0.01124  0.25055  1.0000
  Fe  Fe7       1.0  0.32055  0.31412  0.02652  1.0000
  H   H86       1.0  0.98174  0.20543  0.16325  1.0000
  H   H87       1.0  0.46878  0.07472  0.98062  1.0000
  H   H88       1.0  0.00824  0.31566  0.26129  1.0000
  H   H89       1.0  0.11819  0.16349  0.47675  1.0000
  C   C112      1.0  0.47629  0.15409  0.19247  1.0000
  H   H90       1.0  0.46890  0.21896  0.13339  1.0000
  C   C113      1.0  0.01818  0.30865  0.23784  1.0000
  H   H91       1.0  0.47710  0.09845  0.23292  1.0000
  H   H92       1.0  0.38561  0.09078  0.47640  1.0000
  H   H93       1.0  0.13940  0.31832  0.04648  1.0000
  S   S16       1.0  0.43682  0.31637  0.05092  1.0000
  Fe  Fe8       1.0  0.03164  0.14992  0.93381  1.0000
  S   S17       1.0  0.05481  0.20772  0.92182  1.0000
  S   S18       1.0  0.04012  0.11353  0.89451  1.0000
  C   C114      1.0  0.33470  0.99775  0.52167  1.0000
  C   C115      1.0  0.28966  0.15403  0.82148  1.0000
  C   C116      1.0  0.35800  0.21458  0.55371  1.0000
  H   H94       1.0  0.47055  0.15312  0.74627  1.0000
  H   H95       1.0  0.31073  0.21358  0.53466  1.0000
  Fe  Fe9       1.0  0.09729  0.10399  0.68100  1.0000
  S   S19       1.0  0.15624  0.14289  0.68020  1.0000
  S   S20       1.0  0.06449  0.11417  0.72395  1.0000
  Fe  Fe10      1.0  0.10116  0.07304  0.60484  1.0000
  S   S21       1.0  0.15991  0.11123  0.60078  1.0000
  S   S22       1.0  0.07576  0.02898  0.56121  1.0000
  Fe  Fe11      1.0  0.16230  0.09784  0.65838  1.0000
  S   S23       1.0  0.21057  0.09417  0.67533  1.0000
  Fe  Fe12      1.0  0.14851  0.15268  0.62308  1.0000
  S   S24       1.0  0.17146  0.20826  0.60008  1.0000
  S   S25       1.0  0.10386  0.05747  0.66266  1.0000
  S   S26       1.0  0.08908  0.11570  0.62353  1.0000
  H   H96       1.0  0.98719  0.20296  0.83688  1.0000
  C   C117      1.0  0.25012  0.27347  0.66852  1.0000
  C   C118      1.0  0.22346  0.24269  0.65156  1.0000
  C   C119      1.0  0.20184  0.24550  0.62542  1.0000
  C   C120      1.0  0.20606  0.27908  0.61748  1.0000
  H   H97       1.0  0.01505  0.06474  0.95098  1.0000
  H   H98       1.0  0.26738  0.27125  0.68806  1.0000
  H   H99       1.0  0.22031  0.21695  0.65806  1.0000
  H   H100      1.0  0.18918  0.28136  0.59749  1.0000
  H   H101      1.0  0.29178  0.05203  0.52085  1.0000
  C   C121      1.0  0.07364  0.05547  0.97513  1.0000
  H   H102      1.0  0.39067  0.14191  0.53713  1.0000
  C   C122      1.0  0.17457  0.02049  0.67628  1.0000
  C   C123      1.0  0.20751  0.05206  0.67571  1.0000
  C   C124      1.0  0.23903  0.05033  0.67561  1.0000
  C   C125      1.0  0.33477  0.12447  0.53051  1.0000
  H   H103      1.0  0.24431  0.11767  0.74409  1.0000
  H   H104      1.0  0.15011  0.02157  0.67656  1.0000
  C   C126      1.0  0.06016  0.11499  0.77177  1.0000
  C   C127      1.0  0.06416  0.09157  0.79465  1.0000
  C   C128      1.0  0.05775  0.09144  0.83189  1.0000
  C   C129      1.0  0.04812  0.11525  0.84716  1.0000
  C   C130      1.0  0.04516  0.13937  0.82443  1.0000
  C   C131      1.0  0.05061  0.13885  0.78707  1.0000
  H   H105      1.0  0.07106  0.07274  0.78349  1.0000
  H   H106      1.0  0.05986  0.07240  0.84892  1.0000
  H   H107      1.0  0.03844  0.15831  0.83557  1.0000
  H   H108      1.0  0.04749  0.15724  0.76993  1.0000
  C   C132      1.0  0.25221  0.16652  0.76764  1.0000
  C   C133      1.0  0.23773  0.01728  0.67531  1.0000
  C   C134      1.0  0.30881  0.12566  0.50876  1.0000
  H   H109      1.0  0.46985  0.03774  0.93065  1.0000
  C   C135      1.0  0.25602  0.13633  0.76614  1.0000
  H   H110      1.0  0.30416  0.14915  0.84231  1.0000
  C   C136      1.0  0.25237  0.28449  0.53325  1.0000
  H   H111      1.0  0.39490  0.00489  0.71281  1.0000
  H   H112      1.0  0.44003  0.26049  0.51512  1.0000
  H   H113      1.0  0.05606  0.03999  0.92031  1.0000
  C   C137      1.0  0.26141  0.01192  0.55981  1.0000
  C   C138      1.0  0.45089  0.07581  0.85897  1.0000
  C   C139      1.0  0.07177  0.02397  0.51324  1.0000
  H   H114      1.0  0.00974  0.04602  0.47905  1.0000
  H   H115      1.0  0.08874  0.07857  0.50088  1.0000
  C   C140      1.0  0.37261  0.06132  0.52634  1.0000
  C   C141      1.0  0.35434  0.02779  0.54313  1.0000
  C   C142      1.0  0.44874  0.99451  0.61240  1.0000
  H   H116      1.0  0.38810  0.08474  0.54256  1.0000
  C   C143      1.0  0.14603  0.21195  0.91634  1.0000
  C   C144      1.0  0.13136  0.18543  0.89020  1.0000
  C   C145      1.0  0.13262  0.19474  0.85422  1.0000
  C   C146      1.0  0.14803  0.23051  0.84430  1.0000
  C   C147      1.0  0.16271  0.25739  0.87048  1.0000
  C   C148      1.0  0.16189  0.24777  0.90651  1.0000
  C   C149      1.0  0.30104  0.27056  0.49698  1.0000
  C   C150      1.0  0.44577  0.02887  0.94616  1.0000
  C   C151      1.0  0.45973  0.11723  0.59049  1.0000
  C   C152      1.0  0.47576  0.28330  0.96975  1.0000
  H   H117      1.0  0.06929  0.28819  0.91799  1.0000
  C   C153      1.0  0.31975  0.14821  0.47889  1.0000
  H   H118      1.0  0.34867  0.27729  0.69937  1.0000
  H   H119      1.0  0.23325  0.28927  0.54735  1.0000
  C   C154      1.0  0.33639  0.28357  0.72134  1.0000
  P   P5        1.0  0.99271  0.09351  0.51814  1.0000
  C   C155      1.0  0.07737  0.05842  0.93772  1.0000
  C   C156      1.0  0.33400  0.00114  0.48406  1.0000
  H   H120      1.0  0.19086  0.00518  0.60631  1.0000
  H   H121      1.0  0.14435  0.20473  0.94434  1.0000
  H   H122      1.0  0.11819  0.15763  0.89787  1.0000
  H   H123      1.0  0.12060  0.17406  0.83411  1.0000
  H   H124      1.0  0.14773  0.23677  0.81633  1.0000
  H   H125      1.0  0.17243  0.26797  0.92716  1.0000
  C   C157      1.0  0.41539  0.99662  0.93785  1.0000
  C   C158      1.0  0.46343  0.05697  0.48348  1.0000
  C   C159      1.0  0.00501  0.05149  0.56676  1.0000
  H   H126      1.0  0.15588  0.29999  0.72883  1.0000
  C   C160      1.0  0.13627  0.11011  0.94422  1.0000
  C   C161      1.0  0.33906  0.22457  0.53061  1.0000
  C   C162      1.0  0.35665  0.24867  0.50263  1.0000
  H   H127      1.0  0.47779  0.14063  0.49972  1.0000
  H   H128      1.0  0.43888  0.08960  0.59071  1.0000
  H   H129      1.0  0.22577  0.19155  0.53745  1.0000
  C   C163      1.0  0.39453  0.22800  0.54854  1.0000
  C   C164      1.0  0.38120  0.16443  0.48986  1.0000
  H   H130      1.0  0.02092  0.12632  0.66641  1.0000
  C   C165      1.0  0.24109  0.15146  0.52986  1.0000
  C   C166      1.0  0.24958  0.27919  0.49620  1.0000
  H   H131      1.0  0.24412  0.99107  0.48712  1.0000
  C   C167      1.0  0.27465  0.13003  0.79305  1.0000
  H   H132      1.0  0.29769  0.20247  0.84541  1.0000
  H   H133      1.0  0.32609  0.27781  0.54917  1.0000
  S   S27       1.0  0.98480  0.23496  0.91334  1.0000
  S   S28       1.0  0.30702  0.98817  0.68196  1.0000
  C   C168      1.0  0.42566  0.04615  0.83987  1.0000
  C   C169      1.0  0.39306  0.26103  0.49680  1.0000
  H   H134      1.0  0.26213  0.01638  0.67411  1.0000
  C   C170      1.0  0.30450  0.27734  0.53405  1.0000
  C   C171      1.0  0.08935  0.30258  0.89765  1.0000
  H   H135      1.0  0.13906  0.19924  0.53243  1.0000
  H   H136      1.0  0.03359  0.14111  0.57642  1.0000
  C   C172      1.0  0.35242  0.07683  0.73249  1.0000
  C   C173      1.0  0.34630  0.07679  0.69575  1.0000
  C   C174      1.0  0.37001  0.07533  0.67131  1.0000
  C   C175      1.0  0.39980  0.07378  0.68354  1.0000
  C   C176      1.0  0.40653  0.07452  0.72042  1.0000
  C   C177      1.0  0.38259  0.07607  0.74486  1.0000
  P   P6        1.0  0.44781  0.07790  0.73534  1.0000
  C   C178      1.0  0.45137  0.03963  0.72272  1.0000
  H   H137      1.0  0.11908  0.27669  0.91031  1.0000
  C   C179      1.0  0.21321  0.01579  0.58807  1.0000
  H   H138      1.0  0.99912  0.16013  0.49308  1.0000
  C   C180      1.0  0.42104  0.00720  0.71379  1.0000
  C   C181      1.0  0.44959  0.07785  0.78378  1.0000
  C   C182      1.0  0.42499  0.04715  0.80246  1.0000
  C   C183      1.0  0.25473  0.30710  0.66016  1.0000
  C   C184      1.0  0.99533  0.01018  0.96719  1.0000
  H   H139      1.0  0.42471  0.03746  0.55232  1.0000
  H   H140      1.0  0.27662  0.99840  0.55661  1.0000
  H   H141      1.0  0.33361  0.07720  0.75141  1.0000
  H   H142      1.0  0.32272  0.07694  0.68617  1.0000
  H   H143      1.0  0.36474  0.07454  0.64287  1.0000
  H   H144      1.0  0.41768  0.07219  0.66422  1.0000
  H   H145      1.0  0.38700  0.07676  0.77343  1.0000
  H   H146      1.0  0.03299  0.07152  0.56607  1.0000
  C   C185      1.0  0.45482  0.14167  0.61067  1.0000
  C   C186      1.0  0.09959  0.15867  0.49834  1.0000
  H   H147      1.0  0.40526  0.02384  0.78807  1.0000
  C   C187      1.0  0.03955  0.12576  0.52276  1.0000
  C   C188      1.0  0.37081  0.14350  0.52079  1.0000
  H   H148      1.0  0.98614  0.05655  0.75154  1.0000
  C   C189      1.0  0.16601  0.30079  0.78553  1.0000
  C   C190      1.0  0.99342  0.03756  0.94908  1.0000
  H   H149      1.0  0.13399  0.00810  0.50562  1.0000
  H   H150      1.0  0.26450  0.07465  0.67501  1.0000
  H   H151      1.0  0.27734  0.10647  0.79181  1.0000
  H   H152      1.0  0.40914  0.21999  0.56623  1.0000
  Fe  Fe13      1.0  0.00401  0.20234  0.94356  1.0000
  H   H153      1.0  0.18655  0.07825  0.50948  1.0000
  C   C191      1.0  0.47910  0.05586  0.56930  1.0000
  H   H154      1.0  0.34421  0.19607  0.57535  1.0000
  C   C192      1.0  0.44212  0.03217  0.56886  1.0000
  C   C193      1.0  0.23226  0.30981  0.63499  1.0000
  C   C194      1.0  0.18063  0.22864  0.73993  1.0000
  C   C195      1.0  0.15159  0.19518  0.74762  1.0000
  C   C196      1.0  0.15564  0.17257  0.77140  1.0000
  C   C197      1.0  0.18848  0.18350  0.78792  1.0000
  C   C198      1.0  0.21794  0.21701  0.78018  1.0000
  C   C199      1.0  0.21364  0.23968  0.75627  1.0000
  P   P7        1.0  0.26124  0.22924  0.79871  1.0000
  C   C200      1.0  0.26476  0.24315  0.84503  1.0000
  C   C201      1.0  0.26685  0.19059  0.79638  1.0000
  C   C202      1.0  0.10845  0.08587  0.92237  1.0000
  H   H155      1.0  0.09686  0.18774  0.58226  1.0000
  C   C203      1.0  0.05173  0.14583  0.55439  1.0000
  C   C204      1.0  0.29800  0.26845  0.85926  1.0000
  C   C205      1.0  0.30137  0.27746  0.89560  1.0000
  C   C206      1.0  0.27181  0.26086  0.91827  1.0000
  C   C207      1.0  0.23872  0.23555  0.90444  1.0000
  C   C208      1.0  0.23507  0.22682  0.86795  1.0000
  C   C209      1.0  0.29517  0.26438  0.77163  1.0000
  C   C210      1.0  0.11749  0.29578  0.89292  1.0000
  H   H156      1.0  0.01368  0.01920  0.60487  1.0000
  C   C211      1.0  0.31184  0.25646  0.74362  1.0000
  H   H157      1.0  0.13797  0.28832  0.79239  1.0000
  H   H158      1.0  0.24142  0.29966  0.88114  1.0000
  H   H159      1.0  0.17785  0.24558  0.72037  1.0000
  H   H160      1.0  0.12620  0.18628  0.73433  1.0000
  H   H161      1.0  0.13347  0.14615  0.77631  1.0000
  H   H162      1.0  0.19112  0.16523  0.80576  1.0000
  H   H163      1.0  0.23579  0.26539  0.74912  1.0000
  H   H164      1.0  0.16021  0.13150  0.93228  1.0000
  H   H165      1.0  0.23777  0.17090  0.74631  1.0000
  H   H166      1.0  0.32160  0.28094  0.84256  1.0000
  H   H167      1.0  0.99714  0.12068  0.72740  1.0000
  H   H168      1.0  0.27452  0.26766  0.94656  1.0000
  H   H169      1.0  0.21595  0.22269  0.92220  1.0000
  H   H170      1.0  0.20922  0.20701  0.85795  1.0000
  H   H171      1.0  0.23504  0.14873  0.50157  1.0000
  C   C212      1.0  0.41195  0.25091  0.51986  1.0000
  C   C213      1.0  0.23290  0.99848  0.58381  1.0000
  C   C214      1.0  0.27399  0.27256  0.47806  1.0000
  H   H172      1.0  0.30554  0.22941  0.73835  1.0000
  C   C215      1.0  0.08746  0.17237  0.55773  1.0000
  C   C216      1.0  0.27994  0.28382  0.55214  1.0000
  H   H173      1.0  0.45173  0.07508  0.88795  1.0000
  H   H174      1.0  0.20636  0.05960  0.57281  1.0000
  H   H175      1.0  0.32730  0.10873  0.55480  1.0000
  C   C217      1.0  0.23617  0.17599  0.54994  1.0000
  C   C218      1.0  0.24388  0.17997  0.58656  1.0000
  C   C219      1.0  0.25633  0.15932  0.60318  1.0000
  C   C220      1.0  0.26128  0.13480  0.58319  1.0000
  C   C221      1.0  0.25325  0.13036  0.54643  1.0000
  C   C222      1.0  0.11135  0.17879  0.52971  1.0000
  P   P8        1.0  0.26206  0.10054  0.52015  1.0000
  C   C223      1.0  0.28585  0.18425  0.82316  1.0000
  C   C224      1.0  0.99415  0.02167  0.58872  1.0000
  C   C225      1.0  0.19202  0.31053  0.81244  1.0000
  C   C226      1.0  0.07943  0.05227  0.48995  1.0000
  C   C227      1.0  0.25114  0.06082  0.54520  1.0000
  C   C228      1.0  0.22217  0.04677  0.56894  1.0000
  H   H176      1.0  0.40900  0.17894  0.48187  1.0000
  C   C229      1.0  0.06382  0.13239  0.49472  1.0000
  H   H177      1.0  0.28214  0.28836  0.58089  1.0000
  C   C230      1.0  0.27020  0.04267  0.54006  1.0000
  H   H178      1.0  0.40677  0.02217  0.85393  1.0000
  H   H179      1.0  0.23917  0.19831  0.60221  1.0000
  H   H180      1.0  0.26109  0.16151  0.63185  1.0000
  H   H181      1.0  0.27070  0.11886  0.59665  1.0000
  H   H182      1.0  0.11071  0.08853  0.89348  1.0000
  S   S29       1.0  0.35798  0.02478  0.59063  1.0000
  H   H183      1.0  0.32707  0.29725  0.90627  1.0000
  C   C231      1.0  0.37144  0.06480  0.48870  1.0000
  C   C232      1.0  0.19738  0.07598  0.48405  1.0000
  C   C233      1.0  0.30349  0.29981  0.77694  1.0000
  C   C234      1.0  0.42702  0.00187  0.59055  1.0000
  H   H184      1.0  0.43071  0.13260  0.62630  1.0000
  H   H185      1.0  0.98247  0.08660  0.61792  1.0000
  H   H186      1.0  0.29042  0.30651  0.79778  1.0000
  C   C235      1.0  0.47558  0.10711  0.80320  1.0000
  C   C236      1.0  0.47391  0.08885  0.50216  1.0000
  H   H187      1.0  0.22836  0.28008  0.48162  1.0000
  H   H188      1.0  0.00097  0.01616  0.78354  1.0000
  P   P9        1.0  0.17860  0.30344  0.85900  1.0000
  H   H189      1.0  0.46757  0.03634  0.49496  1.0000
  C   C237      1.0  0.13940  0.98802  0.51623  1.0000
  H   H190      1.0  0.44474  0.30985  0.97433  1.0000
  C   C238      1.0  0.05956  0.98997  0.49810  1.0000
  C   C239      1.0  0.17596  0.30719  0.74950  1.0000
  H   H191      1.0  0.11646  0.98711  0.56771  1.0000
  C   C240      1.0  0.44517  0.04950  0.97460  1.0000
  C   C241      1.0  0.99320  0.10705  0.67173  1.0000
  C   C242      1.0  0.47583  0.10621  0.84065  1.0000
  C   C243      1.0  0.14304  0.31340  0.86606  1.0000
  C   C244      1.0  0.23336  0.08507  0.48115  1.0000
  H   H192      1.0  0.47727  0.19644  0.62675  1.0000
  H   H193      1.0  0.47737  0.28512  0.94084  1.0000
  C   C245      1.0  0.46946  0.11566  0.48608  1.0000
  C   C246      1.0  0.17329  0.98736  0.67667  1.0000
  C   C247      1.0  0.34431  0.31866  0.72670  1.0000
  Fe  Fe14      1.0  0.09423  0.46703  0.28672  1.0000
  Fe  Fe15      1.0  0.04269  0.39501  0.31960  1.0000
  S   S30       1.0  0.44131  0.40295  0.25772  1.0000
  H   H194      1.0  0.33731  0.53345  0.43328  1.0000
  Fe  Fe16      1.0  0.01369  0.43145  0.27127  1.0000
  H   H195      1.0  0.38222  0.60284  0.45645  1.0000
  Fe  Fe17      1.0  0.04538  0.46268  0.34860  1.0000
  S   S31       1.0  0.05172  0.50132  0.39500  1.0000
  S   S32       1.0  0.05435  0.41439  0.26257  1.0000
  S   S33       1.0  0.08698  0.44623  0.34287  1.0000
  C   C248      1.0  0.17137  0.51214  0.41576  1.0000
  H   H196      1.0  0.11486  0.54640  0.22085  1.0000
  H   H197      1.0  0.40825  0.44754  0.41135  1.0000
  Fe  Fe18      1.0  0.37901  0.38585  0.05478  1.0000
  S   S34       1.0  0.40050  0.42765  0.09918  1.0000
  C   C249      1.0  0.40937  0.36426  0.45304  1.0000
  C   C250      1.0  0.43288  0.41022  0.21260  1.0000
  C   C251      1.0  0.41020  0.38084  0.19104  1.0000
  C   C252      1.0  0.40064  0.38563  0.15611  1.0000
  C   C253      1.0  0.41331  0.41995  0.14235  1.0000
  C   C254      1.0  0.43596  0.44916  0.16399  1.0000
  H   H198      1.0  0.37881  0.34167  0.36766  1.0000
  H   H199      1.0  0.39974  0.35419  0.20151  1.0000
  H   H200      1.0  0.38301  0.36277  0.14014  1.0000
  S   S35       1.0  0.46080  0.60778  0.06097  1.0000
  H   H201      1.0  0.15380  0.43193  0.40250  1.0000
  H   H202      1.0  0.08280  0.56350  0.44011  1.0000
  H   H203      1.0  0.22369  0.45944  0.29692  1.0000
  H   H204      1.0  0.16488  0.45591  0.28851  1.0000
  Fe  Fe19      1.0  0.42516  0.61035  0.27376  1.0000
  H   H205      1.0  0.98165  0.51329  0.12330  1.0000
  S   S36       1.0  0.37743  0.61693  0.26461  1.0000
  Fe  Fe20      1.0  0.40468  0.58988  0.35475  1.0000
  S   S37       1.0  0.35659  0.59644  0.35026  1.0000
  S   S38       1.0  0.42039  0.57013  0.40488  1.0000
  Fe  Fe21      1.0  0.34696  0.56731  0.29788  1.0000
  S   S39       1.0  0.29562  0.51580  0.28659  1.0000
  C   C255      1.0  0.06611  0.38008  0.42326  1.0000
  S   S40       1.0  0.39389  0.55859  0.30351  1.0000
  H   H206      1.0  0.02110  0.61336  0.07564  1.0000
  S   S41       1.0  0.05434  0.48564  0.29240  1.0000
  S   S42       1.0  0.14673  0.50827  0.26195  1.0000
  H   H207      1.0  0.07412  0.61454  0.19392  1.0000
  H   H208      1.0  0.10026  0.37589  0.38408  1.0000
  H   H209      1.0  0.44150  0.44242  0.36050  1.0000
  H   H210      1.0  0.02081  0.43927  0.16945  1.0000
  C   C256      1.0  0.05560  0.50635  0.44304  1.0000
  H   H211      1.0  0.26618  0.40656  0.06621  1.0000
  Fe  Fe22      1.0  0.39925  0.33296  0.02670  1.0000
  C   C257      1.0  0.06298  0.61364  0.16770  1.0000
  C   C258      1.0  0.43573  0.59841  0.46455  1.0000
  H   H212      1.0  0.30419  0.34352  0.11823  1.0000
  H   H213      1.0  0.47317  0.55953  0.15032  1.0000
  C   C259      1.0  0.43175  0.60148  0.12848  1.0000
  C   C260      1.0  0.43280  0.60522  0.16619  1.0000
  C   C261      1.0  0.15046  0.63384  0.10296  1.0000
  H   H214      1.0  0.02733  0.50055  0.09890  1.0000
  H   H215      1.0  0.40630  0.58594  0.11521  1.0000
  H   H216      1.0  0.40836  0.59246  0.18154  1.0000
  C   C262      1.0  0.25449  0.51489  0.28256  1.0000
  C   C263      1.0  0.22261  0.48281  0.28864  1.0000
  C   C264      1.0  0.18931  0.48072  0.28380  1.0000
  C   C265      1.0  0.18775  0.51045  0.27166  1.0000
  C   C266      1.0  0.21964  0.54249  0.26552  1.0000
  C   C267      1.0  0.25291  0.54492  0.27162  1.0000
  H   H217      1.0  0.21865  0.56556  0.25601  1.0000
  H   H218      1.0  0.27734  0.56968  0.26666  1.0000
  H   H219      1.0  0.22177  0.51649  0.39982  1.0000
  C   C268      1.0  0.12285  0.32444  0.06356  1.0000
  S   S43       1.0  0.00024  0.40982  0.32827  1.0000
  C   C269      1.0  0.00227  0.52338  0.02107  1.0000
  P   P10       1.0  0.13260  0.64526  0.14123  1.0000
  C   C270      1.0  0.30069  0.36660  0.11805  1.0000
  C   C271      1.0  0.28263  0.37169  0.08971  1.0000
  C   C272      1.0  0.27947  0.40225  0.08864  1.0000
  C   C273      1.0  0.29386  0.42742  0.11624  1.0000
  C   C274      1.0  0.31096  0.42190  0.14558  1.0000
  C   C275      1.0  0.31487  0.39156  0.14582  1.0000
  P   P11       1.0  0.32962  0.45486  0.18106  1.0000
  C   C276      1.0  0.32849  0.43408  0.22352  1.0000
  C   C277      1.0  0.37543  0.48692  0.17103  1.0000
  C   C278      1.0  0.39877  0.50661  0.19891  1.0000
  C   C279      1.0  0.43397  0.53235  0.19141  1.0000
  H   H220      1.0  0.32893  0.35041  0.45876  1.0000
  C   C280      1.0  0.42291  0.51977  0.12807  1.0000
  C   C281      1.0  0.38766  0.49379  0.13550  1.0000
  C   C282      1.0  0.35160  0.42055  0.22943  1.0000
  C   C283      1.0  0.35042  0.40354  0.26163  1.0000
  C   C284      1.0  0.32691  0.40087  0.28872  1.0000
  C   C285      1.0  0.30496  0.41570  0.28378  1.0000
  C   C286      1.0  0.30571  0.43226  0.25136  1.0000
  C   C287      1.0  0.30383  0.47721  0.18464  1.0000
  C   C288      1.0  0.32071  0.51440  0.18818  1.0000
  C   C289      1.0  0.30038  0.53120  0.19172  1.0000
  C   C290      1.0  0.26315  0.51107  0.19184  1.0000
  C   C291      1.0  0.24614  0.47407  0.18851  1.0000
  C   C292      1.0  0.26636  0.45716  0.18482  1.0000
  C   C293      1.0  0.02734  0.32997  0.20727  1.0000
  C   C294      1.0  0.01189  0.34470  0.07679  1.0000
  C   C295      1.0  0.18246  0.63195  0.22842  1.0000
  H   H221      1.0  0.29181  0.45129  0.11454  1.0000
  H   H222      1.0  0.32919  0.38709  0.16693  1.0000
  H   H223      1.0  0.38958  0.50273  0.22638  1.0000
  H   H224      1.0  0.98138  0.33494  0.16260  1.0000
  C   C296      1.0  0.07336  0.42150  0.13336  1.0000
  C   C297      1.0  0.99331  0.63115  0.46717  1.0000
  H   H225      1.0  0.37022  0.47907  0.11349  1.0000
  H   H226      1.0  0.37066  0.42323  0.20912  1.0000
  H   H227      1.0  0.36827  0.39302  0.26575  1.0000
  H   H228      1.0  0.32655  0.38830  0.31392  1.0000
  H   H229      1.0  0.28762  0.41483  0.30520  1.0000
  H   H230      1.0  0.28888  0.44406  0.24864  1.0000
  H   H231      1.0  0.34948  0.53058  0.18887  1.0000
  H   H232      1.0  0.31355  0.55978  0.19548  1.0000
  H   H233      1.0  0.24750  0.52409  0.19557  1.0000
  H   H234      1.0  0.21730  0.45852  0.18965  1.0000
  H   H235      1.0  0.25287  0.42841  0.18288  1.0000
  H   H236      1.0  0.20587  0.64817  0.24463  1.0000
  C   C298      1.0  0.14340  0.62615  0.17883  1.0000
  C   C299      1.0  0.01107  0.59830  0.13113  1.0000
  C   C300      1.0  0.11708  0.36256  0.10737  1.0000
  H   H237      1.0  0.45143  0.54823  0.21290  1.0000
  H   H238      1.0  0.42416  0.39256  0.40302  1.0000
  P   P12       1.0  0.16511  0.48587  0.45551  1.0000
  C   C301      1.0  0.20083  0.64550  0.06497  1.0000
  H   H239      1.0  0.04044  0.50650  0.03401  1.0000
  C   C302      1.0  0.06364  0.40046  0.45098  1.0000
  H   H240      1.0  0.12981  0.38610  0.12404  1.0000
  H   H241      1.0  0.10294  0.38489  0.19609  1.0000
  H   H242      1.0  0.98709  0.45468  0.99903  1.0000
  H   H243      1.0  0.08921  0.47717  0.13089  1.0000
  C   C303      1.0  0.01213  0.34181  0.11431  1.0000
  C   C304      1.0  0.41725  0.49367  0.01511  1.0000
  C   C305      1.0  0.17382  0.64712  0.19978  1.0000
  H   H244      1.0  0.02467  0.35354  0.20775  1.0000
  S   S44       1.0  0.47990  0.39901  0.34646  1.0000
  C   C306      1.0  0.12902  0.42287  0.41689  1.0000
  H   H245      1.0  0.12536  0.63428  0.00502  1.0000
  S   S45       1.0  0.03823  0.34163  0.33272  1.0000
  H   H246      1.0  0.39781  0.49210  0.03446  1.0000
  C   C307      1.0  0.40643  0.36764  0.41618  1.0000
  H   H247      1.0  0.22123  0.40068  0.40804  1.0000
  C   C308      1.0  0.09974  0.40472  0.18146  1.0000
  H   H248      1.0  0.43559  0.50957  0.43995  1.0000
  C   C309      1.0  0.12258  0.58957  0.18611  1.0000
  C   C310      1.0  0.07631  0.62481  0.46107  1.0000
  H   H249      1.0  0.09961  0.57262  0.16968  1.0000
  C   C311      1.0  0.14413  0.51873  0.40485  1.0000
  C   C312      1.0  0.46560  0.62341  0.18407  1.0000
  H   H250      1.0  0.03543  0.35115  0.06116  1.0000
  C   C313      1.0  0.09239  0.45697  0.14476  1.0000
  H   H251      1.0  0.01289  0.43660  0.10306  1.0000
  C   C314      1.0  0.03293  0.61303  0.10117  1.0000
  S   S46       1.0  0.03375  0.63787  0.99647  1.0000
  C   C315      1.0  0.99434  0.42699  0.15798  1.0000
  H   H252      1.0  0.12647  0.56941  0.03914  1.0000
  S   S47       1.0  0.33390  0.37028  0.01465  1.0000
  C   C316      1.0  0.11884  0.44021  0.19264  1.0000
  C   C317      1.0  0.11497  0.46628  0.17450  1.0000
  C   C318      1.0  0.07989  0.33995  0.10798  1.0000
  C   C319      1.0  0.44537  0.44438  0.19889  1.0000
  H   H253      1.0  0.16709  0.37216  0.08493  1.0000
  H   H254      1.0  0.03810  0.39227  0.46350  1.0000
  H   H255      1.0  0.99875  0.59438  0.40691  1.0000
  C   C320      1.0  0.44613  0.53885  0.15606  1.0000
  H   H256      1.0  0.13614  0.44751  0.21591  1.0000
  H   H257      1.0  0.12927  0.49363  0.18383  1.0000
  C   C321      1.0  0.07641  0.39501  0.15203  1.0000
  C   C322      1.0  0.33398  0.37658  0.46657  1.0000
  H   H258      1.0  0.44641  0.47573  0.15370  1.0000
  C   C323      1.0  0.07587  0.58728  0.99110  1.0000
  C   C324      1.0  0.34018  0.40211  0.44035  1.0000
  C   C325      1.0  0.34717  0.43631  0.45027  1.0000
  C   C326      1.0  0.16103  0.59575  0.23609  1.0000
  P   P13       1.0  0.35333  0.46875  0.41639  1.0000
  C   C327      1.0  0.37838  0.46548  0.37911  1.0000
  C   C328      1.0  0.31014  0.46160  0.40199  1.0000
  C   C329      1.0  0.30738  0.48754  0.38187  1.0000
  C   C330      1.0  0.27393  0.48285  0.37275  1.0000
  C   C331      1.0  0.24293  0.45154  0.38198  1.0000
  C   C332      1.0  0.24532  0.42502  0.40094  1.0000
  C   C333      1.0  0.27871  0.43010  0.41121  1.0000
  C   C334      1.0  0.37435  0.47559  0.34443  1.0000
  C   C335      1.0  0.39452  0.47397  0.31595  1.0000
  C   C336      1.0  0.41826  0.46143  0.32158  1.0000
  C   C337      1.0  0.42260  0.45149  0.35596  1.0000
  C   C338      1.0  0.40329  0.45408  0.38473  1.0000
  C   C339      1.0  0.38089  0.51282  0.43449  1.0000
  C   C340      1.0  0.42490  0.52717  0.44378  1.0000
  C   C341      1.0  0.45254  0.57034  0.45884  1.0000
  H   H259      1.0  0.42929  0.38682  0.46825  1.0000
  C   C342      1.0  0.39229  0.58455  0.45419  1.0000
  C   C343      1.0  0.36471  0.54164  0.43922  1.0000
  H   H260      1.0  0.33945  0.39515  0.41236  1.0000
  H   H261      1.0  0.46725  0.37914  0.12348  1.0000
  H   H262      1.0  0.33105  0.51183  0.37367  1.0000
  H   H263      1.0  0.27210  0.50348  0.35812  1.0000
  H   H264      1.0  0.21714  0.44786  0.37421  1.0000
  C   C344      1.0  0.13120  0.57456  0.21488  1.0000
  C   C345      1.0  0.10635  0.61995  0.98389  1.0000
  H   H265      1.0  0.35594  0.48501  0.33903  1.0000
  H   H266      1.0  0.39125  0.48193  0.28935  1.0000
  H   H267      1.0  0.43332  0.45947  0.29931  1.0000
  C   C346      1.0  0.09880  0.39123  0.40632  1.0000
  H   H268      1.0  0.05593  0.41480  0.11035  1.0000
  P   P14       1.0  0.05218  0.34920  0.13733  1.0000
  C   C347      1.0  0.20421  0.54098  0.36150  1.0000
  C   C348      1.0  0.12683  0.44333  0.44491  1.0000
  C   C349      1.0  0.04012  0.32110  0.17662  1.0000
  H   H269      1.0  0.43220  0.52523  0.10062  1.0000
  H   H270      1.0  0.12010  0.50919  0.42071  1.0000
  H   H271      1.0  0.16764  0.58395  0.25832  1.0000
  C   C350      1.0  0.17903  0.61497  0.04495  1.0000
  C   C351      1.0  0.04158  0.47737  0.46668  1.0000
  H   H272      1.0  0.46896  0.54438  0.33956  1.0000
  C   C352      1.0  0.20119  0.52281  0.39342  1.0000
  C   C353      1.0  0.14713  0.53675  0.37284  1.0000
  S   S48       1.0  0.41773  0.38975  0.01233  1.0000
  C   C354      1.0  0.46333  0.61667  0.10799  1.0000
  C   C355      1.0  0.01356  0.50942  0.08110  1.0000
  H   H273      1.0  0.25494  0.32147  0.00424  1.0000
  C   C356      1.0  0.02079  0.51271  0.04433  1.0000
  H   H274      1.0  0.04252  0.35610  0.41419  1.0000
  H   H275      1.0  0.27972  0.40940  0.42642  1.0000
  C   C357      1.0  0.02609  0.59919  0.16448  1.0000
  S   S49       1.0  0.44129  0.64121  0.32579  1.0000
  C   C358      1.0  0.38688  0.33194  0.47011  1.0000
  C   C359      1.0  0.07181  0.54086  0.45793  1.0000
  Fe  Fe23      1.0  0.39233  0.64569  0.31784  1.0000
  H   H276      1.0  0.06440  0.61168  0.43600  1.0000
  C   C360      1.0  0.11344  0.64214  0.46473  1.0000
  H   H277      1.0  0.07195  0.57684  0.01798  1.0000
  H   H278      1.0  0.17906  0.56111  0.32596  1.0000
  C   C361      1.0  0.13842  0.35478  0.08522  1.0000
  H   H279      1.0  0.46099  0.46709  0.21572  1.0000
  C   C362      1.0  0.98143  0.34039  0.05910  1.0000
  H   H280      1.0  0.12561  0.54114  0.36440  1.0000
  C   C363      1.0  0.38082  0.33889  0.39632  1.0000
  H   H281      1.0  0.10124  0.58537  0.09040  1.0000
  H   H282      1.0  0.22712  0.54896  0.34426  1.0000
  C   C364      1.0  0.17719  0.54793  0.35119  1.0000
  C   C365      1.0  0.14323  0.59331  0.05440  1.0000
  H   H283      1.0  0.00904  0.58887  0.18787  1.0000
  S   S50       1.0  0.36171  0.32985  0.06964  1.0000
  H   H284      1.0  0.02874  0.45063  0.45596  1.0000
  S   S51       1.0  0.46899  0.62348  0.23186  1.0000
  C   C366      1.0  0.98974  0.42557  0.12026  1.0000
  H   H285      1.0  0.45258  0.62525  0.47369  1.0000
  H   H286      1.0  0.18997  0.60804  0.02224  1.0000
  C   C367      1.0  0.12896  0.60263  0.08332  1.0000
  H   H287      1.0  0.17559  0.42480  0.47174  1.0000
  C   C368      1.0  0.23721  0.51327  0.46914  1.0000
  C   C369      1.0  0.06984  0.62750  0.10424  1.0000
  C   C370      1.0  0.08497  0.62666  0.13730  1.0000
  H   H288      1.0  0.27157  0.35216  0.06834  1.0000
  C   C371      1.0  0.20117  0.44906  0.47280  1.0000
  C   C372      1.0  0.09384  0.43206  0.46174  1.0000
  C   C373      1.0  0.47714  0.52479  0.99079  1.0000
  H   H289      1.0  0.12972  0.64213  0.44269  1.0000
  H   H290      1.0  0.08649  0.63927  0.08083  1.0000
  H   H291      1.0  0.47105  0.42411  0.08035  1.0000
  C   C374      1.0  0.40798  0.46628  0.99031  1.0000
  H   H292      1.0  0.47656  0.51260  0.39099  1.0000
  H   H293      1.0  0.38126  0.44360  0.99016  1.0000
  H   H294      1.0  0.19951  0.32174  0.98752  1.0000
  C   C375      1.0  0.98168  0.33552  0.13373  1.0000
  C   C376      1.0  0.98529  0.53021  0.46788  1.0000
  H   H295      1.0  0.45882  0.54431  0.03433  1.0000
  H   H296      1.0  0.98147  0.34325  0.03025  1.0000
  C   C377      1.0  0.45175  0.52299  0.01521  1.0000
  C   C378      1.0  0.98777  0.51660  0.09491  1.0000
  C   C379      1.0  0.99303  0.56376  0.45493  1.0000
  C   C380      1.0  0.99203  0.56863  0.41779  1.0000
  C   C381      1.0  0.20402  0.48215  0.46532  1.0000
  H   H297      1.0  0.15773  0.54951  0.47048  1.0000
  H   H298      1.0  0.23962  0.53916  0.46502  1.0000
  H   H299      1.0  0.98205  0.54419  0.36558  1.0000
  C   C382      1.0  0.98264  0.54025  0.39418  1.0000
  H   H300      1.0  0.48029  0.57959  0.46401  1.0000
  H   H301      1.0  0.98242  0.58681  0.12865  1.0000
  C   C383      1.0  0.44767  0.63527  0.55673  1.0000
  H   H302      1.0  0.00530  0.48800  0.84992  1.0000
  C   C384      1.0  0.03614  0.39524  0.83302  1.0000
  C   C385      1.0  0.33588  0.60889  0.65013  1.0000
  S   S52       1.0  0.37039  0.37772  0.91244  1.0000
  H   H303      1.0  0.99570  0.40621  0.97658  1.0000
  Fe  Fe24      1.0  0.33692  0.47668  0.65467  1.0000
  S   S53       1.0  0.28270  0.43105  0.64057  1.0000
  S   S54       1.0  0.37765  0.51648  0.61460  1.0000
  Fe  Fe25      1.0  0.32621  0.45898  0.73686  1.0000
  S   S55       1.0  0.27101  0.41383  0.72711  1.0000
  S   S56       1.0  0.34674  0.47277  0.79504  1.0000
  Fe  Fe26      1.0  0.29477  0.39971  0.68092  1.0000
  S   S57       1.0  0.28958  0.34497  0.68100  1.0000
  Fe  Fe27      1.0  0.26419  0.44974  0.68829  1.0000
  S   S58       1.0  0.35066  0.44396  0.69182  1.0000
  H   H304      1.0  0.26145  0.58010  0.67958  1.0000
  H   H305      1.0  0.26608  0.52526  0.68486  1.0000
  C   C386      1.0  0.36096  0.40329  0.88109  1.0000
  C   C387      1.0  0.35360  0.39184  0.84513  1.0000
  C   C388      1.0  0.34806  0.41213  0.81882  1.0000
  C   C389      1.0  0.35056  0.44463  0.82784  1.0000
  C   C390      1.0  0.35752  0.45583  0.86386  1.0000
  C   C391      1.0  0.36222  0.43521  0.89038  1.0000
  H   H306      1.0  0.35265  0.36730  0.83744  1.0000
  H   H307      1.0  0.34293  0.40326  0.79132  1.0000
  H   H308      1.0  0.36793  0.44463  0.91771  1.0000
  C   C392      1.0  0.37870  0.54329  0.91484  1.0000
  H   H309      1.0  0.42589  0.51404  0.56550  1.0000
  H   H310      1.0  0.32283  0.52474  0.92062  1.0000
  H   H311      1.0  0.09051  0.62919  0.89650  1.0000
  H   H312      1.0  0.26503  0.40377  0.84571  1.0000
  S   S59       1.0  0.21175  0.45028  0.68809  1.0000
  S   S60       1.0  0.31788  0.49653  0.70109  1.0000
  Fe  Fe28      1.0  0.08446  0.58994  0.68898  1.0000
  S   S61       1.0  0.14117  0.63420  0.68758  1.0000
  S   S62       1.0  0.04727  0.57841  0.73749  1.0000
  Fe  Fe29      1.0  0.08787  0.56743  0.60888  1.0000
  S   S63       1.0  0.14466  0.61196  0.60313  1.0000
  S   S64       1.0  0.05728  0.52265  0.56698  1.0000
  Fe  Fe30      1.0  0.15284  0.59545  0.65819  1.0000
  S   S65       1.0  0.20257  0.59210  0.67151  1.0000
  C   C393      1.0  0.11277  0.34609  0.84996  1.0000
  S   S66       1.0  0.09691  0.54989  0.66332  1.0000
  S   S67       1.0  0.06973  0.60272  0.63526  1.0000
  C   C394      1.0  0.20958  0.48976  0.68165  1.0000
  C   C395      1.0  0.17619  0.48751  0.67713  1.0000
  C   C396      1.0  0.17356  0.51850  0.67306  1.0000
  C   C397      1.0  0.20431  0.55209  0.67424  1.0000
  C   C398      1.0  0.23763  0.55426  0.67862  1.0000
  C   C399      1.0  0.24033  0.52329  0.68186  1.0000
  H   H313      1.0  0.15226  0.46166  0.67673  1.0000
  H   H314      1.0  0.14775  0.51641  0.66947  1.0000
  C   C400      1.0  0.04237  0.59616  0.77932  1.0000
  C   C401      1.0  0.06854  0.62801  0.79544  1.0000
  H   H315      1.0  0.26570  0.34415  0.75875  1.0000
  C   C402      1.0  0.02921  0.61831  0.84727  1.0000
  H   H316      1.0  0.32716  0.55738  0.63364  1.0000
  C   C403      1.0  0.01005  0.57617  0.79738  1.0000
  H   H317      1.0  0.06462  0.33223  0.87953  1.0000
  H   H318      1.0  0.05383  0.47047  0.88623  1.0000
  H   H319      1.0  0.22092  0.38818  0.79650  1.0000
  H   H320      1.0  0.20848  0.43390  0.77172  1.0000
  H   H321      1.0  0.35983  0.48095  0.87121  1.0000
  H   H322      1.0  0.45377  0.52596  0.65654  1.0000
  C   C404      1.0  0.05864  0.51746  0.51913  1.0000
  C   C405      1.0  0.04278  0.48291  0.50426  1.0000
  C   C406      1.0  0.34637  0.44396  0.48669  1.0000
  C   C407      1.0  0.35956  0.53011  0.54697  1.0000
  C   C408      1.0  0.38016  0.52012  0.56697  1.0000
  C   C409      1.0  0.40869  0.52058  0.55004  1.0000
  H   H323      1.0  0.33785  0.53130  0.56012  1.0000
  H   H324      1.0  0.23987  0.49496  0.79540  1.0000
  C   C410      1.0  0.30015  0.60975  0.78662  1.0000
  C   C411      1.0  0.33991  0.53931  0.86554  1.0000
  C   C412      1.0  0.24802  0.38363  0.92559  1.0000
  C   C413      1.0  0.39782  0.54265  0.48945  1.0000
  H   H325      1.0  0.18968  0.50353  0.92112  1.0000
  C   C414      1.0  0.30897  0.55053  0.77756  1.0000
  C   C415      1.0  0.31057  0.57107  0.74798  1.0000
  H   H326      1.0  0.31519  0.56400  0.72152  1.0000
  C   C416      1.0  0.14913  0.54880  0.52697  1.0000
  H   H327      1.0  0.25009  0.40719  0.93798  1.0000
  H   H328      1.0  0.29789  0.39203  0.94748  1.0000
  C   C417      1.0  0.25871  0.42343  0.83564  1.0000
  H   H329      1.0  0.05552  0.64187  0.54425  1.0000
  C   C418      1.0  0.33437  0.38485  0.50283  1.0000
  C   C419      1.0  0.15349  0.48662  0.52853  1.0000
  C   C420      1.0  0.07022  0.53397  0.79759  1.0000
  C   C421      1.0  0.11166  0.63506  0.94984  1.0000
  C   C422      1.0  0.34047  0.41851  0.51287  1.0000
  H   H330      1.0  0.05801  0.38988  0.83526  1.0000
  C   C423      1.0  0.37445  0.58536  0.66601  1.0000
  C   C424      1.0  0.27487  0.37509  0.93107  1.0000
  C   C425      1.0  0.40686  0.62540  0.77176  1.0000
  C   C426      1.0  0.08679  0.32749  0.87600  1.0000
  C   C427      1.0  0.47853  0.51510  0.81834  1.0000
  H   H331      1.0  0.04719  0.51998  0.90962  1.0000
  H   H332      1.0  0.45826  0.48399  0.54725  1.0000
  H   H333      1.0  0.16080  0.35400  0.82492  1.0000
  C   C428      1.0  0.43843  0.63827  0.75185  1.0000
  H   H334      1.0  0.28713  0.59680  0.95249  1.0000
  C   C429      1.0  0.40789  0.63568  0.80743  1.0000
  C   C430      1.0  0.15691  0.50393  0.49570  1.0000
  H   H335      1.0  0.14519  0.48688  0.58554  1.0000
  S   S68       1.0  0.01759  0.62910  0.88996  1.0000
  C   C431      1.0  0.15491  0.53531  0.49516  1.0000
  H   H336      1.0  0.14692  0.57264  0.52650  1.0000
  C   C432      1.0  0.30233  0.55912  0.81195  1.0000
  C   C433      1.0  0.27689  0.45819  0.84909  1.0000
  C   C434      1.0  0.23638  0.55075  0.94000  1.0000
  C   C435      1.0  0.26745  0.51128  0.47850  1.0000
  H   H337      1.0  0.34060  0.42500  0.54100  1.0000
  C   C436      1.0  0.27290  0.53787  0.88507  1.0000
  C   C437      1.0  0.29828  0.58916  0.81628  1.0000
  C   C438      1.0  0.02578  0.43535  0.93016  1.0000
  H   H338      1.0  0.38937  0.32982  0.49877  1.0000
  C   C439      1.0  0.14783  0.50027  0.56025  1.0000
  H   H339      1.0  0.08572  0.57314  0.50621  1.0000
  C   C440      1.0  0.00289  0.45899  0.97517  1.0000
  H   H340      1.0  0.21959  0.32798  0.71205  1.0000
  C   C441      1.0  0.44640  0.53547  0.68015  1.0000
  H   H341      1.0  0.19818  0.36903  0.90003  1.0000
  C   C442      1.0  0.00727  0.43118  0.96209  1.0000
  C   C443      1.0  0.98428  0.47873  0.79594  1.0000
  H   H342      1.0  0.42750  0.50580  0.83703  1.0000
  C   C444      1.0  0.23147  0.44719  0.48263  1.0000
  H   H343      1.0  0.36237  0.33955  0.70873  1.0000
  C   C445      1.0  0.32797  0.32676  0.75453  1.0000
  C   C446      1.0  0.30600  0.60054  0.75246  1.0000
  H   H344      1.0  0.22230  0.55578  0.96117  1.0000
  C   C447      1.0  0.12088  0.52955  0.75462  1.0000
  H   H345      1.0  0.43381  0.56257  0.90123  1.0000
  C   C448      1.0  0.34493  0.53480  0.90201  1.0000
  H   H346      1.0  0.42716  0.61350  0.57229  1.0000
  C   C449      1.0  0.01633  0.47278  0.70495  1.0000
  C   C450      1.0  0.00794  0.46021  0.66974  1.0000
  H   H347      1.0  0.00141  0.35216  0.86806  1.0000
  H   H348      1.0  0.41676  0.51062  0.76534  1.0000
  H   H349      1.0  0.47391  0.51957  0.79081  1.0000
  C   C451      1.0  0.08635  0.50036  0.75739  1.0000
  C   C452      1.0  0.00427  0.37394  0.85142  1.0000
  H   H350      1.0  0.23559  0.33564  0.62848  1.0000
  C   C453      1.0  0.24289  0.32290  0.89360  1.0000
  C   C454      1.0  0.01814  0.49175  0.95722  1.0000
  H   H351      1.0  0.36573  0.55333  0.81360  1.0000
  C   C455      1.0  0.44616  0.56759  0.67884  1.0000
  C   C456      1.0  0.14092  0.33926  0.84514  1.0000
  P   P15       1.0  0.43656  0.62183  0.70691  1.0000
  C   C457      1.0  0.24532  0.47527  0.80709  1.0000
  C   C458      1.0  0.40268  0.55953  0.85493  1.0000
  H   H352      1.0  0.15519  0.46253  0.52963  1.0000
  H   H353      1.0  0.24890  0.33384  0.82241  1.0000
  C   C459      1.0  0.05634  0.58437  0.92973  1.0000
  C   C460      1.0  0.08679  0.61715  0.92272  1.0000
  C   C461      1.0  0.36896  0.55105  0.84200  1.0000
  H   H354      1.0  0.99084  0.57896  0.94769  1.0000
  C   C462      1.0  0.14547  0.53125  0.55944  1.0000
  H   H355      1.0  0.22917  0.42166  0.48861  1.0000
  H   H356      1.0  0.15642  0.58396  0.76985  1.0000
  H   H357      1.0  0.98701  0.52573  0.49609  1.0000
  C   C463      1.0  0.06057  0.50234  0.77877  1.0000
  C   C464      1.0  0.21186  0.32281  0.73998  1.0000
  C   C465      1.0  0.27290  0.57385  0.93513  1.0000
  H   H358      1.0  0.29297  0.59651  0.84226  1.0000
  H   H359      1.0  0.98782  0.51369  0.66926  1.0000
  C   C466      1.0  0.43332  0.46785  0.96598  1.0000
  H   H360      1.0  0.01578  0.62739  0.72713  1.0000
  C   C467      1.0  0.29110  0.56750  0.90775  1.0000
  C   C468      1.0  0.21803  0.52132  0.91745  1.0000
  H   H361      1.0  0.32974  0.36515  0.52318  1.0000
  H   H362      1.0  0.03702  0.57136  0.90847  1.0000
  H   H363      1.0  0.42587  0.44610  0.94727  1.0000
  C   C469      1.0  0.38808  0.64360  0.68720  1.0000
  H   H364      1.0  0.31219  0.52749  0.77350  1.0000
  C   C470      1.0  0.42547  0.52684  0.74139  1.0000
  C   C471      1.0  0.43622  0.51518  0.71147  1.0000
  C   C472      1.0  0.42535  0.55904  0.74028  1.0000
  C   C473      1.0  0.40759  0.55584  0.89133  1.0000
  H   H365      1.0  0.22141  0.49208  0.87271  1.0000
  Fe  Fe31      1.0  0.37132  0.36879  0.97335  1.0000
  H   H366      1.0  0.43594  0.49004  0.71229  1.0000
  H   H367      1.0  0.05092  0.53719  0.81304  1.0000
  P   P16       1.0  0.01509  0.46542  0.77917  1.0000
  C   C474      1.0  0.23395  0.41465  0.80793  1.0000
  H   H368      1.0  0.29640  0.46462  0.87007  1.0000
  H   H369      1.0  0.38258  0.54018  0.94303  1.0000
  H   H370      1.0  0.28812  0.47681  0.49285  1.0000
  C   C475      1.0  0.36769  0.54080  0.51064  1.0000
  P   P17       1.0  0.29659  0.53023  0.84943  1.0000
  C   C476      1.0  0.05044  0.56927  0.96410  1.0000
  C   C477      1.0  0.01238  0.63694  0.70142  1.0000
  P   P18       1.0  0.01089  0.52702  0.97334  1.0000
  C   C478      1.0  0.27220  0.34468  0.91521  1.0000
  C   C479      1.0  0.21859  0.36186  0.90400  1.0000
  C   C480      1.0  0.22703  0.44047  0.79387  1.0000
  C   C481      1.0  0.07354  0.54643  0.49552  1.0000
  C   C482      1.0  0.98526  0.48757  0.83225  1.0000
  C   C483      1.0  0.23617  0.51488  0.89002  1.0000
  C   C484      1.0  0.43613  0.57992  0.70907  1.0000
  H   H371      1.0  0.43836  0.49643  0.89972  1.0000
  C   C485      1.0  0.01142  0.43027  0.80817  1.0000
  C   C486      1.0  0.98336  0.55578  0.58504  1.0000
  C   C487      1.0  0.21598  0.33145  0.88759  1.0000
  H   H372      1.0  0.29309  0.33818  0.91949  1.0000
  H   H373      1.0  0.41674  0.56725  0.76379  1.0000
  C   C488      1.0  0.34420  0.58162  0.64844  1.0000
  C   C489      1.0  0.23786  0.33193  0.76645  1.0000
  H   H374      1.0  0.30655  0.61601  0.72941  1.0000
  H   H375      1.0  0.35014  0.46947  0.49500  1.0000
  H   H376      1.0  0.31236  0.60590  0.63650  1.0000
  P   P19       1.0  0.00694  0.60102  0.48522  1.0000
  H   H377      1.0  0.09097  0.44805  0.48235  1.0000
  C   C490      1.0  0.27125  0.48466  0.83406  1.0000
  H   H378      1.0  0.43969  0.52805  0.50634  1.0000
  C   C491      1.0  0.45256  0.50752  0.84445  1.0000
  H   H379      1.0  0.99241  0.57014  0.68535  1.0000
  C   C492      1.0  0.05491  0.62389  0.48980  1.0000
  C   C493      1.0  0.98538  0.42395  0.66324  1.0000
  H   H380      1.0  0.02373  0.56824  0.54534  1.0000
  C   C494      1.0  0.22809  0.32591  0.80257  1.0000
  C   C495      1.0  0.03632  0.49558  0.92484  1.0000
  H   H381      1.0  0.98945  0.55218  0.78510  1.0000
  C   C496      1.0  0.10479  0.56311  0.79472  1.0000
  H   H382      1.0  0.11098  0.36560  0.83328  1.0000
  H   H383      1.0  0.42514  0.56895  0.83678  1.0000
  C   C497      1.0  0.07128  0.64151  0.52185  1.0000
  H   H384      1.0  0.38018  0.56383  0.66471  1.0000
  C   C498      1.0  0.41669  0.53023  0.51389  1.0000
  H   H385      1.0  0.29635  0.63251  0.78998  1.0000
  H   H386      1.0  0.34941  0.54866  0.50020  1.0000
  H   H387      1.0  0.14054  0.54149  0.58397  1.0000
  H   H388      1.0  0.07952  0.47666  0.74190  1.0000
  H   H389      1.0  0.11148  0.58788  0.80808  1.0000
  H   H390      1.0  0.03316  0.50112  0.70960  1.0000
  C   C499      1.0  0.00309  0.44896  0.73390  1.0000
  H   H391      1.0  0.14034  0.52826  0.73729  1.0000
  H   H392      1.0  0.31937  0.58587  0.90412  1.0000
  C   C500      1.0  0.13002  0.56098  0.77308  1.0000
  C   C501      1.0  0.00382  0.58666  0.83096  1.0000
  H   H393      1.0  0.01893  0.47864  0.64741  1.0000
  C   C502      1.0  0.00015  0.56975  0.55227  1.0000
  H   H394      1.0  0.09368  0.64394  0.78189  1.0000
  C   C503      1.0  0.39679  0.61644  0.68521  1.0000
  Fe  Fe32      1.0  0.12742  0.64612  0.63322  1.0000
  C   C504      1.0  0.03972  0.42326  0.81140  1.0000
  H   H395      1.0  0.03100  0.46016  0.52199  1.0000
  H   H396      1.0  0.02860  0.41354  0.91978  1.0000
  H   H397      1.0  0.33348  0.35385  0.75780  1.0000
  H   H398      1.0  0.29288  0.53550  0.48110  1.0000
  H   H399      1.0  0.45336  0.58247  0.65399  1.0000
  C   C505      1.0  0.26467  0.47826  0.48517  1.0000
  C   C506      1.0  0.98605  0.58462  0.52831  1.0000
  C   C507      1.0  0.04010  0.46747  0.91139  1.0000
  H   H400      1.0  0.38157  0.60659  0.75996  1.0000
  H   H401      1.0  0.06446  0.43917  0.79715  1.0000
  C   C508      1.0  0.06194  0.63914  0.82928  1.0000
  H   H402      1.0  0.38347  0.62514  0.82283  1.0000
  H   H403      1.0  0.44430  0.45696  0.48728  1.0000
  C   C509      1.0  0.45887  0.50213  0.88008  1.0000
  H   H404      1.0  0.99409  0.54374  0.60294  1.0000
  C   C510      1.0  0.35777  0.63985  0.66959  1.0000
  C   C511      1.0  0.46807  0.49719  0.96596  1.0000
  C   C512      1.0  0.47193  0.47353  0.49507  1.0000
  C   C513      1.0  0.47988  0.48912  0.52920  1.0000
  C   C514      1.0  0.47601  0.65189  0.68192  1.0000
  S   S69       1.0  0.39287  0.69820  0.32333  1.0000
  Fe  Fe33      1.0  0.08927  0.94692  0.29643  1.0000
  Fe  Fe34      1.0  0.02637  0.88580  0.33358  1.0000
  C   C515      1.0  0.35897  0.79137  0.14554  1.0000
  H   H405      1.0  0.26130  0.86690  0.34147  1.0000
  Fe  Fe35      1.0  0.01304  0.92603  0.27350  1.0000
  Fe  Fe36      1.0  0.04441  0.96253  0.34854  1.0000
  S   S70       1.0  0.99357  0.91284  0.33122  1.0000
  H   H406      1.0  0.38176  0.87238  0.42823  1.0000
  S   S71       1.0  0.04294  0.89602  0.27604  1.0000
  S   S72       1.0  0.07548  0.93404  0.35432  1.0000
  C   C516      1.0  0.35257  0.76137  0.08902  1.0000
  S   S73       1.0  0.37443  0.90694  0.00422  1.0000
  S   S74       1.0  0.27571  0.84530  0.02429  1.0000
  Fe  Fe37      1.0  0.40812  0.89047  0.03683  1.0000
  S   S75       1.0  0.45050  0.92352  0.07990  1.0000
  S   S76       1.0  0.36249  0.83596  0.04850  1.0000
  S   S77       1.0  0.04208  0.70937  0.03591  1.0000
  H   H407      1.0  0.38755  0.82239  0.40437  1.0000
  C   C517      1.0  0.36543  0.92395  0.46641  1.0000
  C   C518      1.0  0.23550  0.80423  0.02175  1.0000
  C   C519      1.0  0.23500  0.77179  0.02441  1.0000
  C   C520      1.0  0.20222  0.73968  0.02530  1.0000
  C   C521      1.0  0.16981  0.73975  0.02277  1.0000
  H   H408      1.0  0.20424  0.67794  0.10988  1.0000
  C   C522      1.0  0.07863  0.83193  0.18649  1.0000
  C   C523      1.0  0.01125  0.78755  0.09850  1.0000
  C   C524      1.0  0.38878  0.89808  0.37662  1.0000
  C   C525      1.0  0.38286  0.97194  0.06562  1.0000
  C   C526      1.0  0.38657  0.95198  0.09297  1.0000
  C   C527      1.0  0.34911  0.96174  0.05117  1.0000
  C   C528      1.0  0.42534  0.89283  0.18547  1.0000
  C   C529      1.0  0.42295  0.89410  0.14765  1.0000
  C   C530      1.0  0.45255  0.91819  0.12751  1.0000
  H   H409      1.0  0.99461  0.66342  0.18673  1.0000
  H   H410      1.0  0.46305  0.71560  0.35160  1.0000
  H   H411      1.0  0.04547  0.95783  0.44977  1.0000
  H   H412      1.0  0.39803  0.87682  0.13417  1.0000
  C   C531      1.0  0.05606  0.73701  0.16718  1.0000
  H   H413      1.0  0.04178  0.72885  0.19233  1.0000
  H   H414      1.0  0.45050  0.96774  0.43424  1.0000
  C   C532      1.0  0.43238  0.73896  0.33239  1.0000
  C   C533      1.0  0.99013  0.82651  0.07676  1.0000
  H   H415      1.0  0.32268  0.87881  0.35094  1.0000
  C   C534      1.0  0.20769  0.95673  0.44651  1.0000
  H   H416      1.0  0.14553  0.77243  0.01711  1.0000
  C   C535      1.0  0.43261  0.77108  0.32634  1.0000
  C   C536      1.0  0.46394  0.71452  0.07435  1.0000
  H   H417      1.0  0.04956  0.89928  0.01831  1.0000
  H   H418      1.0  0.06486  0.69217  0.16589  1.0000
  H   H419      1.0  0.40915  0.77040  0.31527  1.0000
  C   C537      1.0  0.39699  0.86698  0.32655  1.0000
  S   S78       1.0  0.38051  0.76871  0.99419  1.0000
  S   S79       1.0  0.45831  0.91382  0.25196  1.0000
  C   C538      1.0  0.14173  0.86066  0.44011  1.0000
  Fe  Fe38      1.0  0.37831  0.82001  0.99716  1.0000
  C   C539      1.0  0.46297  0.80404  0.33434  1.0000
  C   C540      1.0  0.18677  0.65460  0.09421  1.0000
  S   S80       1.0  0.01310  0.83297  0.35800  1.0000
  H   H420      1.0  0.44323  0.84244  0.07827  1.0000
  H   H421      1.0  0.35975  0.90553  0.12641  1.0000
  C   C541      1.0  0.29559  0.92577  0.98024  1.0000
  H   H422      1.0  0.40935  0.72090  0.15354  1.0000
  C   C542      1.0  0.04747  0.92286  0.01355  1.0000
  C   C543      1.0  0.02192  0.80655  0.13088  1.0000
  C   C544      1.0  0.08037  0.86548  0.42853  1.0000
  C   C545      1.0  0.99561  0.79765  0.07155  1.0000
  H   H423      1.0  0.45785  0.96464  0.37152  1.0000
  C   C546      1.0  0.33829  0.77319  0.11573  1.0000
  H   H424      1.0  0.20195  0.71471  0.02830  1.0000
  C   C547      1.0  0.46831  0.74762  0.08404  1.0000
  C   C548      1.0  0.44939  0.75056  0.11327  1.0000
  H   H425      1.0  0.40200  0.87458  0.20063  1.0000
  H   H426      1.0  0.02246  0.71975  0.45681  1.0000
  H   H427      1.0  0.31867  0.97750  0.46823  1.0000
  C   C549      1.0  0.45438  0.80050  0.99104  1.0000
  H   H428      1.0  0.22869  0.66215  0.05788  1.0000
  H   H429      1.0  0.31134  0.91429  0.98961  1.0000
  H   H430      1.0  0.99603  0.98469  0.20781  1.0000
  C   C550      1.0  0.32291  0.91134  0.09198  1.0000
  H   H431      1.0  0.46457  0.75673  0.18779  1.0000
  C   C551      1.0  0.42069  0.68642  0.12174  1.0000
  C   C552      1.0  0.00247  0.78654  0.22840  1.0000
  S   S81       1.0  0.42502  0.87394  0.98619  1.0000
  C   C553      1.0  0.46296  0.74011  0.34654  1.0000
  H   H432      1.0  0.02316  0.84977  0.16127  1.0000
  C   C554      1.0  0.45317  0.73522  0.98972  1.0000
  H   H433      1.0  0.33703  0.74808  0.06535  1.0000
  C   C555      1.0  0.31903  0.93160  0.06505  1.0000
  C   C556      1.0  0.39306  0.93949  0.44099  1.0000
  H   H434      1.0  0.40921  0.81164  0.17215  1.0000
  C   C557      1.0  0.39386  0.79757  0.14879  1.0000
  H   H435      1.0  0.28204  0.95535  0.40943  1.0000
  H   H436      1.0  0.13348  0.68819  0.20196  1.0000
  C   C558      1.0  0.31421  0.89563  0.36405  1.0000
  C   C559      1.0  0.40837  0.78574  0.12200  1.0000
  H   H437      1.0  0.39707  0.81857  0.33943  1.0000
  P   P20       1.0  0.45312  0.79280  0.12537  1.0000
  C   C560      1.0  0.20310  0.80426  0.01889  1.0000
  C   C561      1.0  0.08932  0.83004  0.22159  1.0000
  C   C562      1.0  0.29073  0.93830  0.39706  1.0000
  S   S82       1.0  0.14423  0.96048  0.27739  1.0000
  C   C563      1.0  0.15948  0.74248  0.18390  1.0000
  C   C564      1.0  0.12615  0.89361  0.18310  1.0000
  C   C565      1.0  0.01590  0.83524  0.13616  1.0000
  H   H438      1.0  0.06960  0.94642  0.06476  1.0000
  C   C566      1.0  0.00031  0.84531  0.10906  1.0000
  C   C567      1.0  0.42117  0.73624  0.99183  1.0000
  C   C568      1.0  0.27926  0.88874  0.35860  1.0000
  S   S83       1.0  0.06095  0.97842  0.29044  1.0000
  C   C569      1.0  0.42157  0.76884  0.99234  1.0000
  H   H439      1.0  0.09855  0.71027  0.10866  1.0000
  H   H440      1.0  0.45231  0.70992  0.98916  1.0000
  H   H441      1.0  0.00176  0.66537  0.12035  1.0000
  C   C570      1.0  0.26756  0.91014  0.37501  1.0000
  S   S84       1.0  0.12929  0.69932  0.02769  1.0000
  H   H442      1.0  0.47541  0.97991  0.01688  1.0000
  C   C571      1.0  0.11324  0.83425  0.42049  1.0000
  C   C572      1.0  0.47204  0.78368  0.19508  1.0000
  H   H443      1.0  0.47946  0.86065  0.16230  1.0000
  C   C573      1.0  0.15085  0.69260  0.14686  1.0000
  H   H444      1.0  0.02009  0.81475  0.23274  1.0000
  H   H445      1.0  0.29974  0.88726  0.10141  1.0000
  C   C574      1.0  0.99636  0.93011  0.15767  1.0000
  H   H446      1.0  0.00960  0.82846  0.98761  1.0000
  C   C575      1.0  0.17035  0.77211  0.01897  1.0000
  C   C576      1.0  0.09548  0.75813  0.10365  1.0000
  C   C577      1.0  0.06966  0.71641  0.15261  1.0000
  H   H447      1.0  0.11079  0.76622  0.07900  1.0000
  H   H448      1.0  0.25983  0.77154  0.02674  1.0000
  Fe  Fe39      1.0  0.32974  0.85063  0.01293  1.0000
  C   C578      1.0  0.00513  0.69120  0.45486  1.0000
  Fe  Fe40      1.0  0.03195  0.72458  0.98135  1.0000
  H   H449      1.0  0.29258  0.92313  0.05469  1.0000
  C   C579      1.0  0.08884  0.72667  0.12055  1.0000
  C   C580      1.0  0.35666  0.92149  0.10591  1.0000
  C   C581      1.0  0.11750  0.86009  0.23764  1.0000
  H   H450      1.0  0.01474  0.76480  0.09390  1.0000
  H   H451      1.0  0.31147  0.76888  0.11292  1.0000
  H   H452      1.0  0.06059  0.81647  0.39914  1.0000
  H   H453      1.0  0.40224  0.66262  0.13625  1.0000
  H   H454      1.0  0.41280  0.95967  0.10355  1.0000
  Fe  Fe41      1.0  0.07775  0.69402  0.00646  1.0000
  H   H455      1.0  0.47497  0.78527  0.43045  1.0000
  C   C582      1.0  0.09782  0.86369  0.16703  1.0000
  H   H456      1.0  0.07554  0.80556  0.23681  1.0000
  H   H457      1.0  0.08618  0.80237  0.10386  1.0000
  H   H458      1.0  0.34810  0.80092  0.16608  1.0000
  C   C583      1.0  0.32550  0.94498  0.40273  1.0000
  C   C584      1.0  0.17601  0.76576  0.15525  1.0000
  C   C585      1.0  0.17964  0.75253  0.12232  1.0000
  C   C586      1.0  0.16683  0.71608  0.11806  1.0000
  C   C587      1.0  0.33767  0.92401  0.38612  1.0000
  H   H459      1.0  0.15736  0.91525  0.23107  1.0000
  H   H460      1.0  0.21796  0.97526  0.35692  1.0000
  C   C588      1.0  0.13582  0.89186  0.21843  1.0000
  H   H461      1.0  0.09090  0.86552  0.13953  1.0000
  H   H462      1.0  0.12483  0.85900  0.26519  1.0000
  H   H463      1.0  0.39833  0.75892  0.07073  1.0000
  H   H464      1.0  0.20333  0.82929  0.01690  1.0000
  H   H465      1.0  0.19108  0.67508  0.19390  1.0000
  C   C589      1.0  0.05521  0.97945  0.03387  1.0000
  H   H466      1.0  0.10637  0.91404  0.45831  1.0000
  H   H467      1.0  0.40143  0.86534  0.29819  1.0000
  H   H468      1.0  0.18552  0.79396  0.15832  1.0000
  H   H469      1.0  0.19179  0.77040  0.09978  1.0000
  H   H470      1.0  0.16868  0.70628  0.09201  1.0000
  C   C590      1.0  0.38750  0.76775  0.09203  1.0000
  C   C591      1.0  0.42860  0.95654  0.45297  1.0000
  Fe  Fe42      1.0  0.99747  0.65480  0.02274  1.0000
  C   C592      1.0  0.03361  0.92679  0.98114  1.0000
  H   H471      1.0  0.11495  0.81202  0.40947  1.0000
  C   C593      1.0  0.00644  0.76918  0.19841  1.0000
  C   C594      1.0  0.42509  0.71953  0.13165  1.0000
  C   C595      1.0  0.20038  0.95268  0.40953  1.0000
  H   H472      1.0  0.99116  0.75923  0.36393  1.0000
  H   H473      1.0  0.24065  0.90508  0.37048  1.0000
  C   C596      1.0  0.14679  0.70600  0.17971  1.0000
  H   H474      1.0  0.01411  0.94715  0.10346  1.0000
  H   H475      1.0  0.05672  0.86750  0.42345  1.0000
  H   H476      1.0  0.45508  0.82574  0.99127  1.0000
  C   C597      1.0  0.08258  0.83668  0.41470  1.0000
  H   H477      1.0  0.46275  0.82852  0.32947  1.0000
  H   H478      1.0  0.39595  0.71161  0.99295  1.0000
  P   P21       1.0  0.38317  0.93410  0.39341  1.0000
  C   C598      1.0  0.39455  0.84059  0.34979  1.0000
  C   C599      1.0  0.06060  0.76743  0.14906  1.0000
  H   H479      1.0  0.15611  0.75266  0.20924  1.0000
  C   C600      1.0  0.39432  0.89575  0.33987  1.0000
  C   C601      1.0  0.08138  0.77843  0.11775  1.0000
  H   H480      1.0  0.17636  0.93016  0.39910  1.0000
  C   C602      1.0  0.43998  0.68396  0.09296  1.0000
  C   C603      1.0  0.45750  0.91498  0.20384  1.0000
  H   H481      1.0  0.21923  0.98539  0.27593  1.0000
  P   P22       1.0  0.04158  0.79341  0.16619  1.0000
  C   C604      1.0  0.30510  0.96088  0.98927  1.0000
  H   H482      1.0  0.02254  0.94644  0.16927  1.0000
  C   C605      1.0  0.41365  0.97499  0.37039  1.0000
  C   C606      1.0  0.13957  0.88955  0.45441  1.0000
  C   C607      1.0  0.38620  0.87136  0.39982  1.0000
  H   H483      1.0  0.39646  0.91602  0.32140  1.0000
  H   H484      1.0  0.43610  0.65833  0.08471  1.0000
  H   H485      1.0  0.14041  0.91835  0.16838  1.0000
  C   C608      1.0  0.38926  0.84283  0.38641  1.0000
  C   C609      1.0  0.47016  0.80709  0.17023  1.0000
  H   H486      1.0  0.16235  0.98270  0.46733  1.0000
  H   H487      1.0  0.33778  0.90935  0.45812  1.0000
  C   C610      1.0  0.10870  0.89186  0.44831  1.0000
  H   H488      1.0  0.16551  0.85865  0.44386  1.0000
  C   C611      1.0  0.47022  0.84729  0.07537  1.0000
  C   C612      1.0  0.05868  0.94940  0.03972  1.0000
  C   C613      1.0  0.99141  0.93061  0.12019  1.0000
  H   H489      1.0  0.34349  0.96705  0.41947  1.0000
  C   C614      1.0  0.22398  0.97827  0.38535  1.0000
  H   H490      1.0  0.47882  0.71251  0.05195  1.0000
  C   C615      1.0  0.05498  0.98422  0.46060  1.0000
  C   C616      1.0  0.44886  0.98299  0.36368  1.0000
  H   H491      1.0  0.99575  0.86749  0.11317  1.0000
  H   H492      1.0  0.98766  0.78294  0.04659  1.0000
  C   C617      1.0  0.98123  0.73323  0.19244  1.0000
  H   H493      1.0  0.98276  0.71963  0.16875  1.0000
  C   C618      1.0  0.03972  0.98278  0.00208  1.0000
  S   S85       1.0  0.03194  0.77674  0.97748  1.0000
  C   C619      1.0  0.01562  0.66820  0.46987  1.0000
  H   H494      1.0  0.42138  0.98531  0.24814  1.0000
  C   C620      1.0  0.25433  0.95424  0.95479  1.0000
  C   C621      1.0  0.22873  0.86955  0.54187  1.0000
  S   S86       1.0  0.20243  0.94374  0.67339  1.0000
  C   C622      1.0  0.46618  0.68657  0.51805  1.0000
  S   S87       1.0  0.39933  0.90738  0.89706  1.0000
  C   C623      1.0  0.37675  0.93033  0.79689  1.0000
  S   S88       1.0  0.07228  0.71459  0.95302  1.0000
  H   H495      1.0  0.47598  0.95529  0.90573  1.0000
  H   H496      1.0  0.35114  0.66088  0.67103  1.0000
  H   H497      1.0  0.32052  0.97182  0.53410  1.0000
  S   S89       1.0  0.27128  0.93297  0.61376  1.0000
  Fe  Fe43      1.0  0.38630  0.88468  0.95480  1.0000
  Fe  Fe44      1.0  0.31864  0.94808  0.70851  1.0000
  S   S90       1.0  0.26368  0.90233  0.69672  1.0000
  S   S91       1.0  0.33693  0.95952  0.76799  1.0000
  Fe  Fe45      1.0  0.28663  0.89783  0.64431  1.0000
  S   S92       1.0  0.28144  0.84641  0.62323  1.0000
  Fe  Fe46      1.0  0.25381  0.94213  0.66757  1.0000
  S   S93       1.0  0.34256  0.94200  0.65671  1.0000
  S   S94       1.0  0.13405  0.70042  0.62059  1.0000
  C   C624      1.0  0.24022  0.80609  0.62444  1.0000
  C   C625      1.0  0.24008  0.77358  0.62442  1.0000
  C   C626      1.0  0.20773  0.74096  0.62421  1.0000
  C   C627      1.0  0.17526  0.74066  0.62302  1.0000
  C   C628      1.0  0.17538  0.77318  0.62283  1.0000
  C   C629      1.0  0.20771  0.80579  0.62400  1.0000
  H   H498      1.0  0.26513  0.77363  0.62464  1.0000
  H   H499      1.0  0.20796  0.71610  0.62422  1.0000
  H   H500      1.0  0.15033  0.77312  0.62198  1.0000
  H   H501      1.0  0.20750  0.83067  0.62401  1.0000
  H   H502      1.0  0.05353  0.96775  0.51559  1.0000
  H   H503      1.0  0.02511  0.90629  0.96077  1.0000
  C   C630      1.0  0.37883  0.91878  0.86135  1.0000
  C   C631      1.0  0.39089  0.92021  0.82594  1.0000
  H   H504      1.0  0.40045  0.95159  0.70217  1.0000
  C   C632      1.0  0.35102  0.94045  0.80276  1.0000
  C   C633      1.0  0.04268  0.66099  0.68224  1.0000
  C   C634      1.0  0.35242  0.92805  0.86716  1.0000
  C   C635      1.0  0.98735  0.80484  0.97629  1.0000
  C   C636      1.0  0.40876  0.94395  0.51460  1.0000
  H   H505      1.0  0.44965  0.67111  0.64620  1.0000
  H   H506      1.0  0.43703  0.97097  0.62915  1.0000
  H   H507      1.0  0.06906  0.67016  0.69331  1.0000
  C   C637      1.0  0.45724  0.97886  0.71025  1.0000
  S   S95       1.0  0.47862  0.66181  0.97213  1.0000
  H   H508      1.0  0.38686  0.93162  0.77014  1.0000
  H   H509      1.0  0.15820  0.67216  0.49999  1.0000
  H   H510      1.0  0.44859  0.75091  0.91419  1.0000
  C   C638      1.0  0.33926  0.93947  0.83825  1.0000
  H   H511      1.0  0.41486  0.94535  0.54291  1.0000
  S   S96       1.0  0.34066  0.82912  0.96280  1.0000
  C   C639      1.0  0.03911  0.67233  0.64825  1.0000
  H   H512      1.0  0.20280  0.78061  0.69458  1.0000
  C   C640      1.0  0.19803  0.90349  0.50336  1.0000
  H   H513      1.0  0.45934  0.70418  0.50399  1.0000
  C   C641      1.0  0.25020  0.89955  0.52111  1.0000
  C   C642      1.0  0.19360  0.77231  0.72171  1.0000
  C   C643      1.0  0.15553  0.97354  0.49473  1.0000
  C   C644      1.0  0.16515  0.72555  0.76577  1.0000
  C   C645      1.0  0.17190  0.75104  0.79228  1.0000
  C   C646      1.0  0.18840  0.78733  0.78335  1.0000
  C   C647      1.0  0.20012  0.79783  0.74800  1.0000
  P   P23       1.0  0.19879  0.82035  0.81787  1.0000
  C   C648      1.0  0.16219  0.80864  0.84853  1.0000
  C   C649      1.0  0.23835  0.82541  0.83972  1.0000
  C   C650      1.0  0.23766  0.81481  0.87546  1.0000
  C   C651      1.0  0.26883  0.81925  0.89170  1.0000
  C   C652      1.0  0.30054  0.83331  0.87210  1.0000
  C   C653      1.0  0.30104  0.84263  0.83621  1.0000
  C   C654      1.0  0.27016  0.83880  0.82007  1.0000
  C   C655      1.0  0.16810  0.82838  0.88019  1.0000
  C   C656      1.0  0.14004  0.82003  0.90404  1.0000
  C   C657      1.0  0.10571  0.79242  0.89610  1.0000
  C   C658      1.0  0.09938  0.77325  0.86421  1.0000
  C   C659      1.0  0.12739  0.78155  0.84028  1.0000
  C   C660      1.0  0.20716  0.86171  0.79771  1.0000
  C   C661      1.0  0.18231  0.86167  0.77341  1.0000
  C   C662      1.0  0.18875  0.89331  0.75691  1.0000
  C   C663      1.0  0.21976  0.92524  0.76488  1.0000
  C   C664      1.0  0.24423  0.92564  0.78960  1.0000
  C   C665      1.0  0.23794  0.89406  0.80614  1.0000
  H   H514      1.0  0.27870  0.90972  0.52013  1.0000
  H   H515      1.0  0.46564  0.70508  0.90230  1.0000
  H   H516      1.0  0.13464  0.66105  0.94479  1.0000
  H   H517      1.0  0.16431  0.74246  0.81972  1.0000
  H   H518      1.0  0.21471  0.82569  0.74058  1.0000
  H   H519      1.0  0.21325  0.80285  0.89087  1.0000
  H   H520      1.0  0.26841  0.81165  0.91947  1.0000
  H   H521      1.0  0.32482  0.83703  0.88462  1.0000
  H   H522      1.0  0.32556  0.85328  0.82097  1.0000
  H   H523      1.0  0.27122  0.84659  0.79228  1.0000
  H   H524      1.0  0.19448  0.85016  0.88643  1.0000
  H   H525      1.0  0.14476  0.83491  0.92872  1.0000
  H   H526      1.0  0.08394  0.78598  0.91462  1.0000
  H   H527      1.0  0.07265  0.75199  0.85805  1.0000
  H   H528      1.0  0.12157  0.76698  0.81533  1.0000
  H   H529      1.0  0.15828  0.83708  0.76671  1.0000
  H   H530      1.0  0.17008  0.89312  0.73735  1.0000
  H   H531      1.0  0.22503  0.94956  0.75139  1.0000
  H   H532      1.0  0.26854  0.95034  0.79533  1.0000
  H   H533      1.0  0.25741  0.89513  0.82506  1.0000
  C   C666      1.0  0.26548  0.90492  0.95922  1.0000
  H   H534      1.0  0.14776  0.96303  0.67697  1.0000
  H   H535      1.0  0.44155  0.66537  0.85169  1.0000
  S   S97       1.0  0.98539  0.67064  0.96894  1.0000
  H   H536      1.0  0.15206  0.69757  0.77261  1.0000
  C   C667      1.0  0.17658  0.87268  0.52359  1.0000
  C   C668      1.0  0.43639  0.95884  0.48958  1.0000
  H   H537      1.0  0.35190  0.91463  0.52254  1.0000
  C   C669      1.0  0.19191  0.85603  0.54298  1.0000
  H   H538      1.0  0.24062  0.85678  0.55721  1.0000
  C   C670      1.0  0.12947  0.65897  0.49695  1.0000
  C   C671      1.0  0.28439  0.97510  0.97601  1.0000
  H   H539      1.0  0.31995  0.94784  0.84351  1.0000
  C   C672      1.0  0.47445  0.67233  0.65347  1.0000
  H   H540      1.0  0.17531  0.83264  0.55902  1.0000
  H   H541      1.0  0.14791  0.86153  0.52452  1.0000
  H   H542      1.0  0.98051  0.66312  0.82006  1.0000
  H   H543      1.0  0.15563  0.91439  0.55504  1.0000
  C   C673      1.0  0.15137  0.93483  0.54357  1.0000
  H   H544      1.0  0.34270  0.92721  0.89401  1.0000
  H   H545      1.0  0.12087  0.67194  0.55033  1.0000
  C   C674      1.0  0.16143  0.94656  0.50812  1.0000
  C   C675      1.0  0.44056  0.65864  0.82362  1.0000
  C   C676      1.0  0.37330  0.92657  0.50305  1.0000
  H   H546      1.0  0.17063  0.71655  0.70975  1.0000
  H   H547      1.0  0.25821  0.87764  0.95309  1.0000
  H   H548      1.0  0.06272  0.69057  0.63326  1.0000
  C   C677      1.0  0.23503  0.91647  0.50189  1.0000
  C   C678      1.0  0.17575  0.73618  0.73041  1.0000
  H   H549      1.0  0.04112  0.67940  0.48337  1.0000
  C   C679      1.0  0.47105  0.66221  0.76803  1.0000
  C   C680      1.0  0.47207  0.67216  0.80385  1.0000
  H   H550      1.0  0.44325  0.94892  0.96201  1.0000
  H   H551      1.0  0.41348  0.65577  0.54075  1.0000
  Fe  Fe47      1.0  0.02650  0.65931  0.94374  1.0000
  H   H552      1.0  0.00257  0.66800  0.60676  1.0000
  C   C681      1.0  0.47405  0.75833  0.90179  1.0000
  H   H553      1.0  0.46394  0.97185  0.49850  1.0000
  H   H554      1.0  0.41149  0.91351  0.82090  1.0000
  H   H555      1.0  0.23836  0.96527  0.94477  1.0000
  H   H556      1.0  0.08203  0.66375  0.84131  1.0000
  Fe  Fe48      1.0  0.32539  0.97758  0.62902  1.0000
  H   H557      1.0  0.45941  0.95527  0.70593  1.0000
  H   H558      1.0  0.12769  0.94032  0.59228  1.0000
  C   C682      1.0  0.00522  0.65960  0.63337  1.0000
  C   C683      1.0  0.13529  0.94944  0.56494  1.0000
  C   C684      1.0  0.47198  0.96565  0.96148  1.0000
  H   H559      1.0  0.36175  0.95900  0.95196  1.0000
  H   H560      1.0  0.01972  0.95954  0.94976  1.0000
  H   H561      1.0  0.40486  0.66775  0.70212  1.0000
  C   C685      1.0  0.43999  0.65906  0.53889  1.0000
  C   C686      1.0  0.12919  0.97594  0.55124  1.0000
  H   H562      1.0  0.39834  0.98426  0.59056  1.0000
  C   C687      1.0  0.42405  0.97690  0.70776  1.0000
  P   P24       1.0  0.17720  0.92429  0.47833  1.0000
  C   C688      1.0  0.24481  0.91913  0.94650  1.0000
  C   C689      1.0  0.03024  0.95687  0.97518  1.0000
  H   H563      1.0  0.22144  0.90295  0.93026  1.0000
  C   C690      1.0  0.99107  0.77514  0.96840  1.0000
  H   H564      1.0  0.41596  0.98065  0.91574  1.0000
  H   H565      1.0  0.25239  0.93933  0.48588  1.0000
  H   H566      1.0  0.22599  0.97464  0.59915  1.0000
  C   C691      1.0  0.38454  0.98451  0.95848  1.0000
  C   C692      1.0  0.10840  0.65878  0.52540  1.0000
  C   C693      1.0  0.20488  0.98564  0.67574  1.0000
  Fe  Fe49      1.0  0.91280  0.10646  0.27369  1.0000
  S   S98       1.0  0.87283  0.12445  0.26638  1.0000
  S   S99       1.0  0.95550  0.11953  0.22970  1.0000
  Fe  Fe50      1.0  0.88151  0.07511  0.35080  1.0000
  S   S100      1.0  0.84057  0.09237  0.34638  1.0000
  S   S101      1.0  0.87446  0.03483  0.39505  1.0000
  Fe  Fe51      1.0  0.83282  0.07198  0.29008  1.0000
  S   S102      1.0  0.78105  0.03199  0.26395  1.0000
  Fe  Fe52      1.0  0.88536  0.14329  0.32336  1.0000
  S   S103      1.0  0.88968  0.19630  0.33684  1.0000
  S   S104      1.0  0.87190  0.05249  0.29464  1.0000
  S   S105      1.0  0.92739  0.12761  0.33073  1.0000
  C   C694      1.0  0.86371  0.05623  0.00783  1.0000
  S   S106      1.0  0.63443  0.02218  0.30339  1.0000
  Fe  Fe53      1.0  0.50233  0.15189  0.04574  1.0000
  S   S107      1.0  0.54155  0.21049  0.05005  1.0000
  C   C695      1.0  0.70835  0.99708  0.26980  1.0000
  H   H567      1.0  0.87383  0.19659  0.98038  1.0000
  C   C696      1.0  0.92916  0.01491  0.32049  1.0000
  S   S108      1.0  0.54328  0.13750  0.02726  1.0000
  C   C697      1.0  0.80596  0.14091  0.00752  1.0000
  C   C698      1.0  0.83378  0.27975  0.10838  1.0000
  H   H568      1.0  0.86599  0.21573  0.04846  1.0000
  H   H569      1.0  0.83341  0.02133  0.05100  1.0000
  C   C699      1.0  0.84320  0.29840  0.14068  1.0000
  Fe  Fe54      1.0  0.58177  0.19651  0.02851  1.0000
  H   H570      1.0  0.87597  0.13743  0.19261  1.0000
  C   C700      1.0  0.60979  0.28658  0.13792  1.0000
  H   H571      1.0  0.90535  0.20167  0.23862  1.0000
  H   H572      1.0  0.76371  0.28254  0.03158  1.0000
  C   C701      1.0  0.50000  0.02986  0.12342  1.0000
  H   H573      1.0  0.60232  0.03280  0.37568  1.0000
  C   C702      1.0  0.92689  0.00908  0.03114  1.0000
  C   C703      1.0  0.81184  0.01722  0.17546  1.0000
  C   C704      1.0  0.65181  0.03941  0.39636  1.0000
  C   C705      1.0  0.92669  0.11030  0.16015  1.0000
  C   C706      1.0  0.92968  0.11249  0.12229  1.0000
  H   H574      1.0  0.88571  0.08665  0.45219  1.0000
  H   H575      1.0  0.90694  0.26945  0.33709  1.0000
  H   H576      1.0  0.64639  0.27667  0.01909  1.0000
  H   H577      1.0  0.90067  0.09625  0.17256  1.0000
  H   H578      1.0  0.90569  0.10039  0.10615  1.0000
  C   C707      1.0  0.62602  0.00285  0.05933  1.0000
  H   H579      1.0  0.71214  0.15404  0.44717  1.0000
  C   C708      1.0  0.93118  0.23643  0.33474  1.0000
  H   H580      1.0  0.83693  0.10946  0.42981  1.0000
  C   C709      1.0  0.62256  0.04484  0.39635  1.0000
  H   H581      1.0  0.92294  0.26967  0.03753  1.0000
  H   H582      1.0  0.92446  0.05654  0.04207  1.0000
  C   C710      1.0  0.88937  0.18306  0.06195  1.0000
  C   C711      1.0  0.87814  0.09040  0.99344  1.0000
  H   H583      1.0  0.88386  0.01647  0.21084  1.0000
  H   H584      1.0  0.77190  0.15489  0.45722  1.0000
  H   H585      1.0  0.58640  0.26838  0.15306  1.0000
  C   C712      1.0  0.74051  0.02770  0.27887  1.0000
  C   C713      1.0  0.86332  0.01183  0.19148  1.0000
  H   H586      1.0  0.71385  0.01316  0.36427  1.0000
  C   C714      1.0  0.67469  0.02223  0.29652  1.0000
  C   C715      1.0  0.70688  0.05261  0.30614  1.0000
  C   C716      1.0  0.73975  0.05501  0.29803  1.0000
  H   H587      1.0  0.70638  0.07445  0.31968  1.0000
  H   H588      1.0  0.76448  0.07847  0.30551  1.0000
  C   C717      1.0  0.86505  0.03089  0.44220  1.0000
  H   H589      1.0  0.82730  0.16120  0.43197  1.0000
  C   C718      1.0  0.57314  0.00774  0.04862  1.0000
  H   H590      1.0  0.65415  0.02308  0.37575  1.0000
  H   H591      1.0  0.53702  0.10554  0.47681  1.0000
  C   C719      1.0  0.56249  0.21592  0.25466  1.0000
  C   C720      1.0  0.53966  0.21012  0.28354  1.0000
  C   C721      1.0  0.52096  0.17639  0.29909  1.0000
  C   C722      1.0  0.52466  0.14829  0.28552  1.0000
  C   C723      1.0  0.54693  0.15363  0.25601  1.0000
  C   C724      1.0  0.56632  0.18788  0.24106  1.0000
  P   P25       1.0  0.55200  0.11737  0.23861  1.0000
  C   C725      1.0  0.58597  0.11394  0.26360  1.0000
  C   C726      1.0  0.51062  0.07544  0.24218  1.0000
  C   C727      1.0  0.51077  0.04352  0.24841  1.0000
  C   C728      1.0  0.63422  0.27574  0.12831  1.0000
  C   C729      1.0  0.48572  0.23619  0.18766  1.0000
  H   H592      1.0  0.56134  0.31163  0.21170  1.0000
  H   H593      1.0  0.65468  0.15027  0.05473  1.0000
  C   C730      1.0  0.60389  0.09770  0.24808  1.0000
  C   C731      1.0  0.62850  0.09290  0.26810  1.0000
  C   C732      1.0  0.63512  0.10383  0.30385  1.0000
  C   C733      1.0  0.61739  0.11995  0.31955  1.0000
  C   C734      1.0  0.59289  0.12503  0.29953  1.0000
  C   C735      1.0  0.56366  0.12617  0.19172  1.0000
  C   C736      1.0  0.59963  0.14552  0.18116  1.0000
  C   C737      1.0  0.60852  0.15334  0.14497  1.0000
  C   C738      1.0  0.58166  0.14234  0.11919  1.0000
  C   C739      1.0  0.54590  0.12400  0.12954  1.0000
  C   C740      1.0  0.53687  0.11583  0.16561  1.0000
  C   C741      1.0  0.92023  0.03147  0.05265  1.0000
  H   H594      1.0  0.50269  0.17171  0.32100  1.0000
  H   H595      1.0  0.50952  0.25934  0.23844  1.0000
  H   H596      1.0  0.50954  0.12230  0.29766  1.0000
  H   H597      1.0  0.58401  0.19299  0.21859  1.0000
  H   H598      1.0  0.53543  0.04313  0.25162  1.0000
  H   H599      1.0  0.54784  0.05308  0.46926  1.0000
  H   H600      1.0  0.97069  0.24518  0.12416  1.0000
  C   C742      1.0  0.84413  0.04771  0.03965  1.0000
  C   C743      1.0  0.94391  0.20105  0.20323  1.0000
  H   H601      1.0  0.59811  0.08774  0.22085  1.0000
  H   H602      1.0  0.64164  0.07957  0.25632  1.0000
  H   H603      1.0  0.65341  0.09897  0.31954  1.0000
  H   H604      1.0  0.62220  0.12791  0.34743  1.0000
  H   H605      1.0  0.57898  0.13695  0.31242  1.0000
  H   H606      1.0  0.62082  0.15506  0.20085  1.0000
  H   H607      1.0  0.63622  0.16845  0.13677  1.0000
  C   C744      1.0  0.49195  0.26679  0.98818  1.0000
  S   S109      1.0  0.63520  0.21214  0.05382  1.0000
  H   H608      1.0  0.50894  0.10200  0.17288  1.0000
  H   H609      1.0  0.92145  0.15863  0.07202  1.0000
  H   H610      1.0  0.88465  0.14252  0.99938  1.0000
  H   H611      1.0  0.52510  0.11647  0.10959  1.0000
  C   C745      1.0  0.85708  0.28754  0.16862  1.0000
  C   C746      1.0  0.81028  0.16156  0.27037  1.0000
  C   C747      1.0  0.78012  0.14074  0.24943  1.0000
  C   C748      1.0  0.77893  0.15029  0.21394  1.0000
  C   C749      1.0  0.80789  0.18065  0.19931  1.0000
  C   C750      1.0  0.83814  0.20209  0.22033  1.0000
  C   C751      1.0  0.83909  0.19212  0.25593  1.0000
  P   P26       1.0  0.87605  0.24139  0.20193  1.0000
  C   C752      1.0  0.89402  0.27588  0.23553  1.0000
  C   C753      1.0  0.90994  0.23053  0.18957  1.0000
  C   C754      1.0  0.91836  0.21033  0.21289  1.0000
  H   H612      1.0  0.95215  0.08896  0.39297  1.0000
  C   C755      1.0  0.58404  0.07627  0.01873  1.0000
  C   C756      1.0  0.95533  0.23461  0.14838  1.0000
  C   C757      1.0  0.92923  0.24329  0.15755  1.0000
  H   H613      1.0  0.96343  0.21140  0.33267  1.0000
  H   H614      1.0  0.90439  0.03990  0.10441  1.0000
  C   C758      1.0  0.54364  0.29628  0.15684  1.0000
  H   H615      1.0  0.65433  0.01297  0.05575  1.0000
  H   H616      1.0  0.49765  0.05168  0.02305  1.0000
  C   C759      1.0  0.86177  0.25783  0.16442  1.0000
  C   C760      1.0  0.85359  0.24013  0.13121  1.0000
  C   C761      1.0  0.83255  0.98748  0.13529  1.0000
  H   H617      1.0  0.50038  0.02138  0.34308  1.0000
  H   H618      1.0  0.81154  0.15413  0.29788  1.0000
  H   H619      1.0  0.75766  0.11721  0.26062  1.0000
  H   H620      1.0  0.75558  0.13395  0.19773  1.0000
  H   H621      1.0  0.80628  0.18719  0.17175  1.0000
  H   H622      1.0  0.86209  0.20810  0.27270  1.0000
  C   C762      1.0  0.67463  0.07535  0.45019  1.0000
  C   C763      1.0  0.76365  0.16210  0.01076  1.0000
  H   H623      1.0  0.62593  0.04445  0.02825  1.0000
  H   H624      1.0  0.92453  0.26018  0.13975  1.0000
  C   C764      1.0  0.95473  0.24518  0.04891  1.0000
  H   H625      1.0  0.75669  0.17922  0.06277  1.0000
  H   H626      1.0  0.93676  0.05222  0.17020  1.0000
  C   C765      1.0  0.96753  0.98921  0.31530  1.0000
  C   C766      1.0  0.67780  0.05465  0.42303  1.0000
  H   H627      1.0  0.85737  0.21745  0.12717  1.0000
  H   H628      1.0  0.83297  0.23754  0.07775  1.0000
  C   C767      1.0  0.48871  0.23966  0.15040  1.0000
  C   C768      1.0  0.75945  0.00630  0.37120  1.0000
  C   C769      1.0  0.93031  0.30177  0.23494  1.0000
  C   C770      1.0  0.97943  0.05923  0.40000  1.0000
  C   C771      1.0  0.96195  0.21268  0.17068  1.0000
  H   H629      1.0  0.84295  0.26007  0.26048  1.0000
  H   H630      1.0  0.58552  0.31438  0.06143  1.0000
  H   H631      1.0  0.78679  0.99362  0.12519  1.0000
  H   H632      1.0  0.97834  0.05252  0.37204  1.0000
  H   H633      1.0  0.58854  0.14851  0.09122  1.0000
  H   H634      1.0  0.95591  0.10529  0.45655  1.0000
  C   C772      1.0  0.95443  0.04525  0.30217  1.0000
  H   H635      1.0  0.70814  0.22863  0.05145  1.0000
  H   H636      1.0  0.89109  0.15846  0.13102  1.0000
  H   H637      1.0  0.93589  0.01668  0.00386  1.0000
  C   C773      1.0  0.50318  0.28546  0.33801  1.0000
  C   C774      1.0  0.70335  0.30846  0.01109  1.0000
  C   C775      1.0  0.51185  0.26232  0.20956  1.0000
  C   C776      1.0  0.93196  0.00018  0.17312  1.0000
  C   C777      1.0  0.89026  0.21493  0.05292  1.0000
  C   C778      1.0  0.92159  0.18293  0.06532  1.0000
  C   C779      1.0  0.77546  0.13194  0.45689  1.0000
  Fe  Fe55      1.0  0.52921  0.21257  0.99169  1.0000
  C   C780      1.0  0.81254  0.10657  0.44124  1.0000
  C   C781      1.0  0.67353  0.24896  0.03624  1.0000
  H   H638      1.0  0.59574  0.06838  0.42371  1.0000
  C   C782      1.0  0.60664  0.12630  0.97751  1.0000
  C   C783      1.0  0.54095  0.29208  0.19426  1.0000
  C   C784      1.0  0.75491  0.06974  0.46908  1.0000
  C   C785      1.0  0.85326  0.10781  0.04275  1.0000
  C   C786      1.0  0.83878  0.07332  0.05703  1.0000
  P   P27       1.0  0.84755  0.14168  0.06528  1.0000
  C   C787      1.0  0.83655  0.12900  0.11163  1.0000
  C   C788      1.0  0.87288  0.11606  0.01073  1.0000
  C   C789      1.0  0.96512  0.08007  0.41185  1.0000
  C   C790      1.0  0.58177  0.09104  0.98599  1.0000
  S   S110      1.0  0.96504  0.12986  0.05686  1.0000
  C   C791      1.0  0.93178  0.26914  0.33568  1.0000
  C   C792      1.0  0.86341  0.14077  0.13773  1.0000
  C   C793      1.0  0.85489  0.12887  0.17301  1.0000
  C   C794      1.0  0.81959  0.10531  0.18271  1.0000
  C   C795      1.0  0.79263  0.09354  0.15694  1.0000
  C   C796      1.0  0.80103  0.10521  0.12148  1.0000
  C   C797      1.0  0.81286  0.14713  0.04435  1.0000
  C   C798      1.0  0.79470  0.16073  0.06424  1.0000
  H   H639      1.0  0.80121  0.99522  0.38489  1.0000
  C   C799      1.0  0.53811  0.99943  0.46692  1.0000
  C   C800      1.0  0.95731  0.12471  0.18172  1.0000
  H   H640      1.0  0.51948  0.28496  0.31631  1.0000
  H   H641      1.0  0.82388  0.06612  0.08180  1.0000
  C   C801      1.0  0.67183  0.27764  0.02133  1.0000
  C   C802      1.0  0.90885  0.02191  0.08798  1.0000
  H   H642      1.0  0.72070  0.21227  0.46706  1.0000
  H   H643      1.0  0.81313  0.09588  0.21013  1.0000
  H   H644      1.0  0.76531  0.07494  0.16450  1.0000
  H   H645      1.0  0.77996  0.09507  0.10160  1.0000
  H   H646      1.0  0.80022  0.16661  0.09248  1.0000
  H   H647      1.0  0.82186  0.28749  0.08727  1.0000
  H   H648      1.0  0.97864  0.21281  0.06045  1.0000
  C   C803      1.0  0.63494  0.13329  0.03521  1.0000
  C   C804      1.0  0.52757  0.00598  0.99149  1.0000
  H   H649      1.0  0.50683  0.16858  0.14311  1.0000
  P   P28       1.0  0.55173  0.03104  0.03056  1.0000
  C   C805      1.0  0.51758  0.26955  0.13501  1.0000
  C   C806      1.0  0.52216  0.03434  0.06261  1.0000
  S   S111      1.0  0.52499  0.99439  0.42064  1.0000
  C   C807      1.0  0.77011  0.16807  0.04750  1.0000
  C   C808      1.0  0.66442  0.29826  0.10824  1.0000
  C   C809      1.0  0.94899  0.03703  0.17903  1.0000
  H   H650      1.0  0.68317  0.28969  0.10059  1.0000
  C   C810      1.0  0.61019  0.09798  0.04372  1.0000
  C   C811      1.0  0.85003  0.99711  0.45861  1.0000
  C   C812      1.0  0.96349  0.23638  0.33316  1.0000
  H   H651      1.0  0.86683  0.31143  0.30167  1.0000
  H   H652      1.0  0.77223  0.02007  0.34662  1.0000
  C   C813      1.0  0.64471  0.08005  0.45049  1.0000
  H   H653      1.0  0.94990  0.18500  0.22115  1.0000
  H   H654      1.0  0.57693  0.24207  0.24255  1.0000
  C   C814      1.0  0.49831  0.04529  0.05097  1.0000
  H   H655      1.0  0.94969  0.06724  0.29741  1.0000
  S   S112      1.0  0.86058  0.25523  0.97903  1.0000
  C   C815      1.0  0.96435  0.30155  0.33498  1.0000
  C   C816      1.0  0.90388  0.98967  0.10199  1.0000
  C   C817      1.0  0.92281  0.24583  0.04650  1.0000
  C   C818      1.0  0.96323  0.12964  0.10510  1.0000
  C   C819      1.0  0.83961  0.25113  0.10333  1.0000
  H   H656      1.0  0.61116  0.08770  0.06989  1.0000
  C   C820      1.0  0.67545  0.99408  0.27910  1.0000
  H   H657      1.0  0.50055  0.02374  0.15150  1.0000
  H   H658      1.0  0.50198  0.25163  0.03987  1.0000
  C   C821      1.0  0.70670  0.25068  0.03967  1.0000
  H   H659      1.0  0.53616  0.23161  0.29376  1.0000
  C   C822      1.0  0.73815  0.28114  0.02851  1.0000
  H   H660      1.0  0.90556  0.01438  0.33095  1.0000
  H   H661      1.0  0.84176  0.03771  0.22404  1.0000
  C   C823      1.0  0.61903  0.06515  0.42338  1.0000
  C   C824      1.0  0.88447  0.30856  0.28309  1.0000
  H   H662      1.0  0.94828  0.29992  0.21610  1.0000
  C   C825      1.0  0.87431  0.06048  0.46408  1.0000
  C   C826      1.0  0.72659  0.00243  0.38119  1.0000
  C   C827      1.0  0.87118  0.27933  0.25996  1.0000
  C   C828      1.0  0.95409  0.21372  0.05862  1.0000
  H   H663      1.0  0.51975  0.27144  0.10609  1.0000
  C   C829      1.0  0.96730  0.08926  0.44805  1.0000
  C   C830      1.0  0.80842  0.99909  0.14344  1.0000
  H   H664      1.0  0.65195  0.17497  0.99596  1.0000
  H   H665      1.0  0.49861  0.17292  0.20846  1.0000
  C   C831      1.0  0.60982  0.02073  0.04391  1.0000
  C   C832      1.0  0.80707  0.13571  0.44251  1.0000
  H   H666      1.0  0.74532  0.16868  0.99759  1.0000
  H   H667      1.0  0.70008  0.04995  0.42230  1.0000
  C   C833      1.0  0.74899  0.09886  0.47021  1.0000
  H   H668      1.0  0.54278  0.02076  0.10937  1.0000
  C   C834      1.0  0.48960  0.26428  0.02550  1.0000
  C   C835      1.0  0.63335  0.14733  0.00201  1.0000
  H   H669      1.0  0.62943  0.24952  0.13572  1.0000
  C   C836      1.0  0.73657  0.31039  0.01489  1.0000
  H   H670      1.0  0.79086  0.05114  0.45285  1.0000
  C   C837      1.0  0.52362  0.02769  0.09926  1.0000
  H   H671      1.0  0.64081  0.09453  0.47204  1.0000
  C   C838      1.0  0.78649  0.07363  0.45444  1.0000
  H   H672      1.0  0.82012  0.13128  0.99132  1.0000
  C   C839      1.0  0.83936  0.02374  0.19927  1.0000
  H   H673      1.0  0.79286  0.02572  0.18229  1.0000
  H   H674      1.0  0.60053  0.13021  0.46377  1.0000
  C   C840      1.0  0.78149  0.14845  0.99082  1.0000
  H   H675      1.0  0.91574  0.99055  0.47603  1.0000
  H   H676      1.0  0.48088  0.06354  0.32330  1.0000
  H   H677      1.0  0.86379  0.30247  0.19339  1.0000
  S   S113      1.0  0.48772  0.15478  0.98800  1.0000
  C   C841      1.0  0.86035  0.99403  0.15912  1.0000
  C   C842      1.0  0.77571  0.99211  0.39273  1.0000
  C   C843      1.0  0.48106  0.15168  0.15525  1.0000
  Fe  Fe56      1.0  0.86625  0.31015  0.97778  1.0000
  H   H678      1.0  0.86811  0.03648  0.99456  1.0000
  H   H679      1.0  0.97979  0.26876  0.04247  1.0000
  C   C844      1.0  0.50881  0.31822  0.35119  1.0000
  C   C845      1.0  0.93520  0.98632  0.32646  1.0000
  C   C846      1.0  0.48769  0.31878  0.37926  1.0000
  C   C847      1.0  0.71390  0.15997  0.47556  1.0000
  C   C848      1.0  0.95409  0.11467  0.82066  1.0000
  C   C849      1.0  0.81966  0.00321  0.75147  1.0000
  S   S114      1.0  0.52816  0.10884  0.92366  1.0000
  H   H680      1.0  0.49603  0.13039  0.78985  1.0000
  H   H681      1.0  0.97028  0.29263  0.90922  1.0000
  H   H682      1.0  0.64521  0.15459  0.51280  1.0000
  H   H683      1.0  0.72116  0.04542  0.60108  1.0000
  C   C850      1.0  0.92569  0.99816  0.82902  1.0000
  Fe  Fe57      1.0  0.59660  0.08539  0.71103  1.0000
  S   S115      1.0  0.65031  0.13267  0.70010  1.0000
  S   S116      1.0  0.57160  0.07817  0.76748  1.0000
  Fe  Fe58      1.0  0.58979  0.05865  0.63030  1.0000
  S   S117      1.0  0.64269  0.10600  0.61608  1.0000
  S   S118      1.0  0.56142  0.01232  0.58959  1.0000
  Fe  Fe59      1.0  0.66156  0.09500  0.66836  1.0000
  S   S119      1.0  0.71473  0.09625  0.67121  1.0000
  Fe  Fe60      1.0  0.62538  0.13815  0.64954  1.0000
  S   S120      1.0  0.62335  0.18862  0.63823  1.0000
  S   S121      1.0  0.60930  0.04691  0.68222  1.0000
  S   S122      1.0  0.57088  0.09144  0.66081  1.0000
  C   C851      1.0  0.92331  0.21354  0.95240  1.0000
  C   C852      1.0  0.72520  0.26395  0.61470  1.0000
  C   C853      1.0  0.69474  0.23099  0.62218  1.0000
  C   C854      1.0  0.66297  0.22965  0.63220  1.0000
  C   C855      1.0  0.66220  0.26152  0.63615  1.0000
  C   C856      1.0  0.69297  0.29458  0.62968  1.0000
  H   H684      1.0  0.74949  0.26479  0.60602  1.0000
  H   H685      1.0  0.69557  0.20658  0.61943  1.0000
  H   H686      1.0  0.63768  0.26061  0.64402  1.0000
  H   H687      1.0  0.86696  0.99909  0.75530  1.0000
  H   H688      1.0  0.80151  0.03528  0.54681  1.0000
  C   C857      1.0  0.74954  0.02452  0.67293  1.0000
  C   C858      1.0  0.74835  0.05644  0.67211  1.0000
  C   C859      1.0  0.71564  0.05593  0.67469  1.0000
  C   C860      1.0  0.68428  0.02326  0.67889  1.0000
  C   C861      1.0  0.56645  0.23779  0.85984  1.0000
  H   H689      1.0  0.77482  0.02520  0.67065  1.0000
  H   H690      1.0  0.77278  0.08159  0.66891  1.0000
  C   C862      1.0  0.56265  0.08930  0.81132  1.0000
  C   C863      1.0  0.53570  0.06200  0.83167  1.0000
  C   C864      1.0  0.52657  0.06865  0.86585  1.0000
  C   C865      1.0  0.54359  0.10298  0.88073  1.0000
  C   C866      1.0  0.57098  0.13069  0.86071  1.0000
  C   C867      1.0  0.58073  0.12379  0.82635  1.0000
  H   H691      1.0  0.52139  0.03531  0.82078  1.0000
  C   C868      1.0  0.94391  0.10462  0.55787  1.0000
  H   H692      1.0  0.58443  0.15732  0.87163  1.0000
  H   H693      1.0  0.60210  0.14506  0.81147  1.0000
  H   H694      1.0  0.66924  0.21801  0.94549  1.0000
  H   H695      1.0  0.72965  0.30066  0.78360  1.0000
  S   S123      1.0  0.97874  0.14325  0.95234  1.0000
  H   H696      1.0  0.65899  0.02238  0.68099  1.0000
  C   C869      1.0  0.59205  0.13023  0.49106  1.0000
  C   C870      1.0  0.54752  0.03175  0.48445  1.0000
  C   C871      1.0  0.97748  0.01745  0.79122  1.0000
  C   C872      1.0  0.80436  0.30220  0.75205  1.0000
  H   H697      1.0  0.56210  0.13017  0.58906  1.0000
  C   C873      1.0  0.96826  0.14672  0.83965  1.0000
  C   C874      1.0  0.54434  0.11521  0.53422  1.0000
  H   H698      1.0  0.50253  0.01153  0.62917  1.0000
  C   C875      1.0  0.55417  0.00873  0.54197  1.0000
  C   C876      1.0  0.55628  0.03666  0.52136  1.0000
  H   H699      1.0  0.56369  0.06167  0.53424  1.0000
  C   C877      1.0  0.87052  0.05651  0.50173  1.0000
  C   C878      1.0  0.85727  0.02300  0.51829  1.0000
  C   C879      1.0  0.97161  0.08450  0.64448  1.0000
  H   H700      1.0  0.87848  0.07978  0.51814  1.0000
  C   C880      1.0  0.71424  0.14350  0.53755  1.0000
  H   H701      1.0  0.77717  0.01518  0.74538  1.0000
  C   C881      1.0  0.52882  0.14810  0.67008  1.0000
  C   C882      1.0  0.53476  0.18112  0.68214  1.0000
  C   C883      1.0  0.71800  0.99186  0.67666  1.0000
  H   H702      1.0  0.63244  0.30107  0.75336  1.0000
  C   C884      1.0  0.94748  0.11379  0.78367  1.0000
  H   H703      1.0  0.54480  0.14685  0.64837  1.0000
  H   H704      1.0  0.55573  0.20528  0.67005  1.0000
  C   C885      1.0  0.54614  0.00829  0.95979  1.0000
  C   C886      1.0  0.95588  0.99630  0.81918  1.0000
  H   H705      1.0  0.66809  0.26052  0.75692  1.0000
  C   C887      1.0  0.50257  0.11677  0.68609  1.0000
  H   H706      1.0  0.80042  0.22718  0.79858  1.0000
  C   C888      1.0  0.64556  0.25133  0.85853  1.0000
  H   H707      1.0  0.62594  0.15514  0.57484  1.0000
  H   H708      1.0  0.56041  0.07587  0.96721  1.0000
  H   H709      1.0  0.54186  0.99293  0.90419  1.0000
  S   S124      1.0  0.85789  0.02049  0.56630  1.0000
  H   H710      1.0  0.89581  0.03431  0.69185  1.0000
  C   C889      1.0  0.69095  0.06193  0.52320  1.0000
  C   C890      1.0  0.77640  0.29547  0.77567  1.0000
  C   C891      1.0  0.55582  0.11614  0.49874  1.0000
  H   H711      1.0  0.57492  0.02454  0.95875  1.0000
  C   C892      1.0  0.95834  0.99489  0.58954  1.0000
  H   H712      1.0  0.52940  0.06493  0.59132  1.0000
  P   P29       1.0  0.77240  0.27421  0.81847  1.0000
  C   C893      1.0  0.81317  0.27437  0.82958  1.0000
  C   C894      1.0  0.73625  0.22843  0.81700  1.0000
  C   C895      1.0  0.71027  0.21649  0.78982  1.0000
  C   C896      1.0  0.68273  0.18100  0.78901  1.0000
  C   C897      1.0  0.68097  0.15701  0.81498  1.0000
  C   C898      1.0  0.70696  0.16844  0.84177  1.0000
  C   C899      1.0  0.73448  0.20395  0.84281  1.0000
  P   P30       1.0  0.62894  0.26368  0.81991  1.0000
  H   H713      1.0  0.66392  0.18750  0.88745  1.0000
  C   C900      1.0  0.87442  0.27205  0.85054  1.0000
  C   C901      1.0  0.84984  0.24631  0.82710  1.0000
  C   C902      1.0  0.81935  0.24747  0.81655  1.0000
  H   H714      1.0  0.49805  0.09155  0.67565  1.0000
  H   H715      1.0  0.63497  0.03529  0.50779  1.0000
  H   H716      1.0  0.89768  0.27078  0.85930  1.0000
  H   H717      1.0  0.54092  0.17467  0.55422  1.0000
  C   C903      1.0  0.96989  0.17764  0.78514  1.0000
  C   C904      1.0  0.96882  0.04032  0.77297  1.0000
  C   C905      1.0  0.75408  0.00453  0.57796  1.0000
  H   H718      1.0  0.74101  0.25459  0.89073  1.0000
  H   H719      1.0  0.90766  0.11406  0.58915  1.0000
  H   H720      1.0  0.71119  0.23414  0.76892  1.0000
  H   H721      1.0  0.66266  0.17187  0.76815  1.0000
  H   H722      1.0  0.65958  0.12948  0.81400  1.0000
  H   H723      1.0  0.70586  0.14967  0.86161  1.0000
  H   H724      1.0  0.75460  0.21221  0.86358  1.0000
  C   C906      1.0  0.51192  0.18928  0.59039  1.0000
  C   C907      1.0  0.71893  0.17642  0.54855  1.0000
  H   H725      1.0  0.53222  0.21718  0.59041  1.0000
  H   H726      1.0  0.97357  0.14726  0.86810  1.0000
  H   H727      1.0  0.93616  0.07988  0.57155  1.0000
  C   C908      1.0  0.75851  0.99604  0.51452  1.0000
  H   H728      1.0  0.57173  0.21709  0.86892  1.0000
  C   C909      1.0  0.53707  0.23884  0.87398  1.0000
  S   S125      1.0  0.82223  0.98712  0.66399  1.0000
  Fe  Fe61      1.0  0.53313  0.14670  0.96986  1.0000
  H   H729      1.0  0.72518  0.22680  0.53196  1.0000
  H   H730      1.0  0.64338  0.29029  0.89326  1.0000
  S   S126      1.0  0.57376  0.20478  0.97057  1.0000
  H   H731      1.0  0.88232  0.10540  0.75593  1.0000
  C   C910      1.0  0.71875  0.19297  0.48670  1.0000
  C   C911      1.0  0.60622  0.14398  0.55371  1.0000
  H   H732      1.0  0.51317  0.01256  0.72220  1.0000
  H   H733      1.0  0.96955  0.19404  0.51082  1.0000
  C   C912      1.0  0.92770  0.12422  0.56821  1.0000
  H   H734      1.0  0.76653  0.01791  0.60277  1.0000
  H   H735      1.0  0.89359  0.02221  0.81924  1.0000
  C   C913      1.0  0.58178  0.29053  0.82467  1.0000
  C   C914      1.0  0.97959  0.10384  0.70637  1.0000
  H   H736      1.0  0.60434  0.13756  0.95236  1.0000
  C   C915      1.0  0.96236  0.16904  0.52394  1.0000
  H   H737      1.0  0.73501  0.28941  0.93955  1.0000
  C   C916      1.0  0.83852  0.30068  0.85223  1.0000
  H   H738      1.0  0.72095  0.18272  0.57688  1.0000
  C   C917      1.0  0.93340  0.99764  0.56796  1.0000
  C   C918      1.0  0.66016  0.21040  0.88848  1.0000
  H   H739      1.0  0.74320  0.08344  0.54758  1.0000
  C   C919      1.0  0.51688  0.16494  0.57008  1.0000
  H   H740      1.0  0.81747  0.08049  0.74879  1.0000
  C   C920      1.0  0.61720  0.14394  0.51858  1.0000
  C   C921      1.0  0.56999  0.12974  0.56161  1.0000
  H   H741      1.0  0.91966  0.04076  0.63079  1.0000
  H   H742      1.0  0.92365  0.18911  0.95728  1.0000
  H   H743      1.0  0.92185  0.30109  0.93439  1.0000
  H   H744      1.0  0.71250  0.12496  0.55794  1.0000
  C   C922      1.0  0.72439  0.29582  0.61826  1.0000
  C   C923      1.0  0.58924  0.26376  0.83519  1.0000
  H   H745      1.0  0.50779  0.26692  0.87557  1.0000
  C   C924      1.0  0.57701  0.17302  0.75899  1.0000
  C   C925      1.0  0.60166  0.17898  0.73198  1.0000
  C   C926      1.0  0.63425  0.21074  0.73126  1.0000
  C   C927      1.0  0.64231  0.23652  0.75766  1.0000
  C   C928      1.0  0.61740  0.23109  0.78463  1.0000
  C   C929      1.0  0.58476  0.19891  0.78529  1.0000
  C   C930      1.0  0.76396  0.29844  0.85302  1.0000
  C   C931      1.0  0.92275  0.05524  0.68650  1.0000
  C   C932      1.0  0.72133  0.20122  0.52321  1.0000
  H   H746      1.0  0.50549  0.04680  0.88049  1.0000
  C   C933      1.0  0.65162  0.22238  0.85721  1.0000
  P   P31       1.0  0.49736  0.09699  0.54415  1.0000
  C   C934      1.0  0.65725  0.25637  0.92257  1.0000
  C   C935      1.0  0.95049  0.24051  0.93215  1.0000
  H   H747      1.0  0.55233  0.14776  0.75993  1.0000
  H   H748      1.0  0.59560  0.15878  0.71178  1.0000
  H   H749      1.0  0.65345  0.21514  0.71037  1.0000
  C   C936      1.0  0.64863  0.26834  0.89145  1.0000
  H   H750      1.0  0.56555  0.19324  0.80639  1.0000
  H   H751      1.0  0.61420  0.99636  0.56066  1.0000
  H   H752      1.0  0.64857  0.20823  0.83245  1.0000
  C   C937      1.0  0.95552  0.14559  0.76606  1.0000
  S   S127      1.0  0.51685  0.25163  0.96417  1.0000
  C   C938      1.0  0.80561  0.02602  0.74928  1.0000
  C   C939      1.0  0.82837  0.06282  0.75112  1.0000
  C   C940      1.0  0.86519  0.07683  0.75519  1.0000
  C   C941      1.0  0.87954  0.05406  0.75757  1.0000
  C   C942      1.0  0.85645  0.01713  0.75516  1.0000
  P   P32       1.0  0.92738  0.07207  0.75935  1.0000
  C   C943      1.0  0.55225  0.29141  0.83887  1.0000
  H   H753      1.0  0.85424  0.22522  0.81744  1.0000
  C   C944      1.0  0.93830  0.04208  0.78251  1.0000
  C   C945      1.0  0.75123  0.30540  0.76569  1.0000
  C   C946      1.0  0.71503  0.06416  0.54970  1.0000
  C   C947      1.0  0.93672  0.15630  0.55112  1.0000
  C   C948      1.0  0.86884  0.29935  0.86287  1.0000
  H   H754      1.0  0.65684  0.00158  0.60768  1.0000
  C   C949      1.0  0.91700  0.02107  0.81099  1.0000
  H   H755      1.0  0.65909  0.26936  0.94789  1.0000
  C   C950      1.0  0.68548  0.99144  0.68006  1.0000
  C   C951      1.0  0.70266  0.04265  0.58012  1.0000
  H   H756      1.0  0.82433  0.29515  0.75909  1.0000
  C   C952      1.0  0.49113  0.12856  0.57050  1.0000
  H   H757      1.0  0.92463  0.02921  0.52940  1.0000
  H   H758      1.0  0.49599  0.12870  0.85564  1.0000
  C   C953      1.0  0.84613  0.99313  0.49626  1.0000
  C   C954      1.0  0.66288  0.22733  0.92117  1.0000
  H   H759      1.0  0.92386  0.17127  0.55895  1.0000
  C   C955      1.0  0.97886  0.14963  0.51379  1.0000
  C   C956      1.0  0.77384  0.01428  0.54633  1.0000
  C   C957      1.0  0.96937  0.11695  0.53026  1.0000
  C   C958      1.0  0.71196  0.13507  0.50089  1.0000
  C   C959      1.0  0.94420  0.07799  0.71403  1.0000
  C   C960      1.0  0.50081  0.04796  0.59095  1.0000
  H   H760      1.0  0.52023  0.21934  0.89378  1.0000
  C   C961      1.0  0.53007  0.26573  0.86370  1.0000
  C   C962      1.0  0.96335  0.03018  0.92870  1.0000
  C   C963      1.0  0.74908  0.28214  0.88596  1.0000
  C   C964      1.0  0.66136  0.30711  0.80276  1.0000
  C   C965      1.0  0.64238  0.01510  0.55732  1.0000
  C   C966      1.0  0.48561  0.01747  0.61250  1.0000
  C   C967      1.0  0.94422  0.02733  0.54591  1.0000
  C   C968      1.0  0.48097  0.17763  0.61079  1.0000
  C   C969      1.0  0.89516  0.21783  0.96542  1.0000
  H   H761      1.0  0.95046  0.14556  0.73763  1.0000
  C   C970      1.0  0.74555  0.30177  0.91382  1.0000
  H   H762      1.0  0.50780  0.06553  0.73436  1.0000
  C   C971      1.0  0.66641  0.01801  0.58389  1.0000
  C   C972      1.0  0.94954  0.27189  0.92529  1.0000
  C   C973      1.0  0.65442  0.03724  0.52724  1.0000
  P   P33       1.0  0.70674  0.09285  0.48625  1.0000
  H   H763      1.0  0.51791  0.20842  0.71856  1.0000
  C   C974      1.0  0.93634  0.05866  0.65180  1.0000
  H   H764      1.0  0.59893  0.31119  0.80619  1.0000
  C   C975      1.0  0.51365  0.18282  0.70956  1.0000
  H   H765      1.0  0.94859  0.09080  0.83503  1.0000
  H   H766      1.0  0.77513  0.00275  0.49100  1.0000
  H   H767      1.0  0.77709  0.14460  0.96219  1.0000
  C   C976      1.0  0.48718  0.15148  0.72550  1.0000
  C   C977      1.0  0.92213  0.27673  0.93953  1.0000
  C   C978      1.0  0.89490  0.24974  0.95982  1.0000
  C   C979      1.0  0.48237  0.11827  0.71485  1.0000
  H   H768      1.0  0.97609  0.20208  0.77142  1.0000
  C   C980      1.0  0.97617  0.17819  0.82195  1.0000
  C   C981      1.0  0.52758  0.99034  0.92888  1.0000
  H   H769      1.0  0.89388  0.09723  0.96911  1.0000
  H   H770      1.0  0.73483  0.04387  0.47882  1.0000
  H   H771      1.0  0.54693  0.31243  0.83117  1.0000
  H   H772      1.0  0.96252  0.05149  0.91428  1.0000
  C   C982      1.0  0.93449  0.99549  0.92715  1.0000
  C   C983      1.0  0.48747  0.01104  0.71931  1.0000
  C   C984      1.0  0.48443  0.04114  0.72598  1.0000
  H   H773      1.0  0.91073  0.98962  0.91213  1.0000
  C   C985      1.0  0.65612  0.31805  0.76890  1.0000
  H   H774      1.0  0.69213  0.31901  0.63246  1.0000
  C   C986      1.0  0.80680  0.31830  0.71886  1.0000
  C   C987      1.0  0.97988  0.05488  0.54584  1.0000
  Fe  Fe62      1.0  0.56655  0.48248  0.31920  1.0000
  Fe  Fe63      1.0  0.53323  0.40442  0.33588  1.0000
  S   S128      1.0  0.77552  0.35030  0.00390  1.0000
  C   C988      1.0  0.60982  0.58432  0.43458  1.0000
  H   H775      1.0  0.92453  0.62972  0.42085  1.0000
  C   C989      1.0  0.61529  0.32006  0.12713  1.0000
  Fe  Fe64      1.0  0.50991  0.45093  0.37666  1.0000
  C   C990      1.0  0.49909  0.47880  0.47119  1.0000
  S   S129      1.0  0.54151  0.43388  0.28417  1.0000
  S   S130      1.0  0.56266  0.45333  0.37020  1.0000
  H   H776      1.0  0.64976  0.36772  0.09687  1.0000
  H   H777      1.0  0.79045  0.39062  0.30501  1.0000
  C   C991      1.0  0.65250  0.45777  0.40815  1.0000
  Fe  Fe65      1.0  0.90573  0.38240  0.01518  1.0000
  S   S131      1.0  0.95180  0.41038  0.05641  1.0000
  C   C992      1.0  0.77397  0.53016  0.45020  1.0000
  H   H778      1.0  0.57488  0.37887  0.41222  1.0000
  C   C993      1.0  0.93049  0.39748  0.16510  1.0000
  C   C994      1.0  0.92587  0.39582  0.12736  1.0000
  C   C995      1.0  0.95554  0.41026  0.10451  1.0000
  C   C996      1.0  0.66123  0.46277  0.44464  1.0000
  H   H779      1.0  0.79000  0.40453  0.42115  1.0000
  H   H780      1.0  0.90729  0.38682  0.18229  1.0000
  H   H781      1.0  0.89937  0.38397  0.11599  1.0000
  C   C997      1.0  0.80998  0.46861  0.36927  1.0000
  C   C998      1.0  0.67167  0.37922  0.40147  1.0000
  H   H782      1.0  0.93060  0.35766  0.29911  1.0000
  H   H783      1.0  0.68336  0.46748  0.29188  1.0000
  H   H784      1.0  0.62854  0.47167  0.30043  1.0000
  Fe  Fe66      1.0  0.89192  0.60440  0.27737  1.0000
  S   S132      1.0  0.84687  0.61575  0.27102  1.0000
  C   C999      1.0  0.97602  0.64801  0.13229  1.0000
  Fe  Fe67      1.0  0.86987  0.57946  0.35793  1.0000
  S   S133      1.0  0.82477  0.59115  0.35554  1.0000
  S   S134      1.0  0.87840  0.55001  0.40554  1.0000
  Fe  Fe68      1.0  0.81292  0.56503  0.30149  1.0000
  S   S135      1.0  0.75735  0.52001  0.28728  1.0000
  S   S136      1.0  0.52882  0.62613  0.97825  1.0000
  S   S137      1.0  0.85677  0.55133  0.30419  1.0000
  H   H785      1.0  0.69314  0.34849  0.08095  1.0000
  S   S138      1.0  0.51492  0.48285  0.32710  1.0000
  S   S139      1.0  0.61829  0.53283  0.30710  1.0000
  C   C1000     1.0  0.78706  0.63697  0.20029  1.0000
  H   H786      1.0  0.65498  0.39708  0.30343  1.0000
  C   C1001     1.0  0.76305  0.54716  0.42571  1.0000
  H   H787      1.0  0.65570  0.38702  0.16053  1.0000
  H   H788      1.0  0.76513  0.63334  0.21722  1.0000
  C   C1002     1.0  0.77393  0.40270  0.44414  1.0000
  C   C1003     1.0  0.86367  0.56445  0.47487  1.0000
  C   C1004     1.0  0.93883  0.62395  0.18636  1.0000
  C   C1005     1.0  0.90978  0.60237  0.16423  1.0000
  C   C1006     1.0  0.91417  0.60277  0.12658  1.0000
  C   C1007     1.0  0.94740  0.62521  0.11027  1.0000
  P   P34       1.0  0.58247  0.33329  0.13684  1.0000
  C   C1008     1.0  0.58042  0.62243  0.47371  1.0000
  H   H789      1.0  0.88431  0.58427  0.17623  1.0000
  H   H790      1.0  0.89176  0.58496  0.11001  1.0000
  H   H791      1.0  0.51311  0.65152  0.46274  1.0000
  C   C1009     1.0  0.56882  0.34442  0.09513  1.0000
  C   C1010     1.0  0.71927  0.52406  0.29517  1.0000
  C   C1011     1.0  0.68549  0.49323  0.29555  1.0000
  C   C1012     1.0  0.65445  0.49556  0.30040  1.0000
  C   C1013     1.0  0.65695  0.52887  0.30413  1.0000
  C   C1014     1.0  0.69075  0.55967  0.30415  1.0000
  C   C1015     1.0  0.72186  0.55729  0.29995  1.0000
  H   H792      1.0  0.69287  0.58550  0.30714  1.0000
  H   H793      1.0  0.74779  0.58118  0.29973  1.0000
  C   C1016     1.0  0.86294  0.53909  0.45102  1.0000
  H   H794      1.0  0.78016  0.58523  0.21237  1.0000
  H   H795      1.0  0.61655  0.33737  0.40088  1.0000
  C   C1017     1.0  0.62229  0.58020  0.46803  1.0000
  H   H796      1.0  0.85391  0.48556  0.44704  1.0000
  S   S140      1.0  0.90943  0.63159  0.33150  1.0000
  S   S141      1.0  0.93625  0.62199  0.23437  1.0000
  C   C1018     1.0  0.64586  0.51253  0.16497  1.0000
  C   C1019     1.0  0.61527  0.51167  0.15126  1.0000
  C   C1020     1.0  0.60095  0.53070  0.16832  1.0000
  C   C1021     1.0  0.62159  0.42746  0.39658  1.0000
  P   P35       1.0  0.55983  0.52711  0.15206  1.0000
  C   C1022     1.0  0.56666  0.55361  0.11217  1.0000
  C   C1023     1.0  0.52983  0.48019  0.14307  1.0000
  C   C1024     1.0  0.50956  0.46890  0.11135  1.0000
  H   H797      1.0  0.62187  0.55523  0.98987  1.0000
  H   H798      1.0  0.78822  0.54398  0.47420  1.0000
  C   C1025     1.0  0.50555  0.41805  0.16013  1.0000
  C   C1026     1.0  0.52794  0.45432  0.16716  1.0000
  C   C1027     1.0  0.53867  0.55812  0.09891  1.0000
  H   H799      1.0  0.51689  0.60553  0.32472  1.0000
  H   H800      1.0  0.54766  0.36314  0.18101  1.0000
  C   C1028     1.0  0.54218  0.54300  0.18712  1.0000
  C   C1029     1.0  0.54601  0.57719  0.18506  1.0000
  H   H801      1.0  0.52050  0.64867  0.11043  1.0000
  C   C1030     1.0  0.51711  0.56874  0.24263  1.0000
  C   C1031     1.0  0.94992  0.64058  0.43470  1.0000
  C   C1032     1.0  0.52700  0.52259  0.21808  1.0000
  C   C1033     1.0  0.56311  0.33971  0.03019  1.0000
  H   H802      1.0  0.74373  0.38543  0.34680  1.0000
  H   H803      1.0  0.65651  0.49740  0.15206  1.0000
  H   H804      1.0  0.60242  0.49570  0.12775  1.0000
  C   C1034     1.0  0.59906  0.40219  0.42144  1.0000
  H   H805      1.0  0.51007  0.48773  0.09211  1.0000
  C   C1035     1.0  0.85389  0.50528  0.46483  1.0000
  C   C1036     1.0  0.63763  0.53832  0.44211  1.0000
  H   H806      1.0  0.53652  0.36501  0.00555  1.0000
  H   H807      1.0  0.54358  0.46208  0.19157  1.0000
  H   H808      1.0  0.51273  0.54492  0.11173  1.0000
  H   H809      1.0  0.57040  0.63580  0.36256  1.0000
  C   C1037     1.0  0.96977  0.52793  0.07208  1.0000
  H   H810      1.0  0.52575  0.38677  0.06309  1.0000
  S   S142      1.0  0.85623  0.33132  0.02883  1.0000
  H   H811      1.0  0.94996  0.53385  0.08276  1.0000
  C   C1038     1.0  0.60547  0.59361  0.06582  1.0000
  H   H812      1.0  0.52496  0.49689  0.22134  1.0000
  C   C1039     1.0  0.62597  0.54282  0.40862  1.0000
  C   C1040     1.0  0.82411  0.61468  0.17623  1.0000
  C   C1041     1.0  0.96474  0.41331  0.18086  1.0000
  C   C1042     1.0  0.61198  0.56561  0.40481  1.0000
  C   C1043     1.0  0.49598  0.63658  0.12568  1.0000
  C   C1044     1.0  0.55342  0.59200  0.40021  1.0000
  C   C1045     1.0  0.55007  0.60914  0.36964  1.0000
  H   H813      1.0  0.66940  0.47752  0.38866  1.0000
  C   C1046     1.0  0.63849  0.43771  0.46996  1.0000
  C   C1047     1.0  0.49688  0.53965  0.38510  1.0000
  C   C1048     1.0  0.52716  0.55661  0.40681  1.0000
  H   H814      1.0  0.62765  0.52856  0.38549  1.0000
  S   S143      1.0  0.95221  0.62181  0.06289  1.0000
  Fe  Fe69      1.0  0.82726  0.35071  0.99360  1.0000
  H   H815      1.0  0.60290  0.56855  0.37860  1.0000
  C   C1049     1.0  0.61827  0.55132  0.19869  1.0000
  C   C1050     1.0  0.95128  0.33110  0.11593  1.0000
  C   C1051     1.0  0.63813  0.35835  0.38568  1.0000
  C   C1052     1.0  0.63209  0.36485  0.35043  1.0000
  H   H816      1.0  0.50025  0.45726  0.99808  1.0000
  H   H817      1.0  0.70206  0.33109  0.00064  1.0000
  H   H818      1.0  0.53012  0.54183  0.42850  1.0000
  C   C1053     1.0  0.76789  0.49589  0.44317  1.0000
  C   C1054     1.0  0.83660  0.47099  0.34630  1.0000
  P   P36       1.0  0.59199  0.61396  0.42943  1.0000
  H   H819      1.0  0.96451  0.32655  0.33597  1.0000
  H   H820      1.0  0.86647  0.64940  0.14166  1.0000
  H   H821      1.0  0.97137  0.35134  0.25720  1.0000
  C   C1055     1.0  0.63580  0.55701  0.47180  1.0000
  H   H822      1.0  0.55609  0.50496  0.46386  1.0000
  H   H823      1.0  0.67791  0.43856  0.20095  1.0000
  C   C1056     1.0  0.63665  0.39281  0.17305  1.0000
  H   H824      1.0  0.53584  0.61590  0.21075  1.0000
  H   H825      1.0  0.64802  0.52035  0.44501  1.0000
  H   H826      1.0  0.86277  0.49470  0.34668  1.0000
  C   C1057     1.0  0.57616  0.37960  0.18462  1.0000
  C   C1058     1.0  0.58906  0.40900  0.20753  1.0000
  C   C1059     1.0  0.62570  0.43033  0.21326  1.0000
  C   C1060     1.0  0.53333  0.58979  0.21262  1.0000
  H   H827      1.0  0.50375  0.54759  0.99175  1.0000
  C   C1061     1.0  0.51402  0.53520  0.24541  1.0000
  C   C1062     1.0  0.57758  0.59814  0.05305  1.0000
  C   C1063     1.0  0.54010  0.37218  0.06284  1.0000
  H   H828      1.0  0.58205  0.61587  0.03064  1.0000
  C   C1064     1.0  0.55155  0.36466  0.09505  1.0000
  H   H829      1.0  0.50660  0.57837  0.26347  1.0000
  H   H830      1.0  0.50303  0.39842  0.17962  1.0000
  H   H831      1.0  0.49834  0.39957  0.00496  1.0000
  C   C1065     1.0  0.54418  0.58040  0.06960  1.0000
  C   C1066     1.0  0.54613  0.35995  0.03042  1.0000
  C   C1067     1.0  0.49898  0.41002  0.97842  1.0000
  C   C1068     1.0  0.60745  0.40722  0.45794  1.0000
  H   H832      1.0  0.57064  0.41513  0.22113  1.0000
  H   H833      1.0  0.63565  0.45305  0.23117  1.0000
  C   C1069     1.0  0.77905  0.38894  0.47609  1.0000
  S   S144      1.0  0.48547  0.45716  0.42870  1.0000
  H   H834      1.0  0.60590  0.34905  0.33847  1.0000
  H   H835      1.0  0.68587  0.53289  0.20669  1.0000
  H   H836      1.0  0.54623  0.37424  0.11963  1.0000
  H   H837      1.0  0.81585  0.49052  0.38707  1.0000
  C   C1070     1.0  0.64881  0.55210  0.21226  1.0000
  H   H838      1.0  0.62234  0.56907  0.10525  1.0000
  C   C1071     1.0  0.60014  0.57151  0.09532  1.0000
  C   C1072     1.0  0.66249  0.53257  0.19561  1.0000
  H   H839      1.0  0.85014  0.44519  0.30492  1.0000
  C   C1073     1.0  0.49288  0.55742  0.35588  1.0000
  C   C1074     1.0  0.95109  0.33339  0.07866  1.0000
  H   H840      1.0  0.66147  0.56741  0.23621  1.0000
  C   C1075     1.0  0.94346  0.33096  0.25809  1.0000
  C   C1076     1.0  0.51980  0.59193  0.34772  1.0000
  H   H841      1.0  0.92786  0.33111  0.06503  1.0000
  H   H842      1.0  0.66236  0.63869  0.39548  1.0000
  C   C1077     1.0  0.79543  0.60982  0.19750  1.0000
  C   C1078     1.0  0.48761  0.43259  0.10419  1.0000
  H   H843      1.0  0.49204  0.34393  0.38970  1.0000
  H   H844      1.0  0.83953  0.32124  0.14416  1.0000
  Fe  Fe70      1.0  0.49998  0.64298  0.01732  1.0000
  C   C1079     1.0  0.74906  0.41462  0.44247  1.0000
  C   C1080     1.0  0.59980  0.37137  0.16680  1.0000
  P   P37       1.0  0.74329  0.43400  0.40175  1.0000
  C   C1081     1.0  0.69956  0.40680  0.38199  1.0000
  C   C1082     1.0  0.75069  0.47818  0.41139  1.0000
  C   C1083     1.0  0.74089  0.49602  0.38640  1.0000
  C   C1084     1.0  0.74654  0.53008  0.39379  1.0000
  H   H845      1.0  0.61488  0.42361  0.36829  1.0000
  H   H846      1.0  0.55905  0.59452  0.16250  1.0000
  H   H847      1.0  0.52275  0.58453  0.06018  1.0000
  C   C1085     1.0  0.69336  0.41267  0.34629  1.0000
  C   C1086     1.0  0.77624  0.43803  0.36958  1.0000
  C   C1087     1.0  0.82949  0.44301  0.32296  1.0000
  C   C1088     1.0  0.79585  0.41234  0.32303  1.0000
  C   C1089     1.0  0.76937  0.40966  0.34650  1.0000
  C   C1090     1.0  0.65970  0.39198  0.33075  1.0000
  H   H848      1.0  0.87121  0.59078  0.46516  1.0000
  S   S145      1.0  0.54341  0.35819  0.33341  1.0000
  H   H849      1.0  0.72943  0.48421  0.36085  1.0000
  H   H850      1.0  0.73933  0.54377  0.37405  1.0000
  H   H851      1.0  0.83085  0.59375  0.17444  1.0000
  H   H852      1.0  0.76857  0.57406  0.43082  1.0000
  H   H853      1.0  0.60802  0.56630  0.21257  1.0000
  C   C1091     1.0  0.97588  0.50190  0.44417  1.0000
  H   H854      1.0  0.71459  0.43314  0.33026  1.0000
  H   H855      1.0  0.94245  0.58909  0.44779  1.0000
  H   H856      1.0  0.67556  0.37350  0.42869  1.0000
  C   C1092     1.0  0.64947  0.42216  0.19613  1.0000
  H   H857      1.0  0.96302  0.54072  0.01840  1.0000
  C   C1093     1.0  0.96022  0.61757  0.44984  1.0000
  C   C1094     1.0  0.64548  0.34227  0.10641  1.0000
  H   H858      1.0  0.68549  0.48640  0.45281  1.0000
  C   C1095     1.0  0.84460  0.64672  0.15787  1.0000
  C   C1096     1.0  0.97717  0.53162  0.03539  1.0000
  C   C1097     1.0  0.48542  0.40718  0.12862  1.0000
  S   S146      1.0  0.96879  0.41614  0.22898  1.0000
  Fe  Fe71      1.0  0.86298  0.64090  0.32551  1.0000
  H   H859      1.0  0.50141  0.51891  0.26872  1.0000
  H   H860      1.0  0.77774  0.48398  0.46218  1.0000
  S   S147      1.0  0.87609  0.40388  0.98264  1.0000
  H   H861      1.0  0.48484  0.33200  0.15138  1.0000
  C   C1098     1.0  0.97462  0.50692  0.40736  1.0000
  H   H862      1.0  0.49168  0.33688  0.21793  1.0000
  H   H863      1.0  0.71120  0.42277  0.47299  1.0000
  C   C1099     1.0  0.97188  0.64685  0.16998  1.0000
  C   C1100     1.0  0.72967  0.41272  0.47339  1.0000
  C   C1101     1.0  0.49706  0.63969  0.16342  1.0000
  Fe  Fe72      1.0  0.48918  0.43105  0.29598  1.0000
  H   H864      1.0  0.97068  0.47632  0.45425  1.0000
  H   H865      1.0  0.96842  0.48522  0.38898  1.0000
  C   C1102     1.0  0.57391  0.33148  0.06237  1.0000
  H   H866      1.0  0.50066  0.62375  0.40330  1.0000
  C   C1103     1.0  0.67002  0.33146  0.09721  1.0000
  H   H867      1.0  0.92828  0.32729  0.13114  1.0000
  H   H868      1.0  0.63145  0.60791  0.05320  1.0000
  H   H869      1.0  0.56653  0.32906  0.00512  1.0000
  C   C1104     1.0  0.92049  0.33454  0.28185  1.0000
  H   H870      1.0  0.58946  0.38747  0.47686  1.0000
  C   C1105     1.0  0.54896  0.59713  0.49077  1.0000
  H   H871      1.0  0.93001  0.45717  0.67487  1.0000
  H   H872      1.0  0.89929  0.62300  0.73807  1.0000
  Fe  Fe73      1.0  0.88194  0.37645  0.93364  1.0000
  S   S148      1.0  0.89426  0.39433  0.87429  1.0000
  H   H873      1.0  0.51007  0.63689  0.71068  1.0000
  Fe  Fe74      1.0  0.81274  0.46860  0.61229  1.0000
  S   S149      1.0  0.75714  0.42595  0.59821  1.0000
  S   S150      1.0  0.84319  0.51597  0.57338  1.0000
  Fe  Fe75      1.0  0.80605  0.43833  0.69137  1.0000
  S   S151      1.0  0.74992  0.39485  0.68030  1.0000
  S   S152      1.0  0.82303  0.44347  0.75123  1.0000
  Fe  Fe76      1.0  0.77085  0.38890  0.62745  1.0000
  S   S153      1.0  0.76238  0.33634  0.60608  1.0000
  Fe  Fe77      1.0  0.74213  0.43659  0.65254  1.0000
  S   S154      1.0  0.82786  0.43079  0.63881  1.0000
  H   H874      1.0  0.74320  0.56390  0.62195  1.0000
  H   H875      1.0  0.74424  0.50756  0.63099  1.0000
  C   C1106     1.0  0.87011  0.40374  0.84076  1.0000
  C   C1107     1.0  0.87186  0.39543  0.80448  1.0000
  C   C1108     1.0  0.85616  0.40562  0.77684  1.0000
  C   C1109     1.0  0.83933  0.42535  0.78490  1.0000
  C   C1110     1.0  0.83718  0.43316  0.82118  1.0000
  C   C1111     1.0  0.85200  0.42215  0.84881  1.0000
  H   H876      1.0  0.88601  0.38153  0.79759  1.0000
  H   H877      1.0  0.85837  0.39945  0.74921  1.0000
  H   H878      1.0  0.85030  0.42894  0.87628  1.0000
  H   H879      1.0  0.90279  0.55299  0.83513  1.0000
  H   H880      1.0  0.83954  0.47105  0.51159  1.0000
  H   H881      1.0  0.95659  0.41242  0.82384  1.0000
  H   H882      1.0  0.91321  0.49936  0.83515  1.0000
  H   H883      1.0  0.56231  0.63473  0.57360  1.0000
  S   S155      1.0  0.69219  0.43979  0.66313  1.0000
  S   S156      1.0  0.79674  0.48071  0.66618  1.0000
  Fe  Fe78      1.0  0.58694  0.58916  0.70119  1.0000
  S   S157      1.0  0.64261  0.63110  0.68576  1.0000
  S   S158      1.0  0.57721  0.58571  0.76220  1.0000
  Fe  Fe79      1.0  0.56789  0.56601  0.62130  1.0000
  S   S159      1.0  0.62161  0.60759  0.60133  1.0000
  S   S160      1.0  0.52172  0.52883  0.58469  1.0000
  Fe  Fe80      1.0  0.64248  0.59030  0.64824  1.0000
  S   S161      1.0  0.69206  0.58541  0.63995  1.0000
  H   H884      1.0  0.64650  0.32618  0.58506  1.0000
  S   S162      1.0  0.58880  0.54689  0.66669  1.0000
  S   S163      1.0  0.56106  0.60409  0.65758  1.0000
  C   C1112     1.0  0.69295  0.48066  0.65689  1.0000
  C   C1113     1.0  0.66378  0.48386  0.66852  1.0000
  C   C1114     1.0  0.66336  0.51589  0.66384  1.0000
  C   C1115     1.0  0.69184  0.54484  0.64683  1.0000
  C   C1116     1.0  0.72107  0.54167  0.63518  1.0000
  C   C1117     1.0  0.72170  0.50975  0.64025  1.0000
  H   H885      1.0  0.64149  0.46153  0.68149  1.0000
  H   H886      1.0  0.64099  0.51816  0.67346  1.0000
  C   C1118     1.0  0.55488  0.60022  0.79240  1.0000
  C   C1119     1.0  0.56700  0.60798  0.82807  1.0000
  C   C1120     1.0  0.54957  0.61789  0.85372  1.0000
  C   C1121     1.0  0.51858  0.61862  0.84460  1.0000
  H   H887      1.0  0.55176  0.48037  0.58679  1.0000
  C   C1122     1.0  0.52428  0.60172  0.78293  1.0000
  H   H888      1.0  0.58983  0.60588  0.83609  1.0000
  H   H889      1.0  0.88557  0.51173  0.90632  1.0000
  C   C1123     1.0  0.54285  0.51705  0.51644  1.0000
  H   H890      1.0  0.57462  0.43064  0.49983  1.0000
  H   H891      1.0  0.82441  0.44843  0.82797  1.0000
  C   C1124     1.0  0.90185  0.48311  0.69444  1.0000
  C   C1125     1.0  0.51518  0.51094  0.54039  1.0000
  C   C1126     1.0  0.61157  0.59317  0.96305  1.0000
  C   C1127     1.0  0.61699  0.45584  0.53940  1.0000
  C   C1128     1.0  0.76456  0.61342  0.70872  1.0000
  C   C1129     1.0  0.84785  0.52281  0.52566  1.0000
  C   C1130     1.0  0.95513  0.58561  0.53790  1.0000
  H   H892      1.0  0.85882  0.57697  0.52995  1.0000
  P   P38       1.0  0.64786  0.44497  0.51758  1.0000
  C   C1131     1.0  0.64475  0.40587  0.53863  1.0000
  C   C1132     1.0  0.69229  0.48196  0.52545  1.0000
  C   C1133     1.0  0.71975  0.47615  0.53748  1.0000
  C   C1134     1.0  0.75317  0.50490  0.54613  1.0000
  C   C1135     1.0  0.75956  0.53969  0.54298  1.0000
  C   C1136     1.0  0.73255  0.54580  0.53060  1.0000
  C   C1137     1.0  0.69907  0.51706  0.52174  1.0000
  C   C1138     1.0  0.64570  0.40400  0.57616  1.0000
  C   C1139     1.0  0.64610  0.37525  0.59274  1.0000
  C   C1140     1.0  0.64445  0.34959  0.53475  1.0000
  H   H893      1.0  0.71984  0.39726  0.52903  1.0000
  C   C1141     1.0  0.64437  0.37847  0.51803  1.0000
  C   C1142     1.0  0.62685  0.47551  0.57152  1.0000
  H   H894      1.0  0.71541  0.44958  0.54116  1.0000
  H   H895      1.0  0.96140  0.50282  0.87391  1.0000
  H   H896      1.0  0.78545  0.56183  0.55024  1.0000
  H   H897      1.0  0.91471  0.57257  0.57793  1.0000
  H   H898      1.0  0.67819  0.52217  0.51294  1.0000
  H   H899      1.0  0.64723  0.42520  0.59283  1.0000
  H   H900      1.0  0.64763  0.37453  0.62171  1.0000
  H   H901      1.0  0.64454  0.55340  0.49789  1.0000
  H   H902      1.0  0.65270  0.48425  0.58370  1.0000
  H   H903      1.0  0.83758  0.55787  0.62754  1.0000
  H   H904      1.0  0.76474  0.60932  0.68006  1.0000
  C   C1143     1.0  0.97179  0.52245  0.95095  1.0000
  H   H905      1.0  0.96890  0.39384  0.74911  1.0000
  C   C1144     1.0  0.58707  0.59811  0.94308  1.0000
  C   C1145     1.0  0.95255  0.55677  0.59428  1.0000
  H   H906      1.0  0.93899  0.54519  0.61921  1.0000
  C   C1146     1.0  0.50594  0.61022  0.80905  1.0000
  H   H907      1.0  0.61144  0.50024  0.61258  1.0000
  C   C1147     1.0  0.49762  0.39032  0.94823  1.0000
  H   H908      1.0  0.94897  0.62542  0.64001  1.0000
  H   H909      1.0  0.97876  0.57005  0.84439  1.0000
  H   H910      1.0  0.89166  0.55729  0.64751  1.0000
  C   C1148     1.0  0.85518  0.60832  0.70256  1.0000
  C   C1149     1.0  0.60348  0.48449  0.58827  1.0000
  C   C1150     1.0  0.93179  0.48489  0.78806  1.0000
  C   C1151     1.0  0.77214  0.35436  0.87673  1.0000
  H   H911      1.0  0.87698  0.45848  0.69798  1.0000
  H   H912      1.0  0.64494  0.37963  0.48911  1.0000
  H   H913      1.0  0.77396  0.50011  0.55594  1.0000
  H   H914      1.0  0.90300  0.54220  0.77043  1.0000
  H   H915      1.0  0.64459  0.32877  0.51877  1.0000
  C   C1152     1.0  0.84574  0.49695  0.50161  1.0000
  C   C1153     1.0  0.98009  0.41260  0.72721  1.0000
  H   H916      1.0  0.78173  0.38253  0.87359  1.0000
  H   H917      1.0  0.79869  0.38037  0.47741  1.0000
  H   H918      1.0  0.53466  0.57349  0.91992  1.0000
  C   C1154     1.0  0.49136  0.50434  0.88974  1.0000
  H   H919      1.0  0.93707  0.57221  0.91821  1.0000
  C   C1155     1.0  0.49690  0.40301  0.91401  1.0000
  C   C1156     1.0  0.93872  0.57203  0.57091  1.0000
  C   C1157     1.0  0.75674  0.33775  0.90909  1.0000
  C   C1158     1.0  0.51742  0.51238  0.86331  1.0000
  C   C1159     1.0  0.49954  0.45573  0.94007  1.0000
  C   C1160     1.0  0.66780  0.64498  0.84954  1.0000
  C   C1161     1.0  0.69501  0.64386  0.79316  1.0000
  H   H920      1.0  0.73739  0.57281  0.52855  1.0000
  C   C1162     1.0  0.75696  0.59086  0.76922  1.0000
  C   C1163     1.0  0.75878  0.58611  0.73239  1.0000
  H   H921      1.0  0.51812  0.58189  0.53947  1.0000
  H   H922      1.0  0.81363  0.58967  0.66259  1.0000
  C   C1164     1.0  0.56951  0.52981  0.96584  1.0000
  H   H923      1.0  0.76359  0.37638  0.53145  1.0000
  C   C1165     1.0  0.66554  0.62944  0.81608  1.0000
  C   C1166     1.0  0.73465  0.39861  0.50517  1.0000
  H   H924      1.0  0.59372  0.62467  0.93471  1.0000
  H   H925      1.0  0.69285  0.63099  0.76760  1.0000
  C   C1167     1.0  0.85666  0.55650  0.51182  1.0000
  H   H926      1.0  0.75194  0.56943  0.78750  1.0000
  H   H927      1.0  0.75494  0.56101  0.72205  1.0000
  H   H928      1.0  0.94315  0.59623  0.51990  1.0000
  H   H929      1.0  0.51383  0.59474  0.75599  1.0000
  S   S164      1.0  0.91683  0.36027  0.96476  1.0000
  H   H930      1.0  0.57026  0.53374  0.52473  1.0000
  C   C1168     1.0  0.60284  0.55902  0.97435  1.0000
  H   H931      1.0  0.64514  0.63354  0.86756  1.0000
  C   C1169     1.0  0.56983  0.47338  0.57367  1.0000
  H   H932      1.0  0.64103  0.60595  0.80788  1.0000
  C   C1170     1.0  0.89955  0.58988  0.69456  1.0000
  C   C1171     1.0  0.71792  0.36248  0.80764  1.0000
  C   C1172     1.0  0.71249  0.37305  0.77400  1.0000
  C   C1173     1.0  0.68153  0.35091  0.75468  1.0000
  C   C1174     1.0  0.88609  0.60846  0.71400  1.0000
  H   H933      1.0  0.75442  0.35301  0.93091  1.0000
  C   C1175     1.0  0.93649  0.54755  0.69969  1.0000
  C   C1176     1.0  0.78144  0.32776  0.70903  1.0000
  H   H934      1.0  0.84475  0.62239  0.71785  1.0000
  H   H935      1.0  0.74209  0.37986  0.82232  1.0000
  H   H936      1.0  0.73243  0.39843  0.76285  1.0000
  H   H937      1.0  0.67740  0.35930  0.72857  1.0000
  C   C1177     1.0  0.94253  0.48845  0.94459  1.0000
  C   C1178     1.0  0.96429  0.51395  0.67869  1.0000
  H   H938      1.0  0.54284  0.51470  0.87015  1.0000
  C   C1179     1.0  0.85121  0.57201  0.65166  1.0000
  C   C1180     1.0  0.55966  0.45368  0.54195  1.0000
  C   C1181     1.0  0.93310  0.49382  0.82418  1.0000
  C   C1182     1.0  0.76041  0.62271  0.78234  1.0000
  C   C1183     1.0  0.54462  0.53470  0.94604  1.0000
  C   C1184     1.0  0.55370  0.56907  0.93473  1.0000
  H   H939      1.0  0.53102  0.52349  0.80744  1.0000
  C   C1185     1.0  0.96675  0.54631  0.68792  1.0000
  H   H940      1.0  0.55987  0.62464  0.88067  1.0000
  C   C1186     1.0  0.96924  0.55251  0.94186  1.0000
  H   H941      1.0  0.75755  0.62539  0.81083  1.0000
  H   H942      1.0  0.97884  0.41436  0.63590  1.0000
  H   H943      1.0  0.63713  0.61599  0.97004  1.0000
  S   S165      1.0  0.49514  0.63001  0.87658  1.0000
  C   C1187     1.0  0.94145  0.60878  0.83161  1.0000
  C   C1188     1.0  0.75936  0.38680  0.50657  1.0000
  H   H944      1.0  0.88923  0.45828  0.92373  1.0000
  H   H945      1.0  0.94198  0.61334  0.86024  1.0000
  H   H946      1.0  0.95548  0.47011  0.74605  1.0000
  H   H947      1.0  0.95117  0.36432  0.86244  1.0000
  C   C1189     1.0  0.93182  0.48232  0.68176  1.0000
  C   C1190     1.0  0.91973  0.57475  0.81750  1.0000
  H   H948      1.0  0.78961  0.34889  0.82464  1.0000
  C   C1191     1.0  0.94240  0.59676  0.75770  1.0000
  C   C1192     1.0  0.92025  0.56870  0.78074  1.0000
  C   C1193     1.0  0.90956  0.51474  0.91878  1.0000
  Fe  Fe81      1.0  0.61686  0.64429  0.64078  1.0000
  C   C1194     1.0  0.90393  0.51557  0.70292  1.0000
  C   C1195     1.0  0.96341  0.63109  0.77206  1.0000
  H   H949      1.0  0.91085  0.48357  0.77109  1.0000
  H   H950      1.0  0.88012  0.51552  0.71210  1.0000
  C   C1196     1.0  0.88190  0.57173  0.66316  1.0000
  H   H951      1.0  0.56342  0.50370  0.97485  1.0000
  C   C1197     1.0  0.58318  0.44523  0.52466  1.0000
  C   C1198     1.0  0.54216  0.60201  0.52634  1.0000
  C   C1199     1.0  0.93844  0.54868  0.92544  1.0000
  H   H952      1.0  0.94348  0.46479  0.95198  1.0000
  C   C1200     1.0  0.77617  0.33499  0.84891  1.0000
  C   C1201     1.0  0.96334  0.63688  0.80892  1.0000
  P   P39       1.0  0.93928  0.58976  0.70972  1.0000
  C   C1202     1.0  0.56705  0.63171  0.54560  1.0000
  C   C1203     1.0  0.49987  0.44258  0.97439  1.0000
  P   P40       1.0  0.50087  0.49794  0.93549  1.0000
  C   C1204     1.0  0.64553  0.34808  0.57209  1.0000
  C   C1205     1.0  0.95726  0.47734  0.77393  1.0000
  C   C1206     1.0  0.91156  0.48465  0.92858  1.0000
  H   H953      1.0  0.53363  0.44546  0.53048  1.0000
  C   C1207     1.0  0.83769  0.59001  0.67144  1.0000
  H   H954      1.0  0.82833  0.32344  0.70061  1.0000
  H   H955      1.0  0.83482  0.32210  0.86212  1.0000
  C   C1208     1.0  0.51083  0.51735  0.82774  1.0000
  C   C1209     1.0  0.76851  0.64546  0.72172  1.0000
  S   S166      1.0  0.83216  0.32432  0.94398  1.0000
  C   C1210     1.0  0.49780  0.43553  0.90987  1.0000
  C   C1211     1.0  0.53481  0.50069  0.48197  1.0000
  Fe  Fe82      1.0  0.51269  0.65062  0.93412  1.0000
  C   C1212     1.0  0.69251  0.32968  0.82208  1.0000
  H   H956      1.0  0.88776  0.31939  0.88105  1.0000
  H   H957      1.0  0.73411  0.32878  0.72477  1.0000
  C   C1213     1.0  0.96001  0.49543  0.84614  1.0000
  H   H958      1.0  0.95358  0.37212  0.68686  1.0000
  C   C1214     1.0  0.97594  0.38061  0.84818  1.0000
  H   H959      1.0  0.48165  0.60997  0.80173  1.0000
  C   C1215     1.0  0.97126  0.40020  0.69196  1.0000
  H   H960      1.0  0.62117  0.59431  0.49148  1.0000
  C   C1216     1.0  0.48167  0.63922  0.55406  1.0000
  H   H961      1.0  0.49514  0.38737  0.89064  1.0000
  H   H962      1.0  0.48749  0.62058  0.56773  1.0000
  H   H963      1.0  0.49651  0.44431  0.88310  1.0000
  H   H964      1.0  0.69764  0.32200  0.84799  1.0000
  C   C1217     1.0  0.76636  0.65041  0.75873  1.0000
  H   H965      1.0  0.78330  0.34009  0.68322  1.0000
  C   C1218     1.0  0.75367  0.32133  0.73246  1.0000
  C   C1219     1.0  0.97483  0.63551  0.65245  1.0000
  H   H966      1.0  0.49660  0.36498  0.95131  1.0000
  C   C1220     1.0  0.97929  0.40832  0.82637  1.0000
  C   C1221     1.0  0.97814  0.62402  0.68672  1.0000
  H   H967      1.0  0.53021  0.57279  0.47750  1.0000
  S   S167      1.0  0.86409  0.69350  0.33161  1.0000
  C   C1222     1.0  0.66912  0.74687  0.02183  1.0000
  Fe  Fe83      1.0  0.53370  0.89769  0.34424  1.0000
  C   C1223     1.0  0.90874  0.76576  0.33434  1.0000
  C   C1224     1.0  0.97151  0.79471  0.35023  1.0000
  Fe  Fe84      1.0  0.50269  0.93112  0.29493  1.0000
  C   C1225     1.0  0.70160  0.77577  0.03371  1.0000
  H   H968      1.0  0.96597  0.95416  0.98104  1.0000
  H   H969      1.0  0.70885  0.97581  0.25508  1.0000
  S   S168      1.0  0.54801  0.92005  0.28828  1.0000
  S   S169      1.0  0.57273  0.94928  0.37121  1.0000
  Fe  Fe85      1.0  0.82604  0.83253  0.00743  1.0000
  S   S170      1.0  0.86235  0.89136  0.00082  1.0000
  S   S171      1.0  0.77458  0.81653  0.03718  1.0000
  Fe  Fe86      1.0  0.90658  0.88068  0.01696  1.0000
  S   S172      1.0  0.95296  0.91293  0.05661  1.0000
  S   S173      1.0  0.86960  0.82255  0.02679  1.0000
  S   S174      1.0  0.54796  0.69647  0.02821  1.0000
  C   C1226     1.0  0.81245  0.94520  0.31610  1.0000
  C   C1227     1.0  0.78482  0.74372  0.08135  1.0000
  C   C1228     1.0  0.73428  0.78121  0.02022  1.0000
  C   C1229     1.0  0.61794  0.68444  0.40916  1.0000
  Fe  Fe87      1.0  0.52745  0.96033  0.37414  1.0000
  C   C1230     1.0  0.81404  0.77042  0.09980  1.0000
  H   H970      1.0  0.78353  0.91169  0.39956  1.0000
  H   H971      1.0  0.77199  0.96261  0.44023  1.0000
  C   C1231     1.0  0.66924  0.72291  0.99680  1.0000
  C   C1232     1.0  0.88428  0.74543  0.20766  1.0000
  H   H972      1.0  0.70573  0.69596  0.36858  1.0000
  H   H973      1.0  0.96436  0.69516  0.42515  1.0000
  C   C1233     1.0  0.83551  0.92677  0.37837  1.0000
  C   C1234     1.0  0.95156  0.73128  0.24815  1.0000
  H   H974      1.0  0.63709  0.73863  0.39259  1.0000
  C   C1235     1.0  0.95754  0.91006  0.10420  1.0000
  H   H975      1.0  0.55121  0.75432  0.41322  1.0000
  H   H976      1.0  0.80080  0.68998  0.18471  1.0000
  H   H977      1.0  0.95804  0.83744  0.17355  1.0000
  C   C1236     1.0  0.53574  0.71014  0.37772  1.0000
  H   H978      1.0  0.51232  0.95551  0.19705  1.0000
  C   C1237     1.0  0.94095  0.70415  0.08957  1.0000
  H   H979      1.0  0.61823  0.95824  0.09169  1.0000
  C   C1238     1.0  0.90563  0.73216  0.33898  1.0000
  H   H980      1.0  0.64409  0.74270  0.03262  1.0000
  C   C1239     1.0  0.68124  0.69279  0.38000  1.0000
  C   C1240     1.0  0.75901  0.97363  0.42404  1.0000
  H   H981      1.0  0.54495  0.89948  0.02670  1.0000
  C   C1241     1.0  0.93551  0.72997  0.34949  1.0000
  C   C1242     1.0  0.77926  0.70909  0.08061  1.0000
  H   H982      1.0  0.51663  0.77377  0.36610  1.0000
  H   H983      1.0  0.56740  0.86658  0.06293  1.0000
  H   H984      1.0  0.93333  0.70430  0.35354  1.0000
  P   P41       1.0  0.86325  0.71687  0.13858  1.0000
  C   C1243     1.0  0.49377  0.82970  0.24061  1.0000
  H   H985      1.0  0.94414  0.82285  0.33549  1.0000
  H   H986      1.0  0.96143  0.69811  0.09760  1.0000
  H   H987      1.0  0.88697  0.87944  0.38378  1.0000
  H   H988      1.0  0.97857  0.94222  0.44874  1.0000
  H   H989      1.0  0.93768  0.95351  0.17755  1.0000
  H   H990      1.0  0.93076  0.71646  0.26770  1.0000
  H   H991      1.0  0.54174  0.72627  0.35373  1.0000
  H   H992      1.0  0.48349  0.73394  0.44123  1.0000
  H   H993      1.0  0.52257  0.65456  0.17671  1.0000
  S   S175      1.0  0.97088  0.91091  0.22819  1.0000
  C   C1244     1.0  0.51902  0.66820  0.43937  1.0000
  C   C1245     1.0  0.53142  0.70477  0.44264  1.0000
  H   H994      1.0  0.69341  0.74609  0.36688  1.0000
  C   C1246     1.0  0.60571  0.97194  0.07942  1.0000
  C   C1247     1.0  0.63307  0.90175  0.44918  1.0000
  C   C1248     1.0  0.59847  0.89517  0.44240  1.0000
  H   H995      1.0  0.51164  0.82410  0.98801  1.0000
  C   C1249     1.0  0.65650  0.66025  0.39533  1.0000
  C   C1250     1.0  0.49337  0.80517  0.34884  1.0000
  H   H996      1.0  0.95208  0.70452  0.03322  1.0000
  C   C1251     1.0  0.92284  0.97742  0.04522  1.0000
  H   H997      1.0  0.59333  0.68137  0.42007  1.0000
  C   C1252     1.0  0.83658  0.67437  0.16075  1.0000
  H   H998      1.0  0.51618  0.66105  0.34849  1.0000
  C   C1253     1.0  0.70191  0.72841  0.98324  1.0000
  C   C1254     1.0  0.97561  0.76743  0.25350  1.0000
  C   C1255     1.0  0.93344  0.88874  0.16413  1.0000
  C   C1256     1.0  0.91216  0.96808  0.08073  1.0000
  C   C1257     1.0  0.51296  0.65244  0.40555  1.0000
  C   C1258     1.0  0.94619  0.94484  0.40625  1.0000
  C   C1259     1.0  0.51802  0.83605  0.09155  1.0000
  H   H999      1.0  0.70182  0.89555  0.41704  1.0000
  H   H1000     1.0  0.58054  0.87288  0.42559  1.0000
  C   C1260     1.0  0.49325  0.77309  0.35486  1.0000
  C   C1261     1.0  0.52138  0.67338  0.37473  1.0000
  H   H1001     1.0  0.92385  0.70496  0.14340  1.0000
  C   C1262     1.0  0.92379  0.97717  0.45682  1.0000
  H   H1002     1.0  0.50010  0.88014  0.22409  1.0000
  C   C1263     1.0  0.67431  0.72105  0.37911  1.0000
  C   C1264     1.0  0.62464  0.65585  0.40998  1.0000
  S   S176      1.0  0.53150  0.84610  0.36055  1.0000
  H   H1003     1.0  0.93509  0.68638  0.21309  1.0000
  C   C1265     1.0  0.83780  0.76257  0.11760  1.0000
  H   H1004     1.0  0.84375  0.91895  0.40248  1.0000
  C   C1266     1.0  0.94176  0.79702  0.33936  1.0000
  C   C1267     1.0  0.70706  0.88671  0.44232  1.0000
  C   C1268     1.0  0.80294  0.70111  0.09831  1.0000
  H   H1005     1.0  0.86424  0.71999  0.21818  1.0000
  C   C1269     1.0  0.54082  0.72586  0.41154  1.0000
  C   C1270     1.0  0.86574  0.93063  0.15456  1.0000
  C   C1271     1.0  0.84484  0.90801  0.12666  1.0000
  C   C1272     1.0  0.82539  0.87116  0.13177  1.0000
  C   C1273     1.0  0.82601  0.85663  0.16500  1.0000
  C   C1274     1.0  0.84566  0.87902  0.19331  1.0000
  C   C1275     1.0  0.86523  0.91590  0.18823  1.0000
  H   H1006     1.0  0.81852  0.79737  0.09966  1.0000
  H   H1007     1.0  0.86035  0.78386  0.13134  1.0000
  H   H1008     1.0  0.95592  0.93314  0.38684  1.0000
  C   C1276     1.0  0.49449  0.78732  0.45004  1.0000
  C   C1277     1.0  0.64265  0.71687  0.39367  1.0000
  H   H1009     1.0  0.90230  0.87288  0.11504  1.0000
  H   H1010     1.0  0.92388  0.78889  0.13018  1.0000
  C   C1278     1.0  0.91132  0.97256  0.42156  1.0000
  C   C1279     1.0  0.93759  0.81163  0.18294  1.0000
  H   H1011     1.0  0.75678  0.68857  0.06592  1.0000
  H   H1012     1.0  0.76666  0.74999  0.06731  1.0000
  H   H1013     1.0  0.84194  0.97379  0.44217  1.0000
  S   S177      1.0  0.62946  0.68477  0.98318  1.0000
  H   H1014     1.0  0.50246  0.83826  0.26789  1.0000
  C   C1280     1.0  0.94767  0.96579  0.46681  1.0000
  C   C1281     1.0  0.49304  0.87344  0.05123  1.0000
  H   H1015     1.0  0.84342  0.91862  0.10084  1.0000
  H   H1016     1.0  0.80970  0.85390  0.10988  1.0000
  H   H1017     1.0  0.81095  0.82806  0.16886  1.0000
  H   H1018     1.0  0.84577  0.86777  0.21919  1.0000
  H   H1019     1.0  0.88002  0.93286  0.21055  1.0000
  H   H1020     1.0  0.94560  0.82767  0.23837  1.0000
  C   C1282     1.0  0.73431  0.75764  0.99463  1.0000
  H   H1021     1.0  0.50800  0.95859  0.13105  1.0000
  C   C1283     1.0  0.85898  0.94152  0.34927  1.0000
  H   H1022     1.0  0.91064  0.94413  0.09147  1.0000
  C   C1284     1.0  0.54042  0.86152  0.06667  1.0000
  C   C1285     1.0  0.80113  0.92222  0.37666  1.0000
  C   C1286     1.0  0.48738  0.93824  0.18359  1.0000
  C   C1287     1.0  0.88754  0.71879  0.06838  1.0000
  H   H1023     1.0  0.62359  0.79897  0.97788  1.0000
  C   C1288     1.0  0.89758  0.87197  0.28156  1.0000
  C   C1289     1.0  0.88985  0.84325  0.30402  1.0000
  C   C1290     1.0  0.88624  0.84618  0.34086  1.0000
  C   C1291     1.0  0.89058  0.87792  0.35526  1.0000
  C   C1292     1.0  0.89983  0.90742  0.33300  1.0000
  C   C1293     1.0  0.90269  0.90402  0.29591  1.0000
  P   P42       1.0  0.90353  0.94768  0.35135  1.0000
  C   C1294     1.0  0.95918  0.95003  0.44138  1.0000
  Fe  Fe88      1.0  0.58207  0.97262  0.31600  1.0000
  C   C1295     1.0  0.48357  0.79494  0.23018  1.0000
  C   C1296     1.0  0.92120  0.95506  0.39640  1.0000
  H   H1024     1.0  0.91064  0.87265  0.18097  1.0000
  C   C1297     1.0  0.96823  0.76115  0.35549  1.0000
  C   C1298     1.0  0.90394  0.77301  0.23190  1.0000
  H   H1025     1.0  0.90034  0.86957  0.25301  1.0000
  H   H1026     1.0  0.88680  0.81880  0.29286  1.0000
  H   H1027     1.0  0.88024  0.82385  0.35828  1.0000
  H   H1028     1.0  0.55309  0.93441  0.09879  1.0000
  H   H1029     1.0  0.90914  0.92612  0.27804  1.0000
  C   C1299     1.0  0.65683  0.93139  0.46968  1.0000
  C   C1300     1.0  0.84676  0.94962  0.31769  1.0000
  C   C1301     1.0  0.72058  0.84642  0.47484  1.0000
  H   H1030     1.0  0.89891  0.76839  0.26035  1.0000
  H   H1031     1.0  0.70141  0.79382  0.05365  1.0000
  H   H1032     1.0  0.80359  0.95260  0.29205  1.0000
  H   H1033     1.0  0.88553  0.76749  0.32672  1.0000
  H   H1034     1.0  0.56056  0.91305  0.45043  1.0000
  C   C1302     1.0  0.93039  0.80621  0.21957  1.0000
  C   C1303     1.0  0.96730  0.90949  0.18013  1.0000
  H   H1035     1.0  0.64139  0.88427  0.43740  1.0000
  C   C1304     1.0  0.71303  0.85778  0.44261  1.0000
  H   H1036     1.0  0.76324  0.92857  0.34439  1.0000
  H   H1037     1.0  0.52415  0.96437  0.06939  1.0000
  C   C1305     1.0  0.80741  0.66904  0.18192  1.0000
  C   C1306     1.0  0.97238  0.67739  0.43711  1.0000
  C   C1307     1.0  0.58719  0.91788  0.45630  1.0000
  C   C1308     1.0  0.89077  0.75094  0.17066  1.0000
  H   H1038     1.0  0.52807  0.82182  0.10717  1.0000
  C   C1309     1.0  0.89217  0.71447  0.10497  1.0000
  C   C1310     1.0  0.83242  0.72777  0.11697  1.0000
  H   H1039     1.0  0.48582  0.77035  0.06790  1.0000
  C   C1311     1.0  0.55272  0.97570  0.06711  1.0000
  C   C1312     1.0  0.72580  0.96934  0.43418  1.0000
  C   C1313     1.0  0.91816  0.78407  0.15855  1.0000
  C   C1314     1.0  0.78968  0.93162  0.34561  1.0000
  C   C1315     1.0  0.91968  0.70807  0.11537  1.0000
  C   C1316     1.0  0.52778  0.87992  0.04620  1.0000
  C   C1317     1.0  0.92859  0.88881  0.12657  1.0000
  H   H1040     1.0  0.90525  0.71842  0.01458  1.0000
  S   S178      1.0  0.48725  0.90691  0.35063  1.0000
  C   C1318     1.0  0.90919  0.71535  0.04272  1.0000
  H   H1041     1.0  0.71227  0.84446  0.41778  1.0000
  H   H1042     1.0  0.68418  0.98127  0.41928  1.0000
  C   C1319     1.0  0.93562  0.70764  0.05323  1.0000
  H   H1043     1.0  0.86384  0.95972  0.29439  1.0000
  H   H1044     1.0  0.86730  0.72471  0.05925  1.0000
  H   H1045     1.0  0.97326  0.78077  0.27699  1.0000
  C   C1320     1.0  0.56906  0.95844  0.08335  1.0000
  H   H1046     1.0  0.75934  0.76136  0.98437  1.0000
  H   H1047     1.0  0.97783  0.83416  0.05582  1.0000
  H   H1048     1.0  0.60342  0.74263  0.45418  1.0000
  H   H1049     1.0  0.48428  0.77660  0.24952  1.0000
  C   C1321     1.0  0.95406  0.71434  0.21736  1.0000
  H   H1050     1.0  0.79857  0.67424  0.09701  1.0000
  H   H1051     1.0  0.97332  0.96807  0.32073  1.0000
  C   C1322     1.0  0.49255  0.85330  0.21591  1.0000
  H   H1052     1.0  0.65073  0.97071  0.27138  1.0000
  Fe  Fe89      1.0  0.52749  0.71464  0.98186  1.0000
  H   H1053     1.0  0.92873  0.96032  0.02899  1.0000
  S   S179      1.0  0.52686  0.76673  0.98490  1.0000
  C   C1323     1.0  0.49960  0.75833  0.45613  1.0000
  C   C1324     1.0  0.48601  0.76686  0.98837  1.0000
  C   C1325     1.0  0.49037  0.98365  0.99242  1.0000
  H   H1054     1.0  0.72591  0.82448  0.47512  1.0000
  C   C1326     1.0  0.48479  0.93997  0.14591  1.0000
  C   C1327     1.0  0.48643  0.79949  0.98917  1.0000
  Fe  Fe90      1.0  0.57546  0.68153  0.98593  1.0000
  H   H1055     1.0  0.48355  0.88842  0.03613  1.0000
  H   H1056     1.0  0.52901  0.94639  0.47465  1.0000
  P   P43       1.0  0.89077  0.97833  0.14805  1.0000
  H   H1057     1.0  0.82940  0.97314  0.11052  1.0000
  H   H1058     1.0  0.51120  0.84170  0.46337  1.0000
  C   C1328     1.0  0.51502  0.81919  0.46853  1.0000
  C   C1329     1.0  0.70982  0.98415  0.41256  1.0000
  C   C1330     1.0  0.94936  0.98154  0.18328  1.0000
  H   H1059     1.0  0.89442  0.98314  0.41370  1.0000
  C   C1331     1.0  0.48235  0.82777  0.09509  1.0000
  C   C1332     1.0  0.70846  0.90444  0.47435  1.0000
  P   P44       1.0  0.70323  0.94338  0.47345  1.0000
  C   C1333     1.0  0.48091  0.84214  0.18085  1.0000
  C   C1334     1.0  0.61055  0.94731  0.47689  1.0000
  S   S180      1.0  0.53776  0.98538  0.31910  1.0000
  H   H1060     1.0  0.67554  0.93764  0.54624  1.0000
  C   C1335     1.0  0.65698  0.78959  0.94177  1.0000
  H   H1061     1.0  0.67157  0.77189  0.54643  1.0000
  Fe  Fe91      1.0  0.86848  0.87848  0.94313  1.0000
  S   S181      1.0  0.85339  0.90586  0.89818  1.0000
  S   S182      1.0  0.83024  0.82004  0.95005  1.0000
  S   S183      1.0  0.55998  0.70516  0.94066  1.0000
  H   H1062     1.0  0.77199  0.66561  0.70248  1.0000
  C   C1336     1.0  0.57392  0.70172  0.80209  1.0000
  H   H1063     1.0  0.80219  0.97473  0.74898  1.0000
  S   S184      1.0  0.76992  0.93508  0.59883  1.0000
  C   C1337     1.0  0.60432  0.83435  0.83226  1.0000
  Fe  Fe92      1.0  0.82924  0.94089  0.68189  1.0000
  S   S185      1.0  0.77102  0.90076  0.67741  1.0000
  S   S186      1.0  0.86246  0.93574  0.72798  1.0000
  Fe  Fe93      1.0  0.78243  0.89405  0.62033  1.0000
  S   S187      1.0  0.76592  0.84119  0.59331  1.0000
  C   C1338     1.0  0.57372  0.76363  0.78201  1.0000
  S   S188      1.0  0.84141  0.93225  0.62481  1.0000
  S   S189      1.0  0.62433  0.69963  0.63366  1.0000
  C   C1339     1.0  0.72830  0.80172  0.60808  1.0000
  C   C1340     1.0  0.72268  0.76885  0.59520  1.0000
  C   C1341     1.0  0.69185  0.73695  0.60472  1.0000
  C   C1342     1.0  0.66608  0.73793  0.62648  1.0000
  C   C1343     1.0  0.67193  0.77073  0.63983  1.0000
  C   C1344     1.0  0.70313  0.80253  0.63097  1.0000
  H   H1064     1.0  0.74210  0.76810  0.57745  1.0000
  H   H1065     1.0  0.68739  0.71182  0.59404  1.0000
  H   H1066     1.0  0.65193  0.77166  0.65648  1.0000
  H   H1067     1.0  0.70717  0.82777  0.64086  1.0000
  H   H1068     1.0  0.62066  0.76004  0.58560  1.0000
  H   H1069     1.0  0.88258  0.77758  0.86775  1.0000
  C   C1345     1.0  0.85356  0.90964  0.85015  1.0000
  C   C1346     1.0  0.87790  0.90607  0.82821  1.0000
  C   C1347     1.0  0.87998  0.91391  0.79109  1.0000
  C   C1348     1.0  0.85699  0.92417  0.77482  1.0000
  C   C1349     1.0  0.83186  0.92655  0.79660  1.0000
  C   C1350     1.0  0.83054  0.91985  0.83389  1.0000
  H   H1070     1.0  0.89630  0.89893  0.84007  1.0000
  H   H1071     1.0  0.89995  0.91245  0.77487  1.0000
  P   P45       1.0  0.76631  0.68965  0.77557  1.0000
  H   H1072     1.0  0.55044  0.83201  0.87649  1.0000
  C   C1351     1.0  0.50037  0.69052  0.51496  1.0000
  C   C1352     1.0  0.53738  0.69565  0.64166  1.0000
  H   H1073     1.0  0.56382  0.67605  0.67603  1.0000
  H   H1074     1.0  0.57923  0.72044  0.85608  1.0000
  H   H1075     1.0  0.95001  0.97192  0.60673  1.0000
  H   H1076     1.0  0.70716  0.68659  0.73325  1.0000
  H   H1077     1.0  0.95808  0.97014  0.49393  1.0000
  Fe  Fe94      1.0  0.76459  0.94610  0.65675  1.0000
  C   C1353     1.0  0.76333  0.74907  0.67436  1.0000
  H   H1078     1.0  0.52359  0.72170  0.87475  1.0000
  C   C1354     1.0  0.51660  0.74214  0.87930  1.0000
  C   C1355     1.0  0.76481  0.71462  0.73749  1.0000
  H   H1079     1.0  0.82235  0.74571  0.73192  1.0000
  H   H1080     1.0  0.58370  0.88609  0.77959  1.0000
  H   H1081     1.0  0.91342  0.94152  0.94462  1.0000
  C   C1356     1.0  0.60509  0.65259  0.49323  1.0000
  C   C1357     1.0  0.73147  0.72374  0.69026  1.0000
  H   H1082     1.0  0.56761  0.74363  0.72792  1.0000
  H   H1083     1.0  0.61980  0.66155  0.75900  1.0000
  H   H1084     1.0  0.96497  0.72206  0.94675  1.0000
  C   C1358     1.0  0.92993  0.74411  0.94669  1.0000
  C   C1359     1.0  0.57820  0.75802  0.81830  1.0000
  C   C1360     1.0  0.57758  0.73914  0.50501  1.0000
  C   C1361     1.0  0.72712  0.67399  0.80353  1.0000
  C   C1362     1.0  0.59832  0.65721  0.52894  1.0000
  S   S190      1.0  0.88446  0.77092  0.94780  1.0000
  H   H1085     1.0  0.81189  0.92321  0.85042  1.0000
  H   H1086     1.0  0.76282  0.76240  0.65000  1.0000
  H   H1087     1.0  0.67391  0.78900  0.96286  1.0000
  H   H1088     1.0  0.61781  0.68000  0.54419  1.0000
  C   C1363     1.0  0.57729  0.72630  0.82820  1.0000
  C   C1364     1.0  0.72181  0.86373  0.50683  1.0000
  C   C1365     1.0  0.81429  0.75350  0.80857  1.0000
  H   H1089     1.0  0.55570  0.82628  0.80692  1.0000
  C   C1366     1.0  0.64081  0.85866  0.83732  1.0000
  C   C1367     1.0  0.65642  0.89253  0.82182  1.0000
  C   C1368     1.0  0.71574  0.89256  0.50666  1.0000
  C   C1369     1.0  0.61259  0.79027  0.88722  1.0000
  C   C1370     1.0  0.64131  0.78493  0.87891  1.0000
  C   C1371     1.0  0.66312  0.78421  0.90619  1.0000
  C   C1372     1.0  0.79594  0.75704  0.68969  1.0000
  C   C1373     1.0  0.49823  0.79411  0.89488  1.0000
  C   C1374     1.0  0.60675  0.79592  0.92303  1.0000
  H   H1090     1.0  0.65742  0.85175  0.85317  1.0000
  C   C1375     1.0  0.62883  0.79547  0.95019  1.0000
  H   H1091     1.0  0.56103  0.73980  0.55964  1.0000
  H   H1092     1.0  0.64675  0.78116  0.85144  1.0000
  H   H1093     1.0  0.68469  0.77923  0.89995  1.0000
  C   C1376     1.0  0.57050  0.73894  0.75594  1.0000
  C   C1377     1.0  0.53900  0.67530  0.66983  1.0000
  H   H1094     1.0  0.58483  0.80010  0.93028  1.0000
  H   H1095     1.0  0.75327  0.71270  0.84616  1.0000
  H   H1096     1.0  0.96232  0.97827  0.83306  1.0000
  C   C1378     1.0  0.96608  0.97549  0.96579  1.0000
  C   C1379     1.0  0.59963  0.87836  0.79568  1.0000
  C   C1380     1.0  0.73213  0.70660  0.72179  1.0000
  C   C1381     1.0  0.53699  0.97173  0.48728  1.0000
  H   H1097     1.0  0.63031  0.67189  0.48155  1.0000
  C   C1382     1.0  0.50790  0.66672  0.53334  1.0000
  C   C1383     1.0  0.64541  0.76280  0.53481  1.0000
  H   H1098     1.0  0.49585  0.67246  0.75367  1.0000
  C   C1384     1.0  0.72261  0.96896  0.51375  1.0000
  C   C1385     1.0  0.50845  0.65325  0.68961  1.0000
  C   C1386     1.0  0.50509  0.69412  0.63342  1.0000
  H   H1099     1.0  0.68460  0.91110  0.82570  1.0000
  H   H1100     1.0  0.49743  0.68937  0.81669  1.0000
  H   H1101     1.0  0.54231  0.95416  0.54007  1.0000
  H   H1102     1.0  0.57292  0.78703  0.77357  1.0000
  H   H1103     1.0  0.56659  0.79639  0.51791  1.0000
  H   H1104     1.0  0.57382  0.67766  0.80984  1.0000
  H   H1105     1.0  0.72813  0.85521  0.53183  1.0000
  C   C1387     1.0  0.57098  0.70816  0.76599  1.0000
  H   H1106     1.0  0.55666  0.84695  0.50744  1.0000
  H   H1107     1.0  0.66098  0.96634  0.68309  1.0000
  H   H1108     1.0  0.50364  0.70945  0.61121  1.0000
  H   H1109     1.0  0.82063  0.77641  0.67703  1.0000
  P   P46       1.0  0.58381  0.79038  0.85214  1.0000
  C   C1388     1.0  0.64038  0.75770  0.49782  1.0000
  H   H1110     1.0  0.70103  0.68741  0.88575  1.0000
  C   C1389     1.0  0.85290  0.72604  0.84274  1.0000
  H   H1111     1.0  0.64808  0.92859  0.78883  1.0000
  H   H1112     1.0  0.70355  0.96900  0.60249  1.0000
  C   C1390     1.0  0.63587  0.90238  0.80099  1.0000
  C   C1391     1.0  0.86137  0.76118  0.84909  1.0000
  C   C1392     1.0  0.58388  0.84451  0.81123  1.0000
  H   H1113     1.0  0.66341  0.97798  0.49816  1.0000
  H   H1114     1.0  0.86771  0.71546  0.85652  1.0000
  C   C1393     1.0  0.70285  0.95936  0.54574  1.0000
  C   C1394     1.0  0.54620  0.79329  0.49910  1.0000
  C   C1395     1.0  0.79269  0.83512  0.69654  1.0000
  C   C1396     1.0  0.82501  0.84206  0.71178  1.0000
  C   C1397     1.0  0.82703  0.83712  0.74847  1.0000
  C   C1398     1.0  0.79698  0.82613  0.77018  1.0000
  C   C1399     1.0  0.76424  0.81905  0.75514  1.0000
  C   C1400     1.0  0.76245  0.82368  0.71804  1.0000
  P   P47       1.0  0.72540  0.80669  0.78299  1.0000
  C   C1401     1.0  0.69230  0.76037  0.77570  1.0000
  C   C1402     1.0  0.73885  0.81504  0.82960  1.0000
  C   C1403     1.0  0.74039  0.84409  0.84799  1.0000
  C   C1404     1.0  0.75183  0.85078  0.88366  1.0000
  C   C1405     1.0  0.76159  0.82851  0.90132  1.0000
  C   C1406     1.0  0.76009  0.79952  0.88330  1.0000
  C   C1407     1.0  0.74899  0.79292  0.84754  1.0000
  C   C1408     1.0  0.67535  0.73729  0.80470  1.0000
  C   C1409     1.0  0.64965  0.70172  0.79862  1.0000
  C   C1410     1.0  0.63979  0.68909  0.76369  1.0000
  C   C1411     1.0  0.65515  0.71218  0.73480  1.0000
  C   C1412     1.0  0.68140  0.74757  0.74069  1.0000
  C   C1413     1.0  0.70735  0.83441  0.76885  1.0000
  C   C1414     1.0  0.67056  0.81992  0.76310  1.0000
  C   C1415     1.0  0.65745  0.84122  0.74926  1.0000
  C   C1416     1.0  0.68081  0.87710  0.74172  1.0000
  C   C1417     1.0  0.71722  0.89191  0.74850  1.0000
  C   C1418     1.0  0.73054  0.87063  0.76173  1.0000
  H   H1115     1.0  0.79132  0.83949  0.66811  1.0000
  H   H1116     1.0  0.84873  0.85220  0.69529  1.0000
  H   H1117     1.0  0.85237  0.84335  0.76034  1.0000
  H   H1118     1.0  0.80015  0.82463  0.79869  1.0000
  H   H1119     1.0  0.73821  0.82002  0.70571  1.0000
  H   H1120     1.0  0.73342  0.86204  0.83494  1.0000
  H   H1121     1.0  0.75386  0.87368  0.89757  1.0000
  H   H1122     1.0  0.77080  0.83408  0.92888  1.0000
  H   H1123     1.0  0.76807  0.78253  0.89700  1.0000
  H   H1124     1.0  0.74870  0.77080  0.83371  1.0000
  H   H1125     1.0  0.68137  0.74646  0.83208  1.0000
  H   H1126     1.0  0.63679  0.68397  0.82100  1.0000
  H   H1127     1.0  0.64683  0.70255  0.70773  1.0000
  H   H1128     1.0  0.69276  0.76476  0.71775  1.0000
  H   H1129     1.0  0.65206  0.79214  0.76854  1.0000
  H   H1130     1.0  0.62927  0.82996  0.74393  1.0000
  H   H1131     1.0  0.67083  0.89352  0.73035  1.0000
  H   H1132     1.0  0.73527  0.91968  0.74223  1.0000
  H   H1133     1.0  0.75905  0.88221  0.76555  1.0000
  H   H1134     1.0  0.56114  0.71219  0.62605  1.0000
  H   H1135     1.0  0.70625  0.71700  0.67776  1.0000
  H   H1136     1.0  0.56875  0.68903  0.74597  1.0000
  C   C1419     1.0  0.64530  0.95423  0.48338  1.0000
  C   C1420     1.0  0.58294  0.74460  0.54212  1.0000
  C   C1421     1.0  0.69934  0.67538  0.85979  1.0000
  C   C1422     1.0  0.54069  0.77796  0.87121  1.0000
  H   H1137     1.0  0.84864  0.80218  0.83716  1.0000
  C   C1423     1.0  0.84217  0.77498  0.83189  1.0000
  C   C1424     1.0  0.53163  0.80401  0.88011  1.0000
  C   C1425     1.0  0.82504  0.70447  0.81937  1.0000
  H   H1138     1.0  0.79910  0.76429  0.79614  1.0000
  H   H1139     1.0  0.71745  0.90572  0.53181  1.0000
  C   C1426     1.0  0.71864  0.97695  0.57772  1.0000
  S   S191      1.0  0.91705  0.87403  0.95839  1.0000
  Fe  Fe95      1.0  0.82826  0.97407  0.60634  1.0000
  C   C1427     1.0  0.80544  0.71804  0.80212  1.0000
  C   C1428     1.0  0.61670  0.75622  0.55691  1.0000
  C   C1429     1.0  0.93594  0.96824  0.94562  1.0000
  C   C1430     1.0  0.79675  0.73984  0.72104  1.0000
  S   S192      1.0  0.71774  0.95093  0.67707  1.0000
  H   H1140     1.0  0.81430  0.93484  0.78500  1.0000
  H   H1141     1.0  0.83565  0.96710  0.50829  1.0000
  C   C1431     1.0  0.96225  0.74481  0.95352  1.0000
  C   C1432     1.0  0.92588  0.77338  0.95551  1.0000
  H   H1142     1.0  0.49139  0.81422  0.90211  1.0000
  H   H1143     1.0  0.90781  0.72059  0.93504  1.0000
  H   H1144     1.0  0.70218  0.70982  0.96407  1.0000
  C   C1433     1.0  0.54445  0.97622  0.52454  1.0000
  H   H1145     1.0  0.60193  0.96524  0.48709  1.0000
  P   P48       1.0  0.53388  0.72430  0.48612  1.0000
  C   C1434     1.0  0.48352  0.73247  0.89471  1.0000
  H   H1146     1.0  0.66269  0.76275  0.48077  1.0000
  C   C1435     1.0  0.60665  0.74612  0.48289  1.0000
  C   C1436     1.0  0.54070  0.82212  0.49322  1.0000
  C   C1437     1.0  0.95468  0.80379  0.97039  1.0000
  H   H1147     1.0  0.95184  0.82652  0.97719  1.0000
  C   C1438     1.0  0.72893  0.68981  0.83699  1.0000
  H   H1148     1.0  0.90862  0.98129  0.85019  1.0000
  C   C1439     1.0  0.52578  0.76118  0.48045  1.0000
  H   H1149     1.0  0.81879  0.67728  0.81529  1.0000
  C   C1440     1.0  0.49047  0.96919  0.92968  1.0000
  H   H1150     1.0  0.53386  0.66901  0.53101  1.0000
  Fe  Fe96      1.0  0.87783  0.81628  0.96836  1.0000
  H   H1151     1.0  0.90559  0.97695  0.56849  1.0000
  H   H1152     1.0  0.97970  0.65355  0.75493  1.0000
