data_image0
_chemical_formula_structural       CHCH2C2HCHC2HC3HC3HCH5C3SCHC4HC2PC4HCH5CH5C2H2C2HCSH3C3H2FeS2H3S2C6H4C5H5SHCPH2CFeC2HC8HC4HCHCHC2HC4HC2HC2HC2H2CH3CH2C2HC2HCHFeHFeSH2SH2CSFeS2FeS2Fe2S3C6H5SHCHCHCH3CHCHCHCHC2H3CHC4H2CHC2HC2H2C2H2CHCHC7HC2HC3HC4H2FeS2HSFeSFeSCSC7H2CHC4H3CH2C2HC3H2C6H3CHPH7C5H2C2H4CH2FeCSCHFeHSCPSH3C9H3SCH3C5H4CHC5HCH3C5H2CHSHCHPC2HCHC2HC3H2C3HC4H2C5HCH3C2HCHCH4PH5CHC4FeS2FeCFeS3H2C6H2CHC4S2CH3C2HPC4HCSHFeH4CHCH3C4H3C2HC3HCHC4FeSFeSFeSFeS4C4HC6H4C2H2C5HPH2C2HC5H3C5HCH7C2SCHC3HC2HCHC2H2CHCHPC2HCHPH2CFeSH2CH3C2FeSCH2CHCSHCFeCH2CHCH2CHCPHCHC6H2C7H5C3HCH3C2HCHC2H2C2H3C5H3CPCH2C2H2FeSC6PH4CHC7HC2HCSHFeHC6H2C2H2CH3C3H5CHC2HC2H2FeS2FeCHS2CH2CSC7H2SH3CHC2HCH2CFeCH2C3HCHC5H2C3HCSH2CH3CHC2HC3HPH4CHC4HC2FeC2H5C2HCSCSH2SFeSHCHC2H4C6H3SC3H4FeHSC3HC3H4SCHC6PC2HCH2C4H2C5H2C2HPCH2
_chemical_formula_sum              "C480 H384 S64 P16 Fe32"
_cell_length_a       26.6552
_cell_length_b       26.9486
_cell_length_c       36.085
_cell_angle_alpha    89.7423
_cell_angle_beta     89.3979
_cell_angle_gamma    89.3832

_space_group_name_H-M_alt    "P 1"
_space_group_IT_number       1

loop_
  _space_group_symop_operation_xyz
  'x, y, z'

loop_
  _atom_site_type_symbol
  _atom_site_label
  _atom_site_symmetry_multiplicity
  _atom_site_fract_x
  _atom_site_fract_y
  _atom_site_fract_z
  _atom_site_occupancy
  C   C1        1.0  0.26613  0.23074  0.06737  1.0000
  H   H1        1.0  0.14119  0.09331  0.05793  1.0000
  C   C2        1.0  0.03031  0.42696  0.05926  1.0000
  H   H2        1.0  0.42196  0.00865  0.13444  1.0000
  H   H3        1.0  0.30518  0.03798  0.10723  1.0000
  C   C3        1.0  0.07753  0.24641  0.06524  1.0000
  C   C4        1.0  0.07504  0.28897  0.04300  1.0000
  H   H4        1.0  0.24583  0.22687  0.09338  1.0000
  C   C5        1.0  0.10629  0.20560  0.05329  1.0000
  H   H5        1.0  0.15254  0.00727  0.08095  1.0000
  C   C6        1.0  0.30903  0.13464  0.16357  1.0000
  C   C7        1.0  0.18518  0.04978  0.18641  1.0000
  H   H6        1.0  0.10976  0.05499  0.16564  1.0000
  C   C8        1.0  0.41771  0.11844  0.08422  1.0000
  C   C9        1.0  0.22944  0.01770  0.09581  1.0000
  C   C10       1.0  0.17655  0.08179  0.06969  1.0000
  H   H7        1.0  0.20985  0.15238  0.06106  1.0000
  C   C11       1.0  0.01660  0.10559  0.06189  1.0000
  C   C12       1.0  0.03812  0.19819  0.20227  1.0000
  C   C13       1.0  0.34122  0.19623  0.20560  1.0000
  H   H8        1.0  0.25992  0.03375  0.20498  1.0000
  C   C14       1.0  0.30313  0.19577  0.05702  1.0000
  H   H9        1.0  0.49720  0.10309  0.07995  1.0000
  H   H10       1.0  0.29034  0.09976  0.15973  1.0000
  H   H11       1.0  0.42225  0.14459  0.10654  1.0000
  H   H12       1.0  0.05308  0.32055  0.05215  1.0000
  H   H13       1.0  0.10832  0.17286  0.07059  1.0000
  C   C15       1.0  0.26931  0.05082  0.09710  1.0000
  C   C16       1.0  0.04272  0.06115  0.05544  1.0000
  C   C17       1.0  0.35713  0.22484  0.17537  1.0000
  S   S1        1.0  0.04854  0.24323  0.10930  1.0000
  C   C18       1.0  0.22604  0.01831  0.19374  1.0000
  H   H14       1.0  0.34753  0.20901  0.23360  1.0000
  C   C19       1.0  0.04221  0.02353  0.08216  1.0000
  C   C20       1.0  0.45583  0.06221  0.03955  1.0000
  C   C21       1.0  0.34900  0.20845  0.13923  1.0000
  C   C22       1.0  0.31719  0.15116  0.19970  1.0000
  H   H15       1.0  0.30481  0.12907  0.22319  1.0000
  C   C23       1.0  0.37010  0.10903  0.06965  1.0000
  C   C24       1.0  0.32481  0.16323  0.13304  1.0000
  P   P1        1.0  0.31514  0.14231  0.08617  1.0000
  C   C25       1.0  0.01923  0.16033  0.18023  1.0000
  C   C26       1.0  0.26285  0.10012  0.08517  1.0000
  C   C27       1.0  0.36592  0.07612  0.03980  1.0000
  C   C28       1.0  0.25303  0.26936  0.04321  1.0000
  H   H16       1.0  0.11863  0.09736  0.33385  1.0000
  C   C29       1.0  0.21604  0.11527  0.07138  1.0000
  H   H17       1.0  0.18755  0.08913  0.19207  1.0000
  H   H18       1.0  0.01695  0.13491  0.04120  1.0000
  H   H19       1.0  0.03508  0.40001  0.08140  1.0000
  H   H20       1.0  0.36180  0.23099  0.11611  1.0000
  H   H21       1.0  0.06371  0.05588  0.02990  1.0000
  C   C30       1.0  0.18307  0.03324  0.08227  1.0000
  H   H22       1.0  0.02199  0.47214  0.12822  1.0000
  H   H23       1.0  0.37581  0.25979  0.17995  1.0000
  H   H24       1.0  0.32993  0.06980  0.02704  1.0000
  H   H25       1.0  0.06767  0.22174  0.19151  1.0000
  H   H26       1.0  0.01367  0.04962  0.22782  1.0000
  C   C31       1.0  0.46038  0.09495  0.06923  1.0000
  C   C32       1.0  0.14128  0.03056  0.17159  1.0000
  H   H27       1.0  0.03582  0.15459  0.15315  1.0000
  H   H28       1.0  0.10914  0.43008  0.04617  1.0000
  C   C33       1.0  0.01620  0.03031  0.11551  1.0000
  C   C34       1.0  0.07205  0.44430  0.03965  1.0000
  H   H29       1.0  0.03104  0.23741  0.25399  1.0000
  C   C35       1.0  0.01775  0.20685  0.23746  1.0000
  S   S2        1.0  0.16794  0.00060  0.32082  1.0000
  H   H30       1.0  0.22264  0.29469  0.05042  1.0000
  H   H31       1.0  0.01623  0.00022  0.13544  1.0000
  H   H32       1.0  0.48899  0.04526  0.02705  1.0000
  C   C36       1.0  0.40856  0.05255  0.02509  1.0000
  C   C37       1.0  0.10776  0.12159  0.35654  1.0000
  C   C38       1.0  0.39640  0.14829  0.62247  1.0000
  H   H33       1.0  0.29343  0.08817  0.51231  1.0000
  H   H34       1.0  0.23611  0.21762  0.57584  1.0000
  Fe  Fe1       1.0  0.08667  0.31622  0.60047  1.0000
  S   S3        1.0  0.07864  0.25133  0.63903  1.0000
  S   S4        1.0  0.14353  0.30972  0.55382  1.0000
  H   H35       1.0  0.17989  0.15649  0.35902  1.0000
  H   H36       1.0  0.30130  0.13545  0.66672  1.0000
  H   H37       1.0  0.07215  0.20501  0.44013  1.0000
  S   S5        1.0  0.08675  0.37316  0.64613  1.0000
  S   S6        1.0  0.15085  0.09089  0.49106  1.0000
  C   C39       1.0  0.14397  0.25031  0.53354  1.0000
  C   C40       1.0  0.18204  0.23653  0.50828  1.0000
  C   C41       1.0  0.18414  0.18801  0.49391  1.0000
  C   C42       1.0  0.14830  0.15330  0.50493  1.0000
  C   C43       1.0  0.10945  0.16768  0.52916  1.0000
  C   C44       1.0  0.10710  0.21601  0.54325  1.0000
  H   H38       1.0  0.21045  0.26304  0.50042  1.0000
  H   H39       1.0  0.21357  0.17735  0.47470  1.0000
  H   H40       1.0  0.08123  0.14109  0.53740  1.0000
  H   H41       1.0  0.07674  0.22652  0.56174  1.0000
  C   C45       1.0  0.01109  0.04195  0.62310  1.0000
  C   C46       1.0  0.06145  0.46517  0.52992  1.0000
  C   C47       1.0  0.37101  0.12045  0.59588  1.0000
  C   C48       1.0  0.12889  0.18514  0.40064  1.0000
  C   C49       1.0  0.30340  0.12666  0.50859  1.0000
  H   H42       1.0  0.39279  0.06820  0.47290  1.0000
  H   H43       1.0  0.08533  0.49195  0.54317  1.0000
  H   H44       1.0  0.30998  0.11986  0.44927  1.0000
  H   H45       1.0  0.05837  0.05906  0.43761  1.0000
  H   H46       1.0  0.19292  0.27247  0.62027  1.0000
  S   S7        1.0  0.24349  0.06275  0.39960  1.0000
  H   H47       1.0  0.38006  0.06620  0.55205  1.0000
  C   C50       1.0  0.18849  0.03755  0.57677  1.0000
  P   P2        1.0  0.30584  0.13269  0.58560  1.0000
  H   H48       1.0  0.20197  0.11483  0.56691  1.0000
  H   H49       1.0  0.06406  0.34620  0.49900  1.0000
  C   C51       1.0  0.33147  0.22533  0.49766  1.0000
  Fe  Fe2       1.0  0.20287  0.04732  0.45342  1.0000
  C   C52       1.0  0.22259  0.23541  0.66841  1.0000
  C   C53       1.0  0.04571  0.14885  0.40228  1.0000
  H   H50       1.0  0.11741  0.09627  0.68251  1.0000
  C   C54       1.0  0.21829  0.07989  0.57600  1.0000
  C   C55       1.0  0.44786  0.14082  0.62791  1.0000
  C   C56       1.0  0.42931  0.06519  0.45979  1.0000
  C   C57       1.0  0.08855  0.08009  0.66564  1.0000
  C   C58       1.0  0.01180  0.03401  0.52333  1.0000
  C   C59       1.0  0.03352  0.06178  0.46142  1.0000
  C   C60       1.0  0.05974  0.11840  0.37227  1.0000
  C   C61       1.0  0.47131  0.08722  0.47618  1.0000
  H   H51       1.0  0.37715  0.17681  0.63829  1.0000
  C   C62       1.0  0.26881  0.07703  0.58636  1.0000
  C   C63       1.0  0.27843  0.16570  0.65623  1.0000
  C   C64       1.0  0.28892  0.03129  0.59818  1.0000
  C   C65       1.0  0.32314  0.20728  0.53358  1.0000
  H   H52       1.0  0.46665  0.10783  0.50164  1.0000
  C   C66       1.0  0.08084  0.18217  0.41640  1.0000
  H   H53       1.0  0.33386  0.20754  0.43946  1.0000
  C   C67       1.0  0.39831  0.08638  0.57396  1.0000
  H   H54       1.0  0.48747  0.01514  0.38433  1.0000
  C   C68       1.0  0.06877  0.10799  0.63639  1.0000
  C   C69       1.0  0.21714  0.24288  0.63034  1.0000
  H   H55       1.0  0.01829  0.00952  0.54664  1.0000
  C   C70       1.0  0.03005  0.08900  0.61513  1.0000
  C   C71       1.0  0.08030  0.41799  0.52145  1.0000
  C   C72       1.0  0.30818  0.15801  0.53927  1.0000
  C   C73       1.0  0.04939  0.38306  0.50498  1.0000
  H   H56       1.0  0.20286  0.25950  0.68782  1.0000
  C   C74       1.0  0.31281  0.14449  0.47277  1.0000
  C   C75       1.0  0.32652  0.19387  0.46726  1.0000
  H   H57       1.0  0.34269  0.26347  0.49342  1.0000
  C   C76       1.0  0.24235  0.21197  0.60515  1.0000
  C   C77       1.0  0.27439  0.17398  0.61788  1.0000
  H   H58       1.0  0.11879  0.40825  0.52801  1.0000
  C   C78       1.0  0.47451  0.10629  0.60637  1.0000
  C   C79       1.0  0.48282  0.03526  0.41002  1.0000
  H   H59       1.0  0.32911  0.23158  0.55691  1.0000
  H   H60       1.0  0.47071  0.05343  0.56191  1.0000
  C   C80       1.0  0.04195  0.03032  0.49161  1.0000
  H   H61       1.0  0.01425  0.11134  0.59298  1.0000
  H   H62       1.0  0.01582  0.19957  0.48878  1.0000
  H   H63       1.0  0.08303  0.14462  0.63031  1.0000
  C   C81       1.0  0.43491  0.03916  0.42654  1.0000
  H   H64       1.0  0.14980  0.04014  0.56788  1.0000
  H   H65       1.0  0.26749  0.04936  0.67478  1.0000
  C   C82       1.0  0.44974  0.07912  0.57939  1.0000
  C   C83       1.0  0.03144  0.01348  0.65180  1.0000
  H   H66       1.0  0.32737  0.02809  0.60713  1.0000
  C   C84       1.0  0.25285  0.19652  0.68137  1.0000
  C   C85       1.0  0.01163  0.47753  0.52193  1.0000
  H   H67       1.0  0.15605  0.21017  0.41225  1.0000
  C   C86       1.0  0.07106  0.03194  0.67280  1.0000
  H   H68       1.0  0.07300  0.00411  0.49074  1.0000
  Fe  Fe3       1.0  0.30079  0.00695  0.42025  1.0000
  H   H69       1.0  0.03427  0.09103  0.36169  1.0000
  Fe  Fe4       1.0  0.07158  0.30809  0.68373  1.0000
  S   S8        1.0  0.00441  0.32551  0.58936  1.0000
  H   H70       1.0  0.46735  0.16268  0.64825  1.0000
  H   H71       1.0  0.12424  0.48968  0.67989  1.0000
  S   S9        1.0  0.38400  0.00931  0.40502  1.0000
  H   H72       1.0  0.17962  0.02871  0.66201  1.0000
  H   H73       1.0  0.02970  0.49041  0.60603  1.0000
  C   C87       1.0  0.14236  0.15486  0.37076  1.0000
  S   S10       1.0  0.10641  0.30592  0.74043  1.0000
  Fe  Fe5       1.0  0.30776  0.12230  0.93243  1.0000
  S   S11       1.0  0.26948  0.06073  0.90164  1.0000
  S   S12       1.0  0.39089  0.13232  0.94567  1.0000
  Fe  Fe6       1.0  0.21034  0.18398  0.94018  1.0000
  S   S13       1.0  0.16617  0.12787  0.90969  1.0000
  S   S14       1.0  0.16806  0.25408  0.95679  1.0000
  Fe  Fe7       1.0  0.20714  0.07094  0.94374  1.0000
  Fe  Fe8       1.0  0.23112  0.12279  0.87047  1.0000
  S   S15       1.0  0.21431  0.11702  0.80939  1.0000
  S   S16       1.0  0.24761  0.12774  0.97722  1.0000
  S   S17       1.0  0.27311  0.18370  0.89805  1.0000
  C   C88       1.0  0.13666  0.25273  0.75833  1.0000
  C   C89       1.0  0.15855  0.25567  0.79337  1.0000
  C   C90       1.0  0.18187  0.21400  0.80934  1.0000
  C   C91       1.0  0.18448  0.16931  0.78994  1.0000
  C   C92       1.0  0.16290  0.16622  0.75470  1.0000
  C   C93       1.0  0.13852  0.20777  0.73903  1.0000
  H   H74       1.0  0.15765  0.29043  0.80826  1.0000
  H   H75       1.0  0.19843  0.21671  0.83649  1.0000
  H   H76       1.0  0.16497  0.13165  0.73961  1.0000
  H   H77       1.0  0.12155  0.20512  0.71203  1.0000
  H   H78       1.0  0.04004  0.45702  0.87657  1.0000
  S   S18       1.0  0.15033  0.01597  0.96535  1.0000
  H   H79       1.0  0.09652  0.06621  0.77189  1.0000
  C   C94       1.0  0.44430  0.09300  0.93897  1.0000
  H   H80       1.0  0.08665  0.40499  0.92106  1.0000
  C   C95       1.0  0.06956  0.31936  0.85376  1.0000
  H   H81       1.0  0.16915  0.04059  0.85076  1.0000
  C   C96       1.0  0.06602  0.48104  0.01255  1.0000
  H   H82       1.0  0.03309  0.33247  0.80185  1.0000
  H   H83       1.0  0.07695  0.17508  0.80752  1.0000
  H   H84       1.0  0.04319  0.16338  0.87036  1.0000
  C   C97       1.0  0.04792  0.41880  0.86963  1.0000
  H   H85       1.0  0.25616  0.19020  0.71098  1.0000
  C   C98       1.0  0.05494  0.00497  0.74892  1.0000
  H   H86       1.0  0.08233  0.10139  0.96858  1.0000
  C   C99       1.0  0.04499  0.09987  0.95702  1.0000
  H   H87       1.0  0.04425  0.17687  0.94191  1.0000
  C   C100      1.0  0.02170  0.18528  0.85089  1.0000
  H   H88       1.0  0.03567  0.02218  0.96913  1.0000
  C   C101      1.0  0.26218  0.03188  0.73291  1.0000
  C   C102      1.0  0.04111  0.19171  0.81506  1.0000
  H   H89       1.0  0.08743  0.05147  0.88307  1.0000
  H   H90       1.0  0.15231  0.42411  0.72390  1.0000
  H   H91       1.0  0.35772  0.17582  0.01442  1.0000
  C   C103      1.0  0.10232  0.29094  0.00937  1.0000
  H   H92       1.0  0.40353  0.02846  0.92253  1.0000
  C   C104      1.0  0.31586  0.24066  0.99918  1.0000
  C   C105      1.0  0.23115  0.01486  0.76157  1.0000
  C   C106      1.0  0.03257  0.39868  0.83573  1.0000
  C   C107      1.0  0.03959  0.45341  0.76406  1.0000
  H   H93       1.0  0.09959  0.40136  0.77719  1.0000
  H   H94       1.0  0.10570  0.31692  0.90686  1.0000
  C   C108      1.0  0.27762  0.27408  0.00900  1.0000
  H   H95       1.0  0.15442  0.17531  0.01033  1.0000
  C   C109      1.0  0.03082  0.05020  0.80456  1.0000
  C   C110      1.0  0.24336  0.03679  0.69709  1.0000
  H   H96       1.0  0.49593  0.14992  0.95493  1.0000
  C   C111      1.0  0.08502  0.33969  0.88720  1.0000
  C   C112      1.0  0.01869  0.05529  0.95738  1.0000
  H   H97       1.0  0.10119  0.32428  0.99260  1.0000
  H   H98       1.0  0.30067  0.04153  0.73865  1.0000
  C   C113      1.0  0.44013  0.04343  0.92818  1.0000
  C   C114      1.0  0.07425  0.38939  0.89512  1.0000
  H   H99       1.0  0.07866  0.28104  0.84744  1.0000
  H   H100      1.0  0.26622  0.30295  0.98974  1.0000
  C   C115      1.0  0.13158  0.25011  0.99771  1.0000
  H   H101      1.0  0.03826  0.07893  0.82460  1.0000
  C   C116      1.0  0.04358  0.34864  0.82808  1.0000
  H   H102      1.0  0.33459  0.24380  0.97244  1.0000
  C   C117      1.0  0.49228  0.11171  0.94639  1.0000
  C   C118      1.0  0.08651  0.43029  0.75870  1.0000
  C   C119      1.0  0.01478  0.22006  0.78909  1.0000
  C   C120      1.0  0.11694  0.44348  0.72851  1.0000
  C   C121      1.0  0.06398  0.04261  0.77474  1.0000
  C   C122      1.0  0.02328  0.14258  0.94178  1.0000
  C   C123      1.0  0.13258  0.20708  0.01939  1.0000
  H   H103      1.0  0.24569  0.01172  0.78943  1.0000
  C   C124      1.0  0.18085  0.00428  0.75476  1.0000
  C   C125      1.0  0.14831  0.00839  0.85972  1.0000
  H   H104      1.0  0.03014  0.22539  0.76140  1.0000
  C   C126      1.0  0.10209  0.01452  0.87777  1.0000
  C   C127      1.0  0.16121  0.01085  0.71916  1.0000
  C   C128      1.0  0.02424  0.49086  0.73925  1.0000
  H   H105      1.0  0.40511  0.02819  0.00148  1.0000
  C   C129      1.0  0.10109  0.48027  0.70371  1.0000
  C   C130      1.0  0.48332  0.01279  0.92580  1.0000
  C   C131      1.0  0.32878  0.20179  0.02314  1.0000
  C   C132      1.0  0.19326  0.02564  0.69009  1.0000
  H   H106      1.0  0.09863  0.49560  0.99820  1.0000
  H   H107      1.0  0.31469  0.83264  0.16194  1.0000
  Fe  Fe9       1.0  0.05634  0.80495  0.19003  1.0000
  S   S19       1.0  0.11456  0.76320  0.15703  1.0000
  S   S20       1.0  0.06129  0.81239  0.25276  1.0000
  H   H108      1.0  0.07782  0.54288  0.11299  1.0000
  S   S21       1.0  0.04808  0.78862  0.08250  1.0000
  Fe  Fe10      1.0  0.05033  0.72909  0.12675  1.0000
  S   S22       1.0  0.06161  0.64816  0.11083  1.0000
  Fe  Fe11      1.0  0.10838  0.82499  0.11553  1.0000
  S   S23       1.0  0.18066  0.85600  0.09195  1.0000
  C   C133      1.0  0.37771  0.93342  0.27934  1.0000
  S   S24       1.0  0.05484  0.86941  0.15074  1.0000
  C   C134      1.0  0.14022  0.94714  0.30226  1.0000
  C   C135      1.0  0.12565  0.94753  0.26504  1.0000
  C   C136      1.0  0.10254  0.90597  0.24945  1.0000
  C   C137      1.0  0.09284  0.86405  0.27118  1.0000
  C   C138      1.0  0.10779  0.86356  0.30842  1.0000
  C   C139      1.0  0.13170  0.90481  0.32388  1.0000
  C   C140      1.0  0.15553  0.73336  0.34588  1.0000
  H   H109      1.0  0.09145  0.90682  0.22078  1.0000
  H   H110      1.0  0.10158  0.83106  0.32532  1.0000
  C   C141      1.0  0.30587  0.94068  0.23863  1.0000
  H   H111      1.0  0.09216  0.89802  0.05841  1.0000
  C   C142      1.0  0.35167  0.96013  0.30665  1.0000
  C   C143      1.0  0.17281  0.89979  0.05627  1.0000
  C   C144      1.0  0.39163  0.98258  0.13125  1.0000
  C   C145      1.0  0.12480  0.91428  0.04528  1.0000
  H   H112      1.0  0.17280  0.79302  0.24665  1.0000
  H   H113      1.0  0.36436  0.99201  0.18687  1.0000
  H   H114      1.0  0.03550  0.96021  0.35361  1.0000
  C   C146      1.0  0.17900  0.94826  0.17142  1.0000
  H   H115      1.0  0.13218  0.98017  0.24819  1.0000
  H   H116      1.0  0.28056  0.89264  0.11797  1.0000
  C   C147      1.0  0.34495  0.92669  0.09267  1.0000
  C   C148      1.0  0.27943  0.96607  0.26666  1.0000
  H   H117      1.0  0.20117  0.87955  0.24063  1.0000
  C   C149      1.0  0.21493  0.92096  0.03895  1.0000
  C   C150      1.0  0.38484  0.95922  0.09721  1.0000
  C   C151      1.0  0.31222  0.91685  0.12231  1.0000
  H   H118      1.0  0.10469  0.96513  0.15188  1.0000
  H   H119      1.0  0.41014  0.96675  0.07420  1.0000
  C   C152      1.0  0.25815  0.86316  0.19937  1.0000
  C   C153      1.0  0.28310  0.82497  0.17995  1.0000
  C   C154      1.0  0.26724  0.77584  0.18372  1.0000
  C   C155      1.0  0.22733  0.76435  0.20757  1.0000
  C   C156      1.0  0.20372  0.80186  0.22810  1.0000
  C   C157      1.0  0.21935  0.85097  0.22423  1.0000
  H   H120      1.0  0.16281  0.71313  0.32046  1.0000
  H   H121      1.0  0.14321  0.90397  0.35256  1.0000
  H   H122      1.0  0.21444  0.72645  0.20997  1.0000
  C   C158      1.0  0.22298  0.96718  0.18683  1.0000
  H   H123      1.0  0.37518  0.90214  0.22474  1.0000
  P   P3        1.0  0.27666  0.92722  0.19498  1.0000
  H   H124      1.0  0.33920  0.90926  0.06607  1.0000
  H   H125      1.0  0.28556  0.74667  0.16788  1.0000
  H   H126      1.0  0.02911  0.78576  0.33459  1.0000
  H   H127      1.0  0.17611  0.90923  0.16475  1.0000
  H   H128      1.0  0.23427  0.97966  0.10481  1.0000
  H   H129      1.0  0.06159  0.98875  0.07705  1.0000
  H   H130      1.0  0.25208  0.90943  0.04718  1.0000
  C   C159      1.0  0.35482  0.92342  0.24550  1.0000
  C   C160      1.0  0.32001  0.93849  0.15707  1.0000
  C   C161      1.0  0.00770  0.50973  0.12960  1.0000
  C   C162      1.0  0.03936  0.54993  0.12146  1.0000
  C   C163      1.0  0.30255  0.97633  0.30031  1.0000
  H   H131      1.0  0.41553  0.92027  0.28457  1.0000
  H   H132      1.0  0.24080  0.97757  0.26292  1.0000
  C   C164      1.0  0.02164  0.59912  0.12430  1.0000
  C   C165      1.0  0.35907  0.97269  0.16098  1.0000
  H   H133      1.0  0.02336  0.96874  0.25818  1.0000
  H   H134      1.0  0.36927  0.96781  0.33293  1.0000
  H   H135      1.0  0.07889  0.71066  0.34945  1.0000
  H   H136      1.0  0.23071  0.76159  0.34933  1.0000
  C   C166      1.0  0.13834  0.97990  0.16394  1.0000
  H   H137      1.0  0.28207  0.99643  0.32169  1.0000
  H   H138      1.0  0.05682  0.81552  0.55634  1.0000
  Fe  Fe12      1.0  0.20292  0.99643  0.37765  1.0000
  C   C167      1.0  0.02036  0.81960  0.43816  1.0000
  S   S25       1.0  0.02096  0.90809  0.59007  1.0000
  C   C168      1.0  0.04434  0.67871  0.50940  1.0000
  H   H139      1.0  0.18593  0.95908  0.58829  1.0000
  Fe  Fe13      1.0  0.21991  0.93654  0.44845  1.0000
  H   H140      1.0  0.05207  0.68503  0.53844  1.0000
  S   S26       1.0  0.19899  0.86520  0.47697  1.0000
  C   C169      1.0  0.09735  0.76047  0.39430  1.0000
  P   P4        1.0  0.03500  0.76208  0.41457  1.0000
  S   S27       1.0  0.26218  0.94156  0.39457  1.0000
  H   H141      1.0  0.04211  0.53207  0.68962  1.0000
  H   H142      1.0  0.37709  0.88171  0.49829  1.0000
  H   H143      1.0  0.11344  0.79013  0.67402  1.0000
  C   C170      1.0  0.18453  0.78595  0.39520  1.0000
  C   C171      1.0  0.03319  0.90785  0.44726  1.0000
  C   C172      1.0  0.49135  0.93412  0.48408  1.0000
  C   C173      1.0  0.06989  0.89420  0.55867  1.0000
  C   C174      1.0  0.10026  0.93299  0.54626  1.0000
  C   C175      1.0  0.13929  0.92416  0.52081  1.0000
  C   C176      1.0  0.14943  0.87600  0.50854  1.0000
  C   C177      1.0  0.12006  0.83666  0.52174  1.0000
  C   C178      1.0  0.07979  0.84580  0.54648  1.0000
  H   H144      1.0  0.09389  0.97011  0.55652  1.0000
  H   H145      1.0  0.16219  0.95465  0.51126  1.0000
  H   H146      1.0  0.12841  0.79927  0.51268  1.0000
  S   S28       1.0  0.15758  0.98589  0.42921  1.0000
  C   C179      1.0  0.10795  0.91530  0.66148  1.0000
  H   H147      1.0  0.27465  0.95353  0.60753  1.0000
  H   H148      1.0  0.21434  0.80637  0.40829  1.0000
  H   H149      1.0  0.41530  0.96170  0.48041  1.0000
  C   C180      1.0  0.02473  0.66249  0.43448  1.0000
  C   C181      1.0  0.41762  0.88484  0.49674  1.0000
  C   C182      1.0  0.44831  0.84391  0.50484  1.0000
  C   C183      1.0  0.04514  0.86374  0.42877  1.0000
  C   C184      1.0  0.13674  0.78529  0.41150  1.0000
  H   H150      1.0  0.11782  0.85359  0.62427  1.0000
  H   H151      1.0  0.13059  0.80446  0.43747  1.0000
  H   H152      1.0  0.07353  0.86451  0.40710  1.0000
  H   H153      1.0  0.11007  0.94238  0.63925  1.0000
  C   C185      1.0  0.20887  0.99202  0.58807  1.0000
  H   H154      1.0  0.43148  0.80910  0.51312  1.0000
  C   C186      1.0  0.43917  0.92999  0.48666  1.0000
  C   C187      1.0  0.03355  0.63098  0.49712  1.0000
  C   C188      1.0  0.03420  0.71079  0.44688  1.0000
  C   C189      1.0  0.11285  0.86492  0.65287  1.0000
  C   C190      1.0  0.19379  0.76054  0.36213  1.0000
  H   H155      1.0  0.05298  0.94156  0.44029  1.0000
  C   C191      1.0  0.25900  0.98893  0.59885  1.0000
  H   H156      1.0  0.04051  0.57841  0.58648  1.0000
  H   H157      1.0  0.05399  0.75497  0.49451  1.0000
  H   H158      1.0  0.01625  0.97703  0.65744  1.0000
  C   C192      1.0  0.11043  0.82915  0.68094  1.0000
  C   C193      1.0  0.04504  0.71842  0.48439  1.0000
  C   C194      1.0  0.10770  0.73259  0.36222  1.0000
  C   C195      1.0  0.02431  0.62273  0.45960  1.0000
  C   C196      1.0  0.50057  0.84783  0.50216  1.0000
  H   H159      1.0  0.01789  0.65552  0.40543  1.0000
  H   H160      1.0  0.03251  0.60052  0.51680  1.0000
  C   C197      1.0  0.00807  0.56806  0.60289  1.0000
  H   H161      1.0  0.01671  0.58553  0.45007  1.0000
  S   S29       1.0  0.26317  0.99660  0.47601  1.0000
  H   H162      1.0  0.16206  0.88460  0.93482  1.0000
  C   C198      1.0  0.09680  0.77480  0.98474  1.0000
  H   H163      1.0  0.01124  0.76242  0.77196  1.0000
  P   P5        1.0  0.06192  0.87129  0.90085  1.0000
  C   C199      1.0  0.09902  0.89413  0.72652  1.0000
  C   C200      1.0  0.47238  0.83439  0.78100  1.0000
  H   H164      1.0  0.09485  0.90490  0.75527  1.0000
  C   C201      1.0  0.01811  0.49978  0.00464  1.0000
  H   H165      1.0  0.04256  0.71737  0.82752  1.0000
  C   C202      1.0  0.05333  0.78394  0.85936  1.0000
  C   C203      1.0  0.01113  0.97665  0.75246  1.0000
  H   H166      1.0  0.20420  0.95626  0.84031  1.0000
  C   C204      1.0  0.09666  0.83700  0.93558  1.0000
  C   C205      1.0  0.01959  0.83450  0.79628  1.0000
  C   C206      1.0  0.02285  0.78276  0.79625  1.0000
  H   H167      1.0  0.47953  0.97425  0.91819  1.0000
  H   H168      1.0  0.47819  0.73534  0.83969  1.0000
  C   C207      1.0  0.14410  0.79039  0.99584  1.0000
  C   C208      1.0  0.16783  0.82901  0.97689  1.0000
  C   C209      1.0  0.14405  0.85275  0.94723  1.0000
  H   H169      1.0  0.10247  0.81599  0.73955  1.0000
  C   C210      1.0  0.16804  0.96081  0.85388  1.0000
  C   C211      1.0  0.00767  0.53020  0.83182  1.0000
  C   C212      1.0  0.20902  0.95716  0.01105  1.0000
  C   C213      1.0  0.16083  0.97182  0.00037  1.0000
  H   H170      1.0  0.04016  0.97879  0.90442  1.0000
  H   H171      1.0  0.15723  0.88255  0.86155  1.0000
  C   C214      1.0  0.14157  0.91928  0.86620  1.0000
  C   C215      1.0  0.09571  0.92524  0.88524  1.0000
  C   C216      1.0  0.07570  0.97312  0.89036  1.0000
  C   C217      1.0  0.00388  0.88952  0.92323  1.0000
  C   C218      1.0  0.48948  0.76898  0.82545  1.0000
  H   H172      1.0  0.44779  0.85148  0.76079  1.0000
  C   C219      1.0  0.09965  0.93017  0.69828  1.0000
  H   H173      1.0  0.20389  0.84193  0.98624  1.0000
  H   H174      1.0  0.03986  0.90813  0.97460  1.0000
  H   H175      1.0  0.04780  0.52478  0.82830  1.0000
  C   C220      1.0  0.07308  0.79806  0.95483  1.0000
  C   C221      1.0  0.04942  0.83593  0.85968  1.0000
  H   H176      1.0  0.03548  0.78693  0.94762  1.0000
  C   C222      1.0  0.03283  0.86101  0.82777  1.0000
  H   H177      1.0  0.24150  0.97362  0.99787  1.0000
  C   C223      1.0  0.04011  0.75750  0.82765  1.0000
  H   H178      1.0  0.08177  0.96238  0.00981  1.0000
  H   H179      1.0  0.07794  0.74566  0.00012  1.0000
  H   H180      1.0  0.01539  0.60346  0.85466  1.0000
  H   H181      1.0  0.15732  0.99133  0.77731  1.0000
  P   P6        1.0  0.09697  0.99512  0.70996  1.0000
  H   H182      1.0  0.01405  0.52889  0.98407  1.0000
  H   H183      1.0  0.06616  0.76369  0.88343  1.0000
  H   H184      1.0  0.42192  0.77442  0.79335  1.0000
  H   H185      1.0  0.02883  0.90108  0.82753  1.0000
  H   H186      1.0  0.00559  0.85398  0.77208  1.0000
  C   C224      1.0  0.10386  0.84376  0.71779  1.0000
  H   H187      1.0  0.16178  0.77356  0.01985  1.0000
  C   C225      1.0  0.45780  0.79099  0.79934  1.0000
  C   C226      1.0  0.00491  0.90702  0.95978  1.0000
  C   C227      1.0  0.11896  0.95030  0.01750  1.0000
  C   C228      1.0  0.05484  0.50410  0.70918  1.0000
  Fe  Fe14      1.0  0.86843  0.29301  0.12126  1.0000
  S   S30       1.0  0.91910  0.24150  0.15263  1.0000
  S   S31       1.0  0.80038  0.26717  0.09010  1.0000
  Fe  Fe15      1.0  0.92584  0.38543  0.14496  1.0000
  C   C229      1.0  0.79785  0.44390  0.09642  1.0000
  Fe  Fe16      1.0  0.91471  0.29736  0.19856  1.0000
  S   S32       1.0  0.90966  0.28072  0.26049  1.0000
  S   S33       1.0  0.93030  0.33643  0.09427  1.0000
  S   S34       1.0  0.85906  0.34561  0.16897  1.0000
  H   H188      1.0  0.72987  0.21396  0.04624  1.0000
  H   H189      1.0  0.71359  0.05299  0.31856  1.0000
  C   C230      1.0  0.85843  0.24808  0.27981  1.0000
  C   C231      1.0  0.82144  0.22780  0.25747  1.0000
  C   C232      1.0  0.78146  0.20143  0.27368  1.0000
  C   C233      1.0  0.77826  0.19480  0.31229  1.0000
  C   C234      1.0  0.81529  0.21513  0.33467  1.0000
  C   C235      1.0  0.85522  0.24166  0.31845  1.0000
  H   H190      1.0  0.82341  0.23287  0.22773  1.0000
  H   H191      1.0  0.75260  0.18664  0.25619  1.0000
  C   C236      1.0  0.97890  0.13152  0.19290  1.0000
  H   H192      1.0  0.88376  0.25720  0.33591  1.0000
  C   C237      1.0  0.79464  0.12473  0.12379  1.0000
  C   C238      1.0  0.95969  0.13946  0.22883  1.0000
  C   C239      1.0  0.80864  0.21769  0.05872  1.0000
  C   C240      1.0  0.99017  0.01942  0.21912  1.0000
  S   S35       1.0  0.98148  0.34020  0.17759  1.0000
  S   S36       1.0  0.91486  0.46936  0.14687  1.0000
  C   C241      1.0  0.74280  0.03822  0.30042  1.0000
  H   H193      1.0  0.96285  0.18469  0.27793  1.0000
  H   H194      1.0  0.95116  0.43372  0.06839  1.0000
  H   H195      1.0  0.79139  0.17553  0.16959  1.0000
  C   C242      1.0  0.97909  0.17702  0.25092  1.0000
  C   C243      1.0  0.85621  0.19738  0.05147  1.0000
  H   H196      1.0  0.87395  0.15174  0.19334  1.0000
  P   P7        1.0  0.95346  0.08296  0.16439  1.0000
  C   C244      1.0  0.75553  0.06389  0.26800  1.0000
  C   C245      1.0  0.79426  0.04620  0.24510  1.0000
  C   C246      1.0  0.86034  0.13291  0.16918  1.0000
  C   C247      1.0  0.81860  0.41296  0.06923  1.0000
  H   H197      1.0  0.83601  0.07432  0.32604  1.0000
  C   C248      1.0  0.81306  0.14658  0.15584  1.0000
  S   S37       1.0  0.72772  0.16062  0.33135  1.0000
  H   H198      1.0  0.89257  0.14182  0.30739  1.0000
  Fe  Fe17      1.0  0.98106  0.28823  0.12880  1.0000
  H   H199      1.0  0.75878  0.13668  0.11278  1.0000
  H   H200      1.0  0.88861  0.21162  0.06558  1.0000
  H   H201      1.0  0.80426  0.06646  0.22013  1.0000
  H   H202      1.0  0.92918  0.11719  0.23953  1.0000
  C   C249      1.0  0.86783  0.48173  0.04524  1.0000
  H   H203      1.0  0.95883  0.16968  0.34980  1.0000
  C   C250      1.0  0.88991  0.09746  0.15028  1.0000
  H   H204      1.0  0.77219  0.42883  0.11696  1.0000
  H   H205      1.0  0.73570  0.09797  0.26105  1.0000
  H   H206      1.0  0.96285  0.27133  0.02992  1.0000
  C   C251      1.0  0.82332  0.08890  0.10512  1.0000
  C   C252      1.0  0.87070  0.07530  0.11824  1.0000
  C   C253      1.0  0.85341  0.43174  0.04369  1.0000
  C   C254      1.0  0.98247  0.44583  0.05154  1.0000
  H   H207      1.0  0.80854  0.37405  0.06860  1.0000
  H   H208      1.0  0.96959  0.14691  0.09968  1.0000
  H   H209      1.0  0.90406  0.00895  0.29613  1.0000
  C   C255      1.0  0.86182  0.15852  0.02587  1.0000
  C   C256      1.0  0.89840  0.12276  0.33352  1.0000
  H   H210      1.0  0.98740  0.02621  0.32100  1.0000
  C   C257      1.0  0.76675  0.19843  0.04061  1.0000
  C   C258      1.0  0.95534  0.02568  0.19045  1.0000
  C   C259      1.0  0.82003  0.00252  0.25446  1.0000
  H   H211      1.0  0.89279  0.04846  0.10265  1.0000
  C   C260      1.0  0.98996  0.11234  0.09512  1.0000
  H   H212      1.0  0.80954  0.07294  0.07967  1.0000
  C   C261      1.0  0.86641  0.08446  0.34400  1.0000
  C   C262      1.0  0.98994  0.07487  0.12234  1.0000
  C   C263      1.0  0.81167  0.49374  0.09796  1.0000
  C   C264      1.0  0.97578  0.48138  0.02350  1.0000
  Fe  Fe18      1.0  0.75130  0.06381  0.44913  1.0000
  S   S38       1.0  0.71358  0.10332  0.49669  1.0000
  Fe  Fe19      1.0  0.72248  0.14327  0.39289  1.0000
  S   S39       1.0  0.68018  0.18852  0.43530  1.0000
  Fe  Fe20      1.0  0.74623  0.17255  0.47176  1.0000
  S   S40       1.0  0.77610  0.23795  0.50328  1.0000
  Fe  Fe21      1.0  0.64981  0.11626  0.45696  1.0000
  S   S41       1.0  0.57106  0.11036  0.48194  1.0000
  S   S42       1.0  0.79048  0.13206  0.42793  1.0000
  S   S43       1.0  0.68573  0.07214  0.41100  1.0000
  S   S44       1.0  0.94856  0.19734  0.61887  1.0000
  C   C265      1.0  0.87915  0.37830  0.38497  1.0000
  C   C266      1.0  0.52480  0.05725  0.42641  1.0000
  C   C267      1.0  0.98029  0.44275  0.50519  1.0000
  C   C268      1.0  0.84568  0.37545  0.41494  1.0000
  H   H213      1.0  0.95032  0.07253  0.54969  1.0000
  C   C269      1.0  0.82482  0.22615  0.53457  1.0000
  C   C270      1.0  0.84479  0.26564  0.55459  1.0000
  C   C271      1.0  0.88366  0.25715  0.57988  1.0000
  C   C272      1.0  0.90174  0.20898  0.58592  1.0000
  C   C273      1.0  0.88137  0.16946  0.56621  1.0000
  C   C274      1.0  0.84350  0.17810  0.54009  1.0000
  H   H214      1.0  0.83027  0.30284  0.55036  1.0000
  H   H215      1.0  0.89885  0.28763  0.59531  1.0000
  H   H216      1.0  0.89489  0.13224  0.57120  1.0000
  H   H217      1.0  0.82839  0.14774  0.52442  1.0000
  C   C275      1.0  0.87488  0.43776  0.53171  1.0000
  C   C276      1.0  0.90041  0.42724  0.45161  1.0000
  H   H218      1.0  0.89980  0.31051  0.49496  1.0000
  H   H219      1.0  0.56144  0.05395  0.41342  1.0000
  C   C277      1.0  0.85630  0.39949  0.44821  1.0000
  C   C278      1.0  0.81063  0.40814  0.58967  1.0000
  C   C279      1.0  0.86126  0.39434  0.59000  1.0000
  C   C280      1.0  0.89331  0.40897  0.56114  1.0000
  C   C281      1.0  0.99498  0.09759  0.46297  1.0000
  H   H220      1.0  0.83023  0.39537  0.47112  1.0000
  P   P8        1.0  0.91576  0.45805  0.49453  1.0000
  H   H221      1.0  0.87606  0.37291  0.61299  1.0000
  H   H222      1.0  0.93249  0.39857  0.56245  1.0000
  C   C282      1.0  0.94131  0.11554  0.39243  1.0000
  C   C283      1.0  0.85136  0.03193  0.53540  1.0000
  H   H223      1.0  0.78599  0.39664  0.61209  1.0000
  C   C284      1.0  0.97317  0.06925  0.52491  1.0000
  C   C285      1.0  0.62416  0.02109  0.54770  1.0000
  C   C286      1.0  0.91007  0.07583  0.40226  1.0000
  C   C287      1.0  0.76351  0.01156  0.66110  1.0000
  C   C288      1.0  0.87292  0.06025  0.37793  1.0000
  H   H224      1.0  0.84230  0.04668  0.50826  1.0000
  H   H225      1.0  0.75283  0.44816  0.56048  1.0000
  H   H226      1.0  0.84785  0.03067  0.38605  1.0000
  C   C289      1.0  0.77493  0.11262  0.63106  1.0000
  C   C290      1.0  0.77293  0.20223  0.62334  1.0000
  C   C291      1.0  0.72854  0.19891  0.60328  1.0000
  C   C292      1.0  0.70663  0.15271  0.59775  1.0000
  C   C293      1.0  0.72952  0.10974  0.61179  1.0000
  H   H227      1.0  0.90866  0.09794  0.63730  1.0000
  C   C294      1.0  0.91670  0.21913  0.43124  1.0000
  H   H228      1.0  0.79059  0.23791  0.62677  1.0000
  H   H229      1.0  0.79939  0.07978  0.56312  1.0000
  H   H230      1.0  0.71199  0.23198  0.59104  1.0000
  H   H231      1.0  0.67292  0.15015  0.58134  1.0000
  H   H232      1.0  0.71348  0.07400  0.60578  1.0000
  H   H233      1.0  0.96834  0.45053  0.42335  1.0000
  H   H234      1.0  0.81170  0.35392  0.41252  1.0000
  C   C295      1.0  0.79627  0.15929  0.63703  1.0000
  C   C296      1.0  0.96393  0.10023  0.49460  1.0000
  S   S45       1.0  0.94995  0.44205  0.64830  1.0000
  C   C297      1.0  0.51921  0.08338  0.45960  1.0000
  H   H235      1.0  0.97800  0.27231  0.51938  1.0000
  C   C298      1.0  0.92320  0.40552  0.38816  1.0000
  C   C299      1.0  0.90145  0.08935  0.66621  1.0000
  C   C300      1.0  0.93380  0.42994  0.42127  1.0000
  H   H236      1.0  0.93321  0.12683  0.49627  1.0000
  C   C301      1.0  0.96155  0.25826  0.49426  1.0000
  C   C302      1.0  0.62794  0.00179  0.58358  1.0000
  H   H237      1.0  0.62885  0.06049  0.54274  1.0000
  C   C303      1.0  0.83924  0.03255  0.60221  1.0000
  H   H238      1.0  0.81315  0.21041  0.36442  1.0000
  C   C304      1.0  0.99959  0.39533  0.49687  1.0000
  C   C305      1.0  0.89496  0.25990  0.44928  1.0000
  H   H239      1.0  0.91301  0.05786  0.42905  1.0000
  H   H240      1.0  0.98052  0.02736  0.60716  1.0000
  C   C306      1.0  0.79205  0.43723  0.56064  1.0000
  H   H241      1.0  0.83190  0.16281  0.65081  1.0000
  C   C307      1.0  0.96119  0.19738  0.44464  1.0000
  H   H242      1.0  0.97621  0.36772  0.48425  1.0000
  P   P9        1.0  0.80808  0.05616  0.64331  1.0000
  C   C308      1.0  0.82710  0.05077  0.56685  1.0000
  C   C309      1.0  0.91752  0.27969  0.48057  1.0000
  H   H243      1.0  0.85943  0.27487  0.43984  1.0000
  C   C310      1.0  0.93574  0.13839  0.35761  1.0000
  H   H244      1.0  0.89732  0.20388  0.40780  1.0000
  P   P10       1.0  0.98555  0.14017  0.42498  1.0000
  H   H245      1.0  0.87109  0.35916  0.35931  1.0000
  H   H246      1.0  0.63615  0.02606  0.60651  1.0000
  C   C311      1.0  0.82413  0.45240  0.53194  1.0000
  Fe  Fe22      1.0  0.99621  0.26377  0.63056  1.0000
  S   S46       1.0  0.98803  0.31443  0.67924  1.0000
  H   H247      1.0  0.61026  0.00571  0.49048  1.0000
  H   H248      1.0  0.94922  0.40738  0.36489  1.0000
  C   C312      1.0  0.85543  0.06903  0.67746  1.0000
  H   H249      1.0  0.51458  0.10137  0.60995  1.0000
  H   H250      1.0  0.80934  0.47531  0.50977  1.0000
  H   H251      1.0  0.97312  0.11665  0.68333  1.0000
  C   C313      1.0  0.98316  0.21715  0.47656  1.0000
  C   C314      1.0  0.72693  0.02661  0.68716  1.0000
  Fe  Fe23      1.0  0.00314  0.37648  0.63876  1.0000
  S   S47       1.0  0.82990  0.09332  0.97379  1.0000
  C   C315      1.0  0.53561  0.08133  0.94323  1.0000
  H   H252      1.0  0.79618  0.13210  0.84569  1.0000
  H   H253      1.0  0.57214  0.09620  0.94927  1.0000
  C   C316      1.0  0.77235  0.15924  0.01520  1.0000
  H   H254      1.0  0.83341  0.32354  0.75028  1.0000
  C   C317      1.0  0.86510  0.34448  0.76008  1.0000
  S   S48       1.0  0.71688  0.05825  0.90092  1.0000
  H   H255      1.0  0.91109  0.09370  0.91649  1.0000
  C   C318      1.0  0.97531  0.20687  0.86095  1.0000
  Fe  Fe24      1.0  0.77066  0.04486  0.94822  1.0000
  C   C319      1.0  0.95731  0.23894  0.97578  1.0000
  H   H256      1.0  0.91352  0.25265  0.84186  1.0000
  H   H257      1.0  0.93987  0.43120  0.88809  1.0000
  C   C320      1.0  0.94775  0.39837  0.78506  1.0000
  H   H258      1.0  0.73702  0.17063  0.89095  1.0000
  C   C321      1.0  0.94880  0.09602  0.92710  1.0000
  H   H259      1.0  0.81517  0.49720  0.97863  1.0000
  H   H260      1.0  0.88510  0.37222  0.70572  1.0000
  C   C322      1.0  0.84700  0.05925  0.71529  1.0000
  H   H261      1.0  0.86001  0.23056  0.95071  1.0000
  C   C323      1.0  0.77700  0.17649  0.89338  1.0000
  P   P11       1.0  0.94771  0.19617  0.90632  1.0000
  H   H262      1.0  0.95845  0.09744  0.74985  1.0000
  C   C324      1.0  0.89421  0.48399  0.96736  1.0000
  H   H263      1.0  0.84900  0.43020  0.87361  1.0000
  C   C325      1.0  0.96014  0.24685  0.93731  1.0000
  C   C326      1.0  0.93515  0.39870  0.74738  1.0000
  C   C327      1.0  0.96984  0.29469  0.92371  1.0000
  C   C328      1.0  0.86165  0.44552  0.89957  1.0000
  C   C329      1.0  0.88076  0.18919  0.90122  1.0000
  C   C330      1.0  0.86205  0.16134  0.87166  1.0000
  H   H264      1.0  0.96872  0.46457  0.94709  1.0000
  H   H265      1.0  0.88746  0.14357  0.85209  1.0000
  C   C331      1.0  0.81036  0.15491  0.86786  1.0000
  C   C332      1.0  0.91277  0.44606  0.90771  1.0000
  C   C333      1.0  0.97051  0.05350  0.94264  1.0000
  C   C334      1.0  0.94928  0.23566  0.83471  1.0000
  C   C335      1.0  0.84694  0.21044  0.92688  1.0000
  C   C336      1.0  0.92978  0.08940  0.72977  1.0000
  C   C337      1.0  0.79528  0.20423  0.92282  1.0000
  H   H266      1.0  0.76954  0.21937  0.94340  1.0000
  H   H267      1.0  0.87741  0.06054  0.77029  1.0000
  H   H268      1.0  0.67138  0.03317  0.80504  1.0000
  H   H269      1.0  0.52121  0.02153  0.84817  1.0000
  H   H270      1.0  0.85465  0.32278  0.81710  1.0000
  C   C338      1.0  0.97471  0.32552  0.98662  1.0000
  C   C339      1.0  0.53130  0.03150  0.93325  1.0000
  C   C340      1.0  0.88421  0.06892  0.74125  1.0000
  H   H271      1.0  0.94945  0.01941  0.94363  1.0000
  C   C341      1.0  0.91847  0.37069  0.81014  1.0000
  H   H272      1.0  0.96244  0.02677  0.83165  1.0000
  H   H273      1.0  0.95696  0.41921  0.72720  1.0000
  H   H274      1.0  0.59254  0.07323  0.82766  1.0000
  C   C342      1.0  0.89408  0.37183  0.73500  1.0000
  C   C343      1.0  0.96461  0.27807  0.00028  1.0000
  H   H275      1.0  0.94918  0.20251  0.98693  1.0000
  C   C344      1.0  0.87718  0.34403  0.79769  1.0000
  H   H276      1.0  0.72467  0.06493  0.69604  1.0000
  C   C345      1.0  0.82003  0.13957  0.00751  1.0000
  C   C346      1.0  0.59528  0.03317  0.82578  1.0000
  H   H277      1.0  0.94888  0.26420  0.77862  1.0000
  H   H278      1.0  0.74000  0.14486  0.00111  1.0000
  C   C347      1.0  0.92908  0.46532  0.94136  1.0000
  C   C348      1.0  0.97514  0.14084  0.92633  1.0000
  H   H279      1.0  0.81188  0.04431  0.72511  1.0000
  H   H280      1.0  0.98088  0.35562  0.00577  1.0000
  H   H281      1.0  0.92758  0.36963  0.83928  1.0000
  C   C349      1.0  0.82674  0.46448  0.92507  1.0000
  C   C350      1.0  0.96896  0.24213  0.79892  1.0000
  C   C351      1.0  0.98812  0.02086  0.80853  1.0000
  C   C352      1.0  0.55500  0.00398  0.83724  1.0000
  C   C353      1.0  0.84288  0.48355  0.95885  1.0000
  H   H282      1.0  0.66753  0.00344  0.72416  1.0000
  H   H283      1.0  0.89572  0.47454  0.81555  1.0000
  H   H284      1.0  0.78701  0.46375  0.91899  1.0000
  C   C354      1.0  0.63959  0.01062  0.81309  1.0000
  P   P12       1.0  0.99861  0.43564  0.80199  1.0000
  C   C355      1.0  0.97739  0.33379  0.94839  1.0000
  H   H285      1.0  0.97198  0.30181  0.89424  1.0000
  H   H286      1.0  0.98571  0.37041  0.93796  1.0000
  C   C356      1.0  0.97432  0.49286  0.82142  1.0000
  C   C357      1.0  0.93822  0.09989  0.69230  1.0000
  H   H287      1.0  0.89864  0.14277  0.02042  1.0000
  H   H288      1.0  0.86984  0.40693  0.02328  1.0000
  Fe  Fe25      1.0  0.66936  0.99985  0.92920  1.0000
  S   S49       1.0  0.92679  0.87614  0.10876  1.0000
  C   C358      1.0  0.92327  0.98009  0.31143  1.0000
  C   C359      1.0  0.77014  0.84928  0.32193  1.0000
  C   C360      1.0  0.92799  0.98458  0.17857  1.0000
  C   C361      1.0  0.89460  0.82902  0.04526  1.0000
  C   C362      1.0  0.88962  0.86976  0.06897  1.0000
  C   C363      1.0  0.85356  0.90659  0.06137  1.0000
  P   P13       1.0  0.84031  0.91951  0.29849  1.0000
  H   H289      1.0  0.92243  0.80060  0.05096  1.0000
  H   H290      1.0  0.84960  0.93824  0.07956  1.0000
  H   H291      1.0  0.95771  0.64547  0.13739  1.0000
  H   H292      1.0  0.91583  0.90631  0.18473  1.0000
  C   C364      1.0  0.88504  0.84539  0.25501  1.0000
  H   H293      1.0  0.85849  0.55073  0.07542  1.0000
  C   C365      1.0  0.80451  0.88548  0.33280  1.0000
  C   C366      1.0  0.97189  0.60782  0.13533  1.0000
  C   C367      1.0  0.84680  0.51262  0.07264  1.0000
  C   C368      1.0  0.76856  0.99464  0.30995  1.0000
  C   C369      1.0  0.92827  0.89685  0.33669  1.0000
  C   C370      1.0  0.95735  0.76135  0.31706  1.0000
  C   C371      1.0  0.81212  0.88563  0.22844  1.0000
  H   H294      1.0  0.90109  0.57450  0.15004  1.0000
  C   C372      1.0  0.99435  0.76896  0.34347  1.0000
  C   C373      1.0  0.88970  0.81529  0.22371  1.0000
  H   H295      1.0  0.97105  0.57383  0.05725  1.0000
  C   C374      1.0  0.80698  0.97608  0.28677  1.0000
  S   S50       1.0  0.99194  0.76563  0.16328  1.0000
  H   H296      1.0  0.91997  0.78825  0.22183  1.0000
  Fe  Fe26      1.0  0.99443  0.82780  0.12138  1.0000
  H   H297      1.0  0.90278  0.98749  0.15531  1.0000
  C   C375      1.0  0.94723  0.59540  0.03897  1.0000
  C   C376      1.0  0.94824  0.64716  0.04101  1.0000
  C   C377      1.0  0.99789  0.95298  0.34388  1.0000
  C   C378      1.0  0.95751  0.51835  0.13931  1.0000
  C   C379      1.0  0.85627  0.82095  0.19441  1.0000
  C   C380      1.0  0.93542  0.93817  0.19519  1.0000
  H   H298      1.0  0.97678  0.89608  0.23595  1.0000
  H   H299      1.0  0.91219  0.84119  0.27672  1.0000
  C   C381      1.0  0.93986  0.56755  0.14236  1.0000
  C   C382      1.0  0.90150  0.93334  0.31695  1.0000
  H   H300      1.0  0.78130  0.91206  0.22985  1.0000
  H   H301      1.0  0.79179  0.86062  0.17387  1.0000
  C   C383      1.0  0.84655  0.88115  0.25758  1.0000
  H   H302      1.0  0.76524  0.84049  0.29296  1.0000
  H   H303      1.0  0.75852  0.97605  0.33552  1.0000
  H   H304      1.0  0.86106  0.79883  0.16952  1.0000
  C   C384      1.0  0.81741  0.85603  0.19682  1.0000
  C   C385      1.0  0.99662  0.97318  0.23606  1.0000
  C   C386      1.0  0.91108  0.74168  0.32768  1.0000
  H   H305      1.0  0.88236  0.73604  0.30711  1.0000
  H   H306      1.0  0.96506  0.77057  0.28827  1.0000
  H   H307      1.0  0.71428  0.79688  0.33990  1.0000
  H   H308      1.0  0.97298  0.66494  0.06050  1.0000
  H   H309      1.0  0.65399  0.97320  0.34619  1.0000
  C   C387      1.0  0.96980  0.93238  0.22385  1.0000
  H   H310      1.0  0.79707  0.51713  0.11998  1.0000
  C   C388      1.0  0.82284  0.90311  0.03015  1.0000
  C   C389      1.0  0.97089  0.99005  0.32538  1.0000
  H   H311      1.0  0.91222  0.86067  0.34176  1.0000
  C   C390      1.0  0.74099  0.82448  0.34849  1.0000
  C   C391      1.0  0.97658  0.90636  0.34937  1.0000
  H   H312      1.0  0.85006  0.98931  0.23649  1.0000
  H   H313      1.0  0.79571  0.93213  0.02434  1.0000
  Fe  Fe27      1.0  0.86092  0.81681  0.60774  1.0000
  S   S51       1.0  0.90174  0.87257  0.64138  1.0000
  S   S52       1.0  0.78549  0.84402  0.58725  1.0000
  Fe  Fe28      1.0  0.94338  0.73791  0.61735  1.0000
  C   C392      1.0  0.97268  0.60467  0.61333  1.0000
  H   H314      1.0  0.72915  0.78770  0.52479  1.0000
  S   S53       1.0  0.87148  0.75434  0.64892  1.0000
  S   S54       1.0  0.92841  0.79593  0.57321  1.0000
  C   C393      1.0  0.65953  0.93494  0.43607  1.0000
  H   H315      1.0  0.70009  0.71641  0.48747  1.0000
  H   H316      1.0  0.94240  0.86556  0.50574  1.0000
  C   C394      1.0  0.90612  0.55317  0.52377  1.0000
  S   S55       1.0  0.79438  0.99076  0.44955  1.0000
  C   C395      1.0  0.74573  0.83578  0.38603  1.0000
  C   C396      1.0  0.78940  0.88654  0.55011  1.0000
  C   C397      1.0  0.82486  0.87945  0.52179  1.0000
  C   C398      1.0  0.82561  0.91145  0.49101  1.0000
  C   C399      1.0  0.79135  0.95119  0.48853  1.0000
  C   C400      1.0  0.75610  0.95867  0.51703  1.0000
  C   C401      1.0  0.75510  0.92630  0.54773  1.0000
  H   H317      1.0  0.85108  0.84867  0.52330  1.0000
  H   H318      1.0  0.85327  0.90575  0.46923  1.0000
  S   S56       1.0  0.98984  0.78877  0.65225  1.0000
  H   H319      1.0  0.72767  0.93201  0.56962  1.0000
  H   H320      1.0  0.93219  0.72554  0.41976  1.0000
  H   H321      1.0  0.89602  0.66862  0.48601  1.0000
  C   C402      1.0  0.88614  0.99315  0.53873  1.0000
  H   H322      1.0  0.72264  0.81721  0.40664  1.0000
  C   C403      1.0  0.60656  0.93887  0.52412  1.0000
  C   C404      1.0  0.98233  0.82081  0.46545  1.0000
  H   H323      1.0  0.83416  0.92541  0.37975  1.0000
  C   C405      1.0  0.96004  0.50436  0.63474  1.0000
  H   H324      1.0  0.88561  0.98034  0.63242  1.0000
  H   H325      1.0  0.78257  0.88122  0.42602  1.0000
  C   C406      1.0  0.93965  0.73546  0.39113  1.0000
  Fe  Fe29      1.0  0.97027  0.84704  0.61023  1.0000
  C   C407      1.0  0.52243  0.89265  0.49071  1.0000
  H   H326      1.0  0.68670  0.93009  0.45795  1.0000
  H   H327      1.0  0.92480  0.94421  0.57614  1.0000
  C   C408      1.0  0.99626  0.90834  0.47501  1.0000
  C   C409      1.0  0.90773  0.52464  0.49124  1.0000
  C   C410      1.0  0.90200  0.72931  0.36481  1.0000
  H   H328      1.0  0.52353  0.81594  0.50923  1.0000
  C   C411      1.0  0.57444  0.93086  0.41337  1.0000
  H   H329      1.0  0.57514  0.80397  0.44924  1.0000
  C   C412      1.0  0.66760  0.83532  0.50898  1.0000
  C   C413      1.0  0.90201  0.60485  0.52176  1.0000
  C   C414      1.0  0.97072  0.86496  0.48399  1.0000
  C   C415      1.0  0.80898  0.89667  0.37061  1.0000
  C   C416      1.0  0.93106  0.59093  0.63475  1.0000
  H   H330      1.0  0.79305  0.94847  0.63007  1.0000
  H   H331      1.0  0.96212  0.78753  0.47290  1.0000
  C   C417      1.0  0.90374  0.54861  0.45673  1.0000
  C   C418      1.0  0.77974  0.87175  0.39702  1.0000
  C   C419      1.0  0.92467  0.54091  0.64520  1.0000
  H   H332      1.0  0.98754  0.94217  0.48983  1.0000
  C   C420      1.0  0.60912  0.91997  0.56041  1.0000
  S   S57       1.0  0.98096  0.66627  0.59721  1.0000
  H   H333      1.0  0.68179  0.86604  0.52466  1.0000
  H   H334      1.0  0.73585  0.88835  0.65790  1.0000
  C   C421      1.0  0.67583  0.95168  0.40132  1.0000
  H   H335      1.0  0.90344  0.61866  0.64279  1.0000
  H   H336      1.0  0.60255  0.88101  0.56585  1.0000
  H   H337      1.0  0.62320  0.72498  0.44951  1.0000
  C   C422      1.0  0.98666  0.75411  0.38042  1.0000
  H   H338      1.0  0.89206  0.53046  0.66141  1.0000
  C   C423      1.0  0.64147  0.95890  0.37279  1.0000
  C   C424      1.0  0.89863  0.62849  0.48735  1.0000
  H   H339      1.0  0.90208  0.62663  0.54700  1.0000
  C   C425      1.0  0.62299  0.83996  0.48882  1.0000
  C   C426      1.0  0.89912  0.60038  0.45485  1.0000
  C   C427      1.0  0.69505  0.79085  0.50869  1.0000
  H   H340      1.0  0.72971  0.98934  0.51542  1.0000
  P   P14       1.0  0.58972  0.89867  0.48649  1.0000
  H   H341      1.0  0.89647  0.61872  0.42817  1.0000
  H   H342      1.0  0.90916  0.53559  0.55081  1.0000
  H   H343      1.0  0.90428  0.52765  0.43124  1.0000
  H   H344      1.0  0.62354  0.93624  0.61773  1.0000
  C   C428      1.0  0.73302  0.92700  0.66605  1.0000
  H   H345      1.0  0.71503  0.96042  0.39696  1.0000
  C   C429      1.0  0.60868  0.92459  0.44242  1.0000
  C   C430      1.0  0.63541  0.75571  0.46633  1.0000
  C   C431      1.0  0.60795  0.80029  0.46657  1.0000
  C   C432      1.0  0.67879  0.75090  0.48758  1.0000
  H   H346      1.0  0.86593  0.71456  0.37312  1.0000
  C   C433      1.0  0.59079  0.94852  0.37884  1.0000
  C   C434      1.0  0.76582  0.96152  0.65030  1.0000
  Fe  Fe30      1.0  0.91693  0.80996  0.68037  1.0000
  C   C435      1.0  0.89813  0.97451  0.57369  1.0000
  C   C436      1.0  0.62052  0.95122  0.58993  1.0000
  H   H347      1.0  0.53518  0.92222  0.41701  1.0000
  H   H348      1.0  0.56401  0.95450  0.35683  1.0000
  H   H349      1.0  0.99794  0.51402  0.52929  1.0000
  H   H350      1.0  0.90383  0.97771  0.51416  1.0000
  H   H351      1.0  0.50740  0.96956  0.47638  1.0000
  C   C437      1.0  0.87552  0.99474  0.60541  1.0000
  C   C438      1.0  0.61363  0.98980  0.51800  1.0000
  H   H352      1.0  0.99768  0.87737  0.36313  1.0000
  C   C439      1.0  0.00203  0.51820  0.61381  1.0000
  S   S58       1.0  0.91239  0.82096  0.74269  1.0000
  C   C440      1.0  0.51858  0.85591  0.78884  1.0000
  S   S59       1.0  0.70693  0.93712  0.89782  1.0000
  H   H353      1.0  0.67326  0.91500  0.70562  1.0000
  H   H354      1.0  0.88138  0.93447  0.97211  1.0000
  S   S60       1.0  0.81377  0.98574  0.91749  1.0000
  Fe  Fe31      1.0  0.76092  0.93288  0.94493  1.0000
  S   S61       1.0  0.79104  0.85901  0.96594  1.0000
  H   H355      1.0  0.85834  0.58384  0.97237  1.0000
  C   C441      1.0  0.90432  0.54646  0.83942  1.0000
  H   H356      1.0  0.57512  0.89379  0.89894  1.0000
  C   C442      1.0  0.55925  0.95222  0.83663  1.0000
  C   C443      1.0  0.97806  0.98441  0.78228  1.0000
  H   H357      1.0  0.78351  0.83441  0.77981  1.0000
  H   H358      1.0  0.71097  0.76969  0.91842  1.0000
  H   H359      1.0  0.84670  0.89559  0.70917  1.0000
  H   H360      1.0  0.79350  0.96158  0.73683  1.0000
  C   C444      1.0  0.87645  0.87069  0.76135  1.0000
  C   C445      1.0  0.87539  0.87819  0.79990  1.0000
  C   C446      1.0  0.84489  0.91577  0.81569  1.0000
  C   C447      1.0  0.81553  0.94643  0.79298  1.0000
  C   C448      1.0  0.81690  0.93902  0.75451  1.0000
  C   C449      1.0  0.84715  0.90145  0.73874  1.0000
  H   H361      1.0  0.89755  0.85429  0.81766  1.0000
  H   H362      1.0  0.84398  0.92097  0.84538  1.0000
  H   H363      1.0  0.92368  0.61770  0.86175  1.0000
  S   S62       1.0  0.72058  0.99094  0.97857  1.0000
  C   C450      1.0  0.88390  0.60091  0.99141  1.0000
  C   C451      1.0  0.95777  0.88642  0.90498  1.0000
  C   C452      1.0  0.69441  0.99189  0.70307  1.0000
  H   H364      1.0  0.67303  0.81399  0.97184  1.0000
  H   H365      1.0  0.68182  0.78696  0.85506  1.0000
  H   H366      1.0  0.95530  0.87198  0.87719  1.0000
  H   H367      1.0  0.87788  0.89832  0.90926  1.0000
  Fe  Fe32      1.0  0.75716  0.99435  0.87298  1.0000
  H   H368      1.0  0.60387  0.87503  0.96182  1.0000
  S   S63       1.0  0.58383  0.99027  0.93107  1.0000
  C   C453      1.0  0.69766  0.94205  0.69268  1.0000
  C   C454      1.0  0.91539  0.92111  0.95874  1.0000
  C   C455      1.0  0.96081  0.92288  0.97748  1.0000
  H   H369      1.0  0.72031  0.86407  0.82477  1.0000
  C   C456      1.0  0.91366  0.90178  0.92293  1.0000
  C   C457      1.0  0.67880  0.80741  0.73144  1.0000
  C   C458      1.0  0.92242  0.50173  0.82464  1.0000
  H   H370      1.0  0.52947  0.88948  0.77435  1.0000
  H   H371      1.0  0.66767  0.79194  0.70515  1.0000
  H   H372      1.0  0.86025  0.67523  0.97650  1.0000
  H   H373      1.0  0.60325  0.81827  0.75069  1.0000
  S   S64       1.0  0.77719  0.99457  0.81147  1.0000
  C   C459      1.0  0.72971  0.81191  0.73945  1.0000
  H   H374      1.0  0.94430  0.96243  0.78479  1.0000
  C   C460      1.0  0.62033  0.85523  0.93851  1.0000
  C   C461      1.0  0.65908  0.82083  0.94414  1.0000
  C   C462      1.0  0.68068  0.79609  0.91391  1.0000
  C   C463      1.0  0.66461  0.80680  0.87792  1.0000
  C   C464      1.0  0.62794  0.84379  0.87185  1.0000
  C   C465      1.0  0.60442  0.86624  0.90257  1.0000
  P   P15       1.0  0.60998  0.86206  0.82544  1.0000
  C   C466      1.0  0.55041  0.83423  0.81528  1.0000
  C   C467      1.0  0.60381  0.92910  0.82415  1.0000
  H   H375      1.0  0.96161  0.93632  0.00576  1.0000
  C   C468      1.0  0.70804  0.84773  0.79902  1.0000
  H   H376      1.0  0.67911  0.94274  0.80304  1.0000
  H   H377      1.0  0.75814  0.80013  0.71950  1.0000
  C   C469      1.0  0.64385  0.95888  0.81213  1.0000
  C   C470      1.0  0.88484  0.65277  0.99364  1.0000
  C   C471      1.0  0.93780  0.58291  0.85056  1.0000
  C   C472      1.0  0.64238  0.82250  0.75741  1.0000
  H   H378      1.0  0.86425  0.55311  0.84188  1.0000
  H   H379      1.0  0.52826  0.93045  0.84713  1.0000
  C   C473      1.0  0.65673  0.84264  0.79155  1.0000
  C   C474      1.0  0.74416  0.83161  0.77335  1.0000
  C   C475      1.0  0.91529  0.57182  0.01401  1.0000
  C   C476      1.0  0.82752  0.86240  0.00643  1.0000
  C   C477      1.0  0.98945  0.57486  0.84661  1.0000
  H   H380      1.0  0.86735  0.79390  0.99569  1.0000
  H   H381      1.0  0.98797  0.50897  0.74247  1.0000
  C   C478      1.0  0.86326  0.82516  0.01419  1.0000
  C   C479      1.0  0.53570  0.79041  0.83337  1.0000
  H   H382      1.0  0.55975  0.77279  0.85367  1.0000
  P   P16       1.0  0.91382  0.50481  0.01251  1.0000
  C   C480      1.0  0.91703  0.67586  0.01841  1.0000
  H   H383      1.0  0.91750  0.71598  0.02038  1.0000
  H   H384      1.0  0.00222  0.94875  0.73206  1.0000
