data_image0
_chemical_formula_structural       HFeSFeCHFeSCFeS2FeS2FeS2Fe2S3HSCHFeCSCS2CSC7H4C6HCH2SCHSHC6H4C6H4C2H2C3HCHC3HCH3CFeC12H9PC9HC7H7C3H4C6H5C3HC9HC2HCH8SH2C3H2CHSC6H3CPC4H3CFeC4HC4HCH2CHCH2C5H3CHC2H2CHC2H4PHC2H3C8H4C6H4CHCHSCHC2H3C2H2FeC3H2C7HC4H4CHPH2SCHP2CSHC3HCHC2PCH2C3HCSCHC2H3CH2C2HC3H5CHCHCHC2SH2FeHPCFeS2FeS2FeCSFeSHS2CSFeS2HFeSFeSCS2FeSHC2H2C7H3C6H7C8H4C2HC2HCHC6H5CH3C5HC2SC2HC3SH3PC2H2CH4CHFeHCH6CHSPCHC3HC2PCH3C3HSCH2C2HC3H2CHCHCHPH2CH2C2H2C2HC3HC3HC6PCHC3HCHC4HCH2C2H4C3HCH2CH5C3H2C3HSHCHCH3C4H2C7H2CH2C3H2C5PHCHC2SC5HCHC6H2CHCH2C3HC3HC3HC2HCH2CH2C2PSCHCHC2HC2SCFeH3C5H5CHC2H2FeH2CH2C2HCHC3SHCSC3SH2C3FeHSFeS2FeSCS2FeSCH2FeSHCHCHC4H4C3H3C2HCHPC3HC4H3CSHC3H2C3PHC4HC3HCH4CHC2H2C2H2C3HCH3C3H2C2HCHCHC2HCH2CH2CH3CH2C2H4PH2C3H2C3H5CH2C8HC6HC4FeH2CHC2SHSHC2HC2HSHCHCH3SH2C4HC2HCHCH3C2HSH3C2HC2H2S2H2CFeSCFeSCFeSFeHSHFeS2FeSCFeSFeCSHC7H5CH2C3HCHCSHCHCHPC5H2C2H2SC2H2C3HC5HCHC2HC3HC2HC4H2SH6CHC2H2CHC2H5C7PC8HCSC4HC2H7CH3SHCH2CH2CHCHCH2CHCPFeSHFeS2FeSFeS4FeSFeS2H2FeS2FeSFeS2HCSHCSC2H2C3SHSFeC6HCH2C6H4C2HCH2C6H7C6PC18H21C2H3SC4H3C3HCHC2PHC6H4C8H4CH5CH2CH4C7PC3H2C7HCHC3H4C2H3CH6C3HC3HCFePC4H3C13H3CHCH2C2H6C2H2SC2SHPHCH2CH2C4HCHCHC2HCHCHCHCHCHC3SHCH2CHCH2C7H2C2HCSCHCH3CHCPHC3H2CH5C2FeC2HSCSHC2SH2PC2HCHCHSC3H3C2HCH3C2HC2HCHCHPHC5H2CFeS3FeH2FeS2CFeSHSHPSFeS2C3FeSCSC4HCH2C7H5CH2C6H4CH4C6H5C3HC4H3C3SHC3H2CHFe2C4H2CH3C3H2C5H3C8PC16HC2HCH13CPH2C2FeC2HC3H3C2HCH2C3H2CSPHFeHC2FeC4HCHC2H2C3H7C3H2C3HPHCH3SC2SH4C4SCH3CHC2HCHC5HC6HSH2C2H3CH2C2H2C2HC2HC3H5C3H3CH2C2HC3H3CHCH2CHCPCHCHC2HC3H2CHC3FeSHCFe2HSFeCSCFeSHS2CS2HCFeHFeS2FeSFeSFeS3C6H5C2H3C6H4CHCHCHC6HCHC6H4C3H5C3HC4HC2SC2H5CHCHCH2C3H2CHC3HCH2CH5CH2C2SH3C2HC7PC3SHC9HCHC2H16C2HC7H5CHC3HPCHCHC2H3CH3C4SH2CH2CHC5HC4H2C7PCSC3HC3H2C5H5C2HCH2C2H3C2HCH2SPCH4C3HC3H3C2HCHCHFeH4SC2HSCHPFeHCPC3HSFeS2HFeSFeSHSFeHSFeSFeSHSHFeS2HSFeSFeSHSFeSH2CHC3H3SC2HC6H4C6H4C2HCHCH2C6H2CHC6H4C2H2C6HCSC2HSC2HC2HC4HC2HSC6HC2HC2HCHC2H2CPCH6C2H2CH2CHC2HSHC2HC2HC3HSPCHC4FeHCHC2HC3H2CHCH2C6PC18H12CH8PHCSCH2C3H3CHC3H4CHCPH2CH3CHCSH3CH2C6PC18H6SCH4C2H5C3HC2HSC8HC3HCH2C4H2CH2C2H2CHCH2C3SCHC5HC2H5C3HCHCH3C2H2CH3SHC2HC2FeHCHC2HC3H3C2H3FeS2FeCHFeSCS2FeCSFeH2FeS4CHSCH2CH4CH3C2H2C5FeSH2CHCH4C2HC3HC7HCHCH3CHFeCHCH2C3HC2H2CH2CH4C3H2C2HC3PC3HCHC2HC2HC3PC4HC2H4C8HC3HCH3CH10C3HCFeHCHCPCHC5PC4H5CSHCFeCH2C2H2C2H2CHCHCHFeSCFeSCFeHFeSCSFeS2FeS2Fe2S3C2HCSCHSC4HCH2C2HCHSCHCHC2HCH2CHC4HC6HCH3CH2C3PC8HCH2CHCHC2H2SHCH2CH3CH2C4H4C2HCH3C2H2SCHC3H2CHSHC2H4C2HCHC3H2C4HCHCHC3H3C3H2C2HCH2C2PH4C3H2C3H4C2H9CH2C2H2CSHFeS2C2FeSCFeS2FeSHFeSFeS3FeHSHC2SFeC6H2C7H5C5H2C7H3C7H4C3H4C4H5CHC6PC9H2C7H8SH3C2H8SCSCHFeC6PCHC4HCPH4C2H3PH2CHCPHCH2C6H6SCH2C4HC2H2C2H3CFeHCH2C2HC2HCHC4H2CH2FeH3CSC2HSHC3HFeH4C2H2C4HCHC2H3C2H2C2SC5HC4HCH2C3HCH2CH4SC3H2CH3C2H2C3H4C2HC2SC2FeS2FeSFeSHSFeSC2FeS2HSHFeS2HSFeHFeSHSC6H4CPCH2C3SCHC7H5CHCSHCHFeH2C2H2C6H6CHC2HFeSC8PCH3FeC4HC5H8CH3CHC3SC2SHC7PC17H6CH2C2H7C2H4C2H4C2HC2HCH3CPC7H2CH6CHC5H2C2H2FeHC2HCH2C2HC2HSCHCH2C3SC3H2C2HC5PH2CHC3H2CHCH2C3HCHCHC2H2CH4C7HCH3CH2C5HC2H2C3HSH2C2HCH3CSC3HC2HC5H2CHC3HC2FePH
_chemical_formula_sum              "H1536 Fe128 S256 C1920 P64"
_cell_length_a       56.6135
_cell_length_b       56.6818
_cell_length_c       37.2473
_cell_angle_alpha    90.6289
_cell_angle_beta     90.592
_cell_angle_gamma    88.3573

_space_group_name_H-M_alt    "P 1"
_space_group_IT_number       1

loop_
  _space_group_symop_operation_xyz
  'x, y, z'

loop_
  _atom_site_type_symbol
  _atom_site_label
  _atom_site_symmetry_multiplicity
  _atom_site_fract_x
  _atom_site_fract_y
  _atom_site_fract_z
  _atom_site_occupancy
  H   H1        1.0  0.00003  0.22347  0.99954  1.0000
  Fe  Fe1       1.0  0.10116  0.27461  0.02103  1.0000
  S   S1        1.0  0.09958  0.28311  0.08089  1.0000
  Fe  Fe2       1.0  0.31971  0.27238  0.99877  1.0000
  C   C1        1.0  0.02926  0.25691  0.26980  1.0000
  H   H2        1.0  0.01667  0.31081  0.08868  1.0000
  Fe  Fe3       1.0  0.36338  0.29206  0.03739  1.0000
  S   S2        1.0  0.47369  0.31616  0.15777  1.0000
  C   C2        1.0  0.05936  0.18841  0.34211  1.0000
  Fe  Fe4       1.0  0.36295  0.23993  0.01684  1.0000
  S   S3        1.0  0.38065  0.20399  0.02705  1.0000
  S   S4        1.0  0.33877  0.26298  0.05068  1.0000
  Fe  Fe5       1.0  0.43970  0.07751  0.21595  1.0000
  S   S5        1.0  0.46798  0.09446  0.24974  1.0000
  S   S6        1.0  0.43518  0.03733  0.20591  1.0000
  Fe  Fe6       1.0  0.41712  0.12647  0.19723  1.0000
  S   S7        1.0  0.44343  0.14591  0.23078  1.0000
  S   S8        1.0  0.38659  0.14924  0.17528  1.0000
  Fe  Fe7       1.0  0.47049  0.12128  0.20553  1.0000
  Fe  Fe8       1.0  0.43860  0.11800  0.27172  1.0000
  S   S9        1.0  0.43595  0.12448  0.33211  1.0000
  S   S10       1.0  0.44426  0.10299  0.16957  1.0000
  S   S11       1.0  0.41025  0.09983  0.24028  1.0000
  H   H3        1.0  0.47296  0.31618  0.29514  1.0000
  S   S12       1.0  0.36720  0.20024  0.40837  1.0000
  C   C3        1.0  0.48515  0.29666  0.01049  1.0000
  H   H4        1.0  0.03131  0.23841  0.37219  1.0000
  Fe  Fe9       1.0  0.09043  0.15893  0.45640  1.0000
  C   C4        1.0  0.47646  0.20953  0.04966  1.0000
  S   S13       1.0  0.07432  0.12759  0.42736  1.0000
  C   C5        1.0  0.05670  0.31271  0.15702  1.0000
  S   S14       1.0  0.06981  0.24673  0.45635  1.0000
  S   S15       1.0  0.10984  0.18823  0.43046  1.0000
  C   C6        1.0  0.99350  0.30006  0.37012  1.0000
  S   S16       1.0  0.28001  0.28271  0.99675  1.0000
  C   C7        1.0  0.00009  0.25803  0.20886  1.0000
  C   C8        1.0  0.06950  0.26272  0.41565  1.0000
  C   C9        1.0  0.08351  0.25601  0.38635  1.0000
  C   C10       1.0  0.08226  0.26916  0.35443  1.0000
  C   C11       1.0  0.06728  0.28931  0.35160  1.0000
  C   C12       1.0  0.05358  0.29618  0.38111  1.0000
  C   C13       1.0  0.05457  0.28284  0.41281  1.0000
  H   H5        1.0  0.09526  0.24067  0.38818  1.0000
  H   H6        1.0  0.09288  0.26360  0.33177  1.0000
  H   H7        1.0  0.47309  0.18219  0.26685  1.0000
  H   H8        1.0  0.04388  0.28824  0.43544  1.0000
  C   C14       1.0  0.04917  0.13014  0.39878  1.0000
  C   C15       1.0  0.03641  0.15145  0.39546  1.0000
  C   C16       1.0  0.01809  0.15361  0.36976  1.0000
  C   C17       1.0  0.01211  0.13452  0.34744  1.0000
  C   C18       1.0  0.02384  0.11273  0.35236  1.0000
  C   C19       1.0  0.04233  0.11058  0.37794  1.0000
  H   H9        1.0  0.04124  0.16655  0.41167  1.0000
  C   C20       1.0  0.13403  0.26363  0.46624  1.0000
  H   H10       1.0  0.46275  0.30239  0.23354  1.0000
  H   H11       1.0  0.05199  0.09394  0.38062  1.0000
  S   S17       1.0  0.17678  0.18429  0.45925  1.0000
  C   C21       1.0  0.02335  0.26542  0.20674  1.0000
  H   H12       1.0  0.22971  0.27754  0.12174  1.0000
  S   S18       1.0  0.34319  0.30300  0.98756  1.0000
  H   H13       1.0  0.17344  0.30284  0.39303  1.0000
  C   C22       1.0  0.41516  0.14479  0.35149  1.0000
  C   C23       1.0  0.40596  0.16429  0.33274  1.0000
  C   C24       1.0  0.39104  0.18103  0.35030  1.0000
  C   C25       1.0  0.38497  0.17827  0.38653  1.0000
  C   C26       1.0  0.39355  0.15835  0.40483  1.0000
  C   C27       1.0  0.40870  0.14186  0.38742  1.0000
  H   H14       1.0  0.41078  0.16680  0.30503  1.0000
  H   H15       1.0  0.38438  0.19632  0.33585  1.0000
  H   H16       1.0  0.38891  0.15591  0.43263  1.0000
  H   H17       1.0  0.41548  0.12677  0.40190  1.0000
  C   C28       1.0  0.38376  0.19048  0.06962  1.0000
  C   C29       1.0  0.36993  0.19771  0.09883  1.0000
  C   C30       1.0  0.37146  0.18525  0.13131  1.0000
  C   C31       1.0  0.38722  0.16581  0.13524  1.0000
  C   C32       1.0  0.40176  0.15915  0.10650  1.0000
  C   C33       1.0  0.39982  0.17129  0.07371  1.0000
  H   H18       1.0  0.35750  0.21244  0.09604  1.0000
  H   H19       1.0  0.36012  0.19049  0.15337  1.0000
  H   H20       1.0  0.41382  0.14410  0.10911  1.0000
  H   H21       1.0  0.41049  0.16551  0.05119  1.0000
  C   C34       1.0  0.48045  0.12420  0.46021  1.0000
  C   C35       1.0  0.43704  0.01010  0.23040  1.0000
  H   H22       1.0  0.44604  0.02516  0.28169  1.0000
  H   H23       1.0  0.21148  0.21695  0.39424  1.0000
  C   C36       1.0  0.07459  0.29578  0.10269  1.0000
  C   C37       1.0  0.07641  0.30286  0.13887  1.0000
  C   C38       1.0  0.20680  0.25306  0.37623  1.0000
  H   H24       1.0  0.09311  0.30060  0.15297  1.0000
  C   C39       1.0  0.45290  0.18984  0.39096  1.0000
  H   H25       1.0  0.99304  0.20846  0.39372  1.0000
  C   C40       1.0  0.37234  0.09583  0.46279  1.0000
  C   C41       1.0  0.44235  0.00908  0.26719  1.0000
  C   C42       1.0  0.20111  0.26767  0.08688  1.0000
  H   H26       1.0  0.01475  0.14714  0.07763  1.0000
  C   C43       1.0  0.03450  0.22276  0.35591  1.0000
  H   H27       1.0  0.37605  0.12109  0.30378  1.0000
  H   H28       1.0  0.36140  0.25013  0.43214  1.0000
  H   H29       1.0  0.14181  0.25615  0.31502  1.0000
  C   C44       1.0  0.30476  0.27118  0.13101  1.0000
  Fe  Fe10      1.0  0.13725  0.18379  0.47524  1.0000
  C   C45       1.0  0.46631  0.16822  0.04628  1.0000
  C   C46       1.0  0.46239  0.19094  0.06042  1.0000
  C   C47       1.0  0.44819  0.24115  0.09902  1.0000
  C   C48       1.0  0.44949  0.24803  0.13539  1.0000
  C   C49       1.0  0.42893  0.25359  0.15458  1.0000
  C   C50       1.0  0.40684  0.25194  0.13794  1.0000
  C   C51       1.0  0.40529  0.24428  0.10232  1.0000
  C   C52       1.0  0.42578  0.23853  0.08314  1.0000
  C   C53       1.0  0.46565  0.10959  0.44018  1.0000
  C   C54       1.0  0.47272  0.25994  0.03689  1.0000
  C   C55       1.0  0.27698  0.28777  0.08760  1.0000
  C   C56       1.0  0.37461  0.26034  0.44619  1.0000
  H   H30       1.0  0.00049  0.31744  0.36706  1.0000
  H   H31       1.0  0.45587  0.15379  0.05554  1.0000
  H   H32       1.0  0.44890  0.19368  0.08052  1.0000
  H   H33       1.0  0.47181  0.10143  0.41540  1.0000
  H   H34       1.0  0.46620  0.24937  0.14924  1.0000
  H   H35       1.0  0.43017  0.25953  0.18224  1.0000
  H   H36       1.0  0.39091  0.25663  0.15254  1.0000
  H   H37       1.0  0.38818  0.24305  0.08929  1.0000
  H   H38       1.0  0.42382  0.23211  0.05594  1.0000
  P   P1        1.0  0.26774  0.24234  0.11122  1.0000
  C   C57       1.0  0.28599  0.22148  0.08623  1.0000
  C   C58       1.0  0.26229  0.23266  0.15631  1.0000
  C   C59       1.0  0.25414  0.20984  0.16185  1.0000
  C   C60       1.0  0.24960  0.20214  0.19660  1.0000
  C   C61       1.0  0.25278  0.21731  0.22598  1.0000
  C   C62       1.0  0.26025  0.24028  0.22058  1.0000
  C   C63       1.0  0.26483  0.24803  0.18586  1.0000
  C   C64       1.0  0.28884  0.22463  0.04924  1.0000
  C   C65       1.0  0.30401  0.20958  0.02966  1.0000
  H   H39       1.0  0.39729  0.09816  0.35036  1.0000
  C   C66       1.0  0.14182  0.26178  0.43081  1.0000
  C   C67       1.0  0.29888  0.20327  0.10352  1.0000
  C   C68       1.0  0.23875  0.24602  0.09093  1.0000
  C   C69       1.0  0.22376  0.26486  0.10190  1.0000
  C   C70       1.0  0.19312  0.25147  0.06129  1.0000
  C   C71       1.0  0.20770  0.23237  0.05090  1.0000
  C   C72       1.0  0.23042  0.22957  0.06565  1.0000
  H   H40       1.0  0.31097  0.25671  0.14769  1.0000
  H   H41       1.0  0.25137  0.19799  0.13925  1.0000
  H   H42       1.0  0.24361  0.18440  0.20073  1.0000
  H   H43       1.0  0.24934  0.21131  0.25292  1.0000
  H   H44       1.0  0.26247  0.25213  0.24333  1.0000
  H   H45       1.0  0.27015  0.26602  0.18223  1.0000
  H   H46       1.0  0.27966  0.23904  0.03568  1.0000
  C   C73       1.0  0.48430  0.16393  0.02140  1.0000
  C   C74       1.0  0.46185  0.21082  0.37806  1.0000
  C   C75       1.0  0.41570  0.26617  0.46270  1.0000
  H   H47       1.0  0.29800  0.20107  0.13227  1.0000
  H   H48       1.0  0.17578  0.25391  0.04893  1.0000
  H   H49       1.0  0.30639  0.21241  0.00123  1.0000
  H   H50       1.0  0.24136  0.21467  0.05701  1.0000
  C   C76       1.0  0.16966  0.19829  0.30431  1.0000
  C   C77       1.0  0.15880  0.18079  0.32388  1.0000
  C   C78       1.0  0.15249  0.18513  0.35955  1.0000
  C   C79       1.0  0.15672  0.20706  0.37558  1.0000
  C   C80       1.0  0.16752  0.22472  0.35613  1.0000
  C   C81       1.0  0.17424  0.22010  0.32048  1.0000
  H   H51       1.0  0.17474  0.19485  0.27675  1.0000
  H   H52       1.0  0.15549  0.16375  0.31165  1.0000
  H   H53       1.0  0.14467  0.17136  0.37512  1.0000
  H   H54       1.0  0.15207  0.20994  0.40340  1.0000
  H   H55       1.0  0.18309  0.23338  0.30530  1.0000
  C   C82       1.0  0.44254  0.20260  0.19316  1.0000
  C   C83       1.0  0.45199  0.19175  0.16248  1.0000
  C   C84       1.0  0.06761  0.16021  0.11657  1.0000
  H   H56       1.0  0.11607  0.26968  0.47166  1.0000
  C   C85       1.0  0.03498  0.31547  0.13909  1.0000
  C   C86       1.0  0.45745  0.21332  0.21828  1.0000
  C   C87       1.0  0.47141  0.29037  0.25231  1.0000
  C   C88       1.0  0.01905  0.31747  0.00205  1.0000
  C   C89       1.0  0.49131  0.20248  0.18175  1.0000
  C   C90       1.0  0.02879  0.23884  0.02885  1.0000
  C   C91       1.0  0.46110  0.28203  0.43956  1.0000
  C   C92       1.0  0.37722  0.08684  0.42845  1.0000
  C   C93       1.0  0.29078  0.30774  0.08500  1.0000
  H   H57       1.0  0.11915  0.28976  0.28979  1.0000
  C   C94       1.0  0.13379  0.31521  0.32626  1.0000
  C   C95       1.0  0.45128  0.29190  0.40814  1.0000
  H   H58       1.0  0.34383  0.00466  0.18310  1.0000
  C   C96       1.0  0.40138  0.31919  0.10060  1.0000
  H   H59       1.0  0.20154  0.22011  0.03053  1.0000
  H   H60       1.0  0.41652  0.01000  0.34737  1.0000
  H   H61       1.0  0.36729  0.11432  0.46648  1.0000
  H   H62       1.0  0.00922  0.17049  0.36606  1.0000
  H   H63       1.0  0.35124  0.02459  0.40347  1.0000
  H   H64       1.0  0.42367  0.20214  0.19775  1.0000
  H   H65       1.0  0.44044  0.18292  0.14362  1.0000
  H   H66       1.0  0.07526  0.20837  0.06586  1.0000
  S   S19       1.0  0.11529  0.23895  0.00302  1.0000
  H   H67       1.0  0.44989  0.22103  0.24244  1.0000
  H   H68       1.0  0.46454  0.06390  0.31103  1.0000
  C   C97       1.0  0.02826  0.14908  0.09817  1.0000
  C   C98       1.0  0.28369  0.26946  0.11098  1.0000
  C   C99       1.0  0.14478  0.27358  0.32585  1.0000
  H   H69       1.0  0.40303  0.23795  0.42801  1.0000
  H   H70       1.0  0.01912  0.30300  0.02069  1.0000
  C   C100      1.0  0.14917  0.31888  0.35523  1.0000
  H   H71       1.0  0.46941  0.21117  0.35147  1.0000
  S   S20       1.0  0.38876  0.26844  0.00709  1.0000
  C   C101      1.0  0.36352  0.01238  0.39030  1.0000
  C   C102      1.0  0.25641  0.25322  0.37572  1.0000
  C   C103      1.0  0.05874  0.21136  0.05146  1.0000
  C   C104      1.0  0.47231  0.05539  0.36608  1.0000
  C   C105      1.0  0.40877  0.28641  0.48242  1.0000
  C   C106      1.0  0.01209  0.21724  0.44220  1.0000
  H   H72       1.0  0.03023  0.14751  0.48013  1.0000
  H   H73       1.0  0.02998  0.27198  0.18164  1.0000
  H   H74       1.0  0.13835  0.12708  0.05454  1.0000
  C   C107      1.0  0.03933  0.11907  0.02251  1.0000
  P   P2        1.0  0.05783  0.16263  0.04300  1.0000
  C   C108      1.0  0.01625  0.22001  0.01441  1.0000
  C   C109      1.0  0.02554  0.19821  0.30422  1.0000
  C   C110      1.0  0.12748  0.14099  0.04256  1.0000
  C   C111      1.0  0.36223  0.03167  0.21165  1.0000
  H   H75       1.0  0.32889  0.18012  0.03198  1.0000
  H   H76       1.0  0.05825  0.31788  0.18498  1.0000
  H   H77       1.0  0.47463  0.04618  0.42194  1.0000
  C   C112      1.0  0.12350  0.17454  0.00312  1.0000
  Fe  Fe11      1.0  0.35819  0.19649  0.46741  1.0000
  C   C113      1.0  0.46244  0.31028  0.39097  1.0000
  C   C114      1.0  0.48349  0.31893  0.40500  1.0000
  C   C115      1.0  0.00060  0.28187  0.34663  1.0000
  C   C116      1.0  0.05096  0.15628  0.08909  1.0000
  H   H78       1.0  0.43586  0.17316  0.43506  1.0000
  C   C117      1.0  0.37659  0.03710  0.24111  1.0000
  C   C118      1.0  0.21853  0.27324  0.36539  1.0000
  C   C119      1.0  0.22573  0.18562  0.46118  1.0000
  C   C120      1.0  0.03213  0.10225  0.99717  1.0000
  H   H79       1.0  0.35064  0.04040  0.33228  1.0000
  C   C121      1.0  0.23131  0.28587  0.99236  1.0000
  H   H80       1.0  0.35787  0.04519  0.19212  1.0000
  H   H81       1.0  0.04064  0.11407  0.05040  1.0000
  C   C122      1.0  0.48994  0.25203  0.26476  1.0000
  H   H82       1.0  0.02230  0.25682  0.02527  1.0000
  C   C123      1.0  0.31380  0.18803  0.08377  1.0000
  H   H83       1.0  0.26170  0.28633  0.07009  1.0000
  H   H84       1.0  0.28592  0.32134  0.06584  1.0000
  C   C124      1.0  0.39843  0.25336  0.44414  1.0000
  C   C125      1.0  0.99668  0.20384  0.42134  1.0000
  C   C126      1.0  0.48899  0.28287  0.31070  1.0000
  C   C127      1.0  0.02495  0.19680  0.01843  1.0000
  C   C128      1.0  0.08920  0.16093  0.03479  1.0000
  H   H85       1.0  0.08479  0.16703  0.11054  1.0000
  H   H86       1.0  0.27557  0.25332  0.37599  1.0000
  H   H87       1.0  0.38341  0.05468  0.24427  1.0000
  C   C129      1.0  0.44603  0.31891  0.13538  1.0000
  H   H88       1.0  0.41774  0.31586  0.00712  1.0000
  C   C130      1.0  0.06207  0.15572  0.15233  1.0000
  C   C131      1.0  0.43275  0.05899  0.34091  1.0000
  H   H89       1.0  0.33500  0.29236  0.14326  1.0000
  H   H90       1.0  0.06443  0.21111  0.38800  1.0000
  C   C132      1.0  0.35635  0.05798  0.32657  1.0000
  H   H91       1.0  0.43510  0.28515  0.39667  1.0000
  C   C133      1.0  0.46292  0.04987  0.39938  1.0000
  C   C134      1.0  0.45723  0.05987  0.33692  1.0000
  H   H92       1.0  0.18976  0.28253  0.09471  1.0000
  H   H93       1.0  0.41636  0.29180  0.06677  1.0000
  H   H94       1.0  0.07413  0.17665  0.34894  1.0000
  H   H95       1.0  0.00545  0.13848  0.14090  1.0000
  P   P3        1.0  0.17491  0.25236  0.37726  1.0000
  H   H96       1.0  0.42154  0.06219  0.31763  1.0000
  C   C135      1.0  0.47632  0.19192  0.15660  1.0000
  C   C136      1.0  0.41948  0.30383  0.08889  1.0000
  H   H97       1.0  0.34224  0.10379  0.27098  1.0000
  H   H98       1.0  0.39457  0.02385  0.28800  1.0000
  H   H99       1.0  0.20877  0.28892  0.35702  1.0000
  C   C137      1.0  0.42311  0.05381  0.37443  1.0000
  C   C138      1.0  0.17991  0.24677  0.45191  1.0000
  C   C139      1.0  0.31844  0.29128  0.12855  1.0000
  C   C140      1.0  0.16494  0.25361  0.42330  1.0000
  C   C141      1.0  0.37041  0.10348  0.31015  1.0000
  C   C142      1.0  0.31145  0.30954  0.10553  1.0000
  C   C143      1.0  0.24485  0.23297  0.38604  1.0000
  C   C144      1.0  0.22017  0.23280  0.38596  1.0000
  H   H100      1.0  0.25498  0.21743  0.39452  1.0000
  H   H101      1.0  0.49127  0.05604  0.36271  1.0000
  H   H102      1.0  0.07502  0.15870  0.17342  1.0000
  H   H103      1.0  0.47465  0.26239  0.21344  1.0000
  C   C145      1.0  0.16036  0.27709  0.35495  1.0000
  C   C146      1.0  0.16232  0.29990  0.36965  1.0000
  C   C147      1.0  0.47805  0.26753  0.24106  1.0000
  C   C148      1.0  0.34431  0.07099  0.29999  1.0000
  C   C149      1.0  0.45031  0.23110  0.43327  1.0000
  C   C150      1.0  0.05298  0.29877  0.08473  1.0000
  H   H104      1.0  0.05150  0.29316  0.05706  1.0000
  H   H105      1.0  0.01470  0.19417  0.28095  1.0000
  H   H106      1.0  0.19753  0.23966  0.44736  1.0000
  H   H107      1.0  0.23337  0.30339  0.00351  1.0000
  C   C151      1.0  0.48203  0.21303  0.21307  1.0000
  H   H108      1.0  0.12972  0.26674  0.40932  1.0000
  C   C152      1.0  0.05380  0.20779  0.36424  1.0000
  H   H109      1.0  0.45346  0.17397  0.37439  1.0000
  S   S21       1.0  0.06712  0.30599  0.31151  1.0000
  C   C153      1.0  0.03978  0.14762  0.16098  1.0000
  H   H110      1.0  0.26408  0.18631  0.46124  1.0000
  C   C154      1.0  0.38480  0.02038  0.37648  1.0000
  C   C155      1.0  0.24831  0.18840  0.47724  1.0000
  H   H111      1.0  0.25228  0.28895  0.35712  1.0000
  H   H112      1.0  0.45547  0.29192  0.09660  1.0000
  H   H113      1.0  0.32960  0.06340  0.28558  1.0000
  C   C156      1.0  0.35437  0.00869  0.20669  1.0000
  C   C157      1.0  0.04528  0.18368  0.31199  1.0000
  H   H114      1.0  0.01361  0.28537  0.32653  1.0000
  H   H115      1.0  0.04913  0.16823  0.29547  1.0000
  Fe  Fe12      1.0  0.08995  0.21217  0.46859  1.0000
  C   C158      1.0  0.45476  0.25875  0.01065  1.0000
  C   C159      1.0  0.31655  0.19132  0.04693  1.0000
  C   C160      1.0  0.44282  0.10548  0.45207  1.0000
  H   H116      1.0  0.46783  0.24735  0.38860  1.0000
  H   H117      1.0  0.32396  0.17417  0.09721  1.0000
  C   C161      1.0  0.00578  0.24964  0.27233  1.0000
  C   C162      1.0  0.24327  0.27329  0.36521  1.0000
  C   C163      1.0  0.40018  0.00429  0.35885  1.0000
  C   C164      1.0  0.00993  0.31206  0.47950  1.0000
  C   C165      1.0  0.03795  0.26480  0.23719  1.0000
  C   C166      1.0  0.44168  0.30386  0.10602  1.0000
  C   C167      1.0  0.02284  0.14442  0.13394  1.0000
  H   H118      1.0  0.04259  0.31203  0.37967  1.0000
  C   C168      1.0  0.04997  0.23448  0.04753  1.0000
  C   C169      1.0  0.44152  0.20993  0.44607  1.0000
  C   C170      1.0  0.03329  0.30862  0.10281  1.0000
  C   C171      1.0  0.46647  0.29585  0.98573  1.0000
  H   H119      1.0  0.05586  0.27101  0.23580  1.0000
  H   H120      1.0  0.05984  0.24902  0.05861  1.0000
  H   H121      1.0  0.08872  0.18996  0.99734  1.0000
  H   H122      1.0  0.49140  0.27631  0.11842  1.0000
  C   C172      1.0  0.47709  0.29812  0.28700  1.0000
  H   H123      1.0  0.43162  0.04434  0.42943  1.0000
  P   P4        1.0  0.39155  0.05132  0.37952  1.0000
  H   H124      1.0  0.22448  0.18131  0.43289  1.0000
  H   H125      1.0  0.01957  0.09789  0.33522  1.0000
  S   S22       1.0  0.12591  0.29468  0.98649  1.0000
  C   C173      1.0  0.45142  0.27675  0.98560  1.0000
  H   H126      1.0  0.04087  0.25674  0.29313  1.0000
  P   P5        1.0  0.99569  0.23752  0.31403  1.0000
  P   P6        1.0  0.44665  0.25765  0.46014  1.0000
  C   C174      1.0  0.35138  0.09372  0.29174  1.0000
  S   S23       1.0  0.37307  0.31936  0.07995  1.0000
  H   H127      1.0  0.02036  0.23250  0.43112  1.0000
  C   C175      1.0  0.04647  0.19236  0.03652  1.0000
  C   C176      1.0  0.38401  0.06295  0.42359  1.0000
  C   C177      1.0  0.01978  0.21764  0.32651  1.0000
  H   H128      1.0  0.37579  0.09878  0.40609  1.0000
  C   C178      1.0  0.38250  0.09046  0.33650  1.0000
  H   H129      1.0  0.47717  0.15280  0.31425  1.0000
  C   C179      1.0  0.37564  0.06766  0.34501  1.0000
  C   C180      1.0  0.46078  0.23137  0.39922  1.0000
  P   P7        1.0  0.47468  0.23793  0.07198  1.0000
  C   C181      1.0  0.13172  0.29262  0.31148  1.0000
  H   H130      1.0  0.44311  0.24401  0.00945  1.0000
  H   H131      1.0  0.03553  0.14406  0.18872  1.0000
  C   C182      1.0  0.25156  0.27140  0.98612  1.0000
  C   C183      1.0  0.38585  0.04831  0.45380  1.0000
  C   C184      1.0  0.38288  0.01965  0.26583  1.0000
  H   H132      1.0  0.43136  0.09414  0.43667  1.0000
  C   C185      1.0  0.43844  0.04896  0.40352  1.0000
  S   S24       1.0  0.00702  0.31305  0.26318  1.0000
  C   C186      1.0  0.44293  0.18937  0.42509  1.0000
  H   H133      1.0  0.39138  0.02995  0.45100  1.0000
  C   C187      1.0  0.48717  0.18400  0.28635  1.0000
  C   C188      1.0  0.48218  0.29100  0.45368  1.0000
  H   H134      1.0  0.19309  0.28934  0.98925  1.0000
  H   H135      1.0  0.48373  0.18308  0.13317  1.0000
  H   H136      1.0  0.02729  0.08485  0.00575  1.0000
  C   C189      1.0  0.48949  0.16710  0.31332  1.0000
  H   H137      1.0  0.49016  0.28404  0.47794  1.0000
  H   H138      1.0  0.45497  0.31768  0.36651  1.0000
  C   C190      1.0  0.10331  0.14283  0.05008  1.0000
  C   C191      1.0  0.04550  0.14172  0.01153  1.0000
  H   H139      1.0  0.48798  0.14617  0.01157  1.0000
  C   C192      1.0  0.48838  0.27876  0.03582  1.0000
  C   C193      1.0  0.37520  0.99660  0.26090  1.0000
  C   C194      1.0  0.09939  0.17648  0.01070  1.0000
  H   H140      1.0  0.48694  0.16914  0.44273  1.0000
  H   H141      1.0  0.01505  0.18244  0.00713  1.0000
  H   H142      1.0  0.99974  0.29784  0.46861  1.0000
  H   H143      1.0  0.09562  0.13005  0.06756  1.0000
  H   H144      1.0  0.99449  0.12758  0.42568  1.0000
  C   C195      1.0  0.36778  0.28007  0.46675  1.0000
  H   H145      1.0  0.34923  0.28505  0.46896  1.0000
  C   C196      1.0  0.01699  0.21098  0.47766  1.0000
  H   H146      1.0  0.43281  0.20957  0.47179  1.0000
  C   C197      1.0  0.20839  0.27797  0.98419  1.0000
  H   H147      1.0  0.15626  0.15547  0.01316  1.0000
  C   C198      1.0  0.13758  0.15691  0.01920  1.0000
  C   C199      1.0  0.20483  0.18797  0.48140  1.0000
  S   S25       1.0  0.99281  0.13994  0.31046  1.0000
  H   H148      1.0  0.32253  0.32468  0.10259  1.0000
  H   H149      1.0  0.13123  0.18667  0.98450  1.0000
  Fe  Fe13      1.0  0.09702  0.29240  0.94422  1.0000
  H   H150      1.0  0.02813  0.25960  0.84586  1.0000
  P   P8        1.0  0.48937  0.03301  0.86464  1.0000
  C   C200      1.0  0.42059  0.20404  0.81431  1.0000
  Fe  Fe14      1.0  0.08784  0.24102  0.95892  1.0000
  S   S26       1.0  0.06071  0.21367  0.94320  1.0000
  S   S27       1.0  0.11190  0.25850  0.92044  1.0000
  Fe  Fe15      1.0  0.04161  0.11760  0.79606  1.0000
  S   S28       1.0  0.01237  0.14155  0.77637  1.0000
  S   S29       1.0  0.07376  0.13341  0.82316  1.0000
  Fe  Fe16      1.0  0.01470  0.07207  0.77499  1.0000
  C   C201      1.0  0.00455  0.24897  0.92729  1.0000
  S   S30       1.0  0.01743  0.03171  0.78398  1.0000
  Fe  Fe17      1.0  0.01013  0.11666  0.72935  1.0000
  S   S31       1.0  0.00484  0.13095  0.67265  1.0000
  H   H151      1.0  0.43794  0.14550  0.76510  1.0000
  S   S32       1.0  0.04147  0.09406  0.74668  1.0000
  S   S33       1.0  0.01808  0.09385  0.82594  1.0000
  C   C202      1.0  0.44511  0.25381  0.53533  1.0000
  S   S34       1.0  0.45186  0.13985  0.69035  1.0000
  Fe  Fe18      1.0  0.36501  0.21885  0.54256  1.0000
  S   S35       1.0  0.34413  0.19039  0.56781  1.0000
  S   S36       1.0  0.38712  0.24019  0.58226  1.0000
  H   H152      1.0  0.00699  0.29100  0.88061  1.0000
  Fe  Fe19      1.0  0.31811  0.19439  0.52138  1.0000
  S   S37       1.0  0.27848  0.19744  0.53619  1.0000
  Fe  Fe20      1.0  0.36497  0.16542  0.53267  1.0000
  S   S38       1.0  0.38604  0.13291  0.55083  1.0000
  C   C203      1.0  0.14922  0.25722  0.49451  1.0000
  S   S39       1.0  0.38681  0.19343  0.50905  1.0000
  S   S40       1.0  0.11808  0.20964  0.51183  1.0000
  Fe  Fe21      1.0  0.09813  0.17850  0.53184  1.0000
  S   S41       1.0  0.09246  0.17414  0.59198  1.0000
  H   H153      1.0  0.05613  0.00397  0.65737  1.0000
  C   C204      1.0  0.22950  0.19625  0.53410  1.0000
  C   C205      1.0  0.20693  0.19338  0.51806  1.0000
  H   H154      1.0  0.23075  0.20032  0.56248  1.0000
  H   H155      1.0  0.30717  0.32251  0.75195  1.0000
  C   C206      1.0  0.46225  0.00089  0.90156  1.0000
  C   C207      1.0  0.37789  0.31196  0.58342  1.0000
  C   C208      1.0  0.37559  0.28793  0.57415  1.0000
  C   C209      1.0  0.38845  0.27059  0.59300  1.0000
  C   C210      1.0  0.40345  0.27745  0.62125  1.0000
  C   C211      1.0  0.40592  0.30138  0.63027  1.0000
  C   C212      1.0  0.34979  0.26831  0.82919  1.0000
  H   H156      1.0  0.36404  0.28279  0.55235  1.0000
  H   H157      1.0  0.41330  0.26415  0.63615  1.0000
  H   H158      1.0  0.01892  0.09090  0.62876  1.0000
  C   C213      1.0  0.43402  0.13760  0.65110  1.0000
  C   C214      1.0  0.41569  0.15446  0.64546  1.0000
  C   C215      1.0  0.40133  0.15356  0.61441  1.0000
  C   C216      1.0  0.40471  0.13536  0.58914  1.0000
  C   C217      1.0  0.42292  0.11837  0.59490  1.0000
  C   C218      1.0  0.43770  0.11963  0.62553  1.0000
  H   H159      1.0  0.41268  0.16844  0.66498  1.0000
  H   H160      1.0  0.38738  0.16673  0.61034  1.0000
  H   H161      1.0  0.42561  0.10420  0.57557  1.0000
  H   H162      1.0  0.45172  0.10653  0.62958  1.0000
  H   H163      1.0  0.03200  0.28665  0.61811  1.0000
  H   H164      1.0  0.42233  0.26742  0.77831  1.0000
  H   H165      1.0  0.04406  0.28372  0.79111  1.0000
  C   C219      1.0  0.42948  0.26198  0.75260  1.0000
  C   C220      1.0  0.25566  0.28559  0.70856  1.0000
  C   C221      1.0  0.06815  0.16119  0.61323  1.0000
  C   C222      1.0  0.04748  0.15551  0.59448  1.0000
  C   C223      1.0  0.02833  0.14602  0.61289  1.0000
  C   C224      1.0  0.02964  0.14199  0.65007  1.0000
  C   C225      1.0  0.05039  0.14742  0.66867  1.0000
  C   C226      1.0  0.06943  0.15711  0.65038  1.0000
  H   H166      1.0  0.04625  0.15854  0.56591  1.0000
  H   H167      1.0  0.01254  0.14156  0.59821  1.0000
  H   H168      1.0  0.05169  0.14446  0.69729  1.0000
  H   H169      1.0  0.08531  0.16148  0.66516  1.0000
  C   C227      1.0  0.01312  0.00420  0.76068  1.0000
  C   C228      1.0  0.43830  0.16464  0.81541  1.0000
  H   H170      1.0  0.45841  0.31325  0.63719  1.0000
  C   C229      1.0  0.48916  0.05405  0.90139  1.0000
  C   C230      1.0  0.01663  0.31272  0.51590  1.0000
  H   H171      1.0  0.48711  0.02144  0.78831  1.0000
  C   C231      1.0  0.07892  0.00309  0.70457  1.0000
  H   H172      1.0  0.38595  0.31086  0.69670  1.0000
  C   C232      1.0  0.06482  0.19221  0.90871  1.0000
  C   C233      1.0  0.04490  0.18304  0.89125  1.0000
  C   C234      1.0  0.04739  0.16526  0.86471  1.0000
  C   C235      1.0  0.06987  0.15626  0.85569  1.0000
  C   C236      1.0  0.08978  0.16539  0.87326  1.0000
  C   C237      1.0  0.08729  0.18326  0.89970  1.0000
  H   H173      1.0  0.02745  0.18977  0.89817  1.0000
  H   H174      1.0  0.03191  0.15835  0.85150  1.0000
  H   H175      1.0  0.10721  0.15852  0.86651  1.0000
  H   H176      1.0  0.10274  0.18997  0.91324  1.0000
  H   H177      1.0  0.04703  0.28971  0.90871  1.0000
  C   C238      1.0  0.30844  0.24317  0.59474  1.0000
  H   H178      1.0  0.37056  0.08825  0.51918  1.0000
  H   H179      1.0  0.34852  0.23714  0.86135  1.0000
  H   H180      1.0  0.35514  0.22753  0.63817  1.0000
  C   C239      1.0  0.45606  0.03902  0.76725  1.0000
  C   C240      1.0  0.43670  0.05406  0.77460  1.0000
  C   C241      1.0  0.43337  0.06297  0.80938  1.0000
  C   C242      1.0  0.44951  0.05697  0.83674  1.0000
  C   C243      1.0  0.49100  0.08729  0.95778  1.0000
  H   H181      1.0  0.42667  0.25920  0.53400  1.0000
  C   C244      1.0  0.06347  0.99339  0.67898  1.0000
  C   C245      1.0  0.47463  0.21272  0.77938  1.0000
  S   S42       1.0  0.48492  0.08926  0.74693  1.0000
  C   C246      1.0  0.07710  0.03909  0.77413  1.0000
  C   C247      1.0  0.11578  0.03260  0.67895  1.0000
  H   H182      1.0  0.05947  0.28957  0.53077  1.0000
  C   C248      1.0  0.08943  0.04775  0.74479  1.0000
  C   C249      1.0  0.48206  0.30680  0.82235  1.0000
  C   C250      1.0  0.24851  0.24876  0.97171  1.0000
  S   S43       1.0  0.06871  0.18306  0.49179  1.0000
  H   H183      1.0  0.10043  0.02735  0.62610  1.0000
  H   H184      1.0  0.48444  0.21228  0.93888  1.0000
  H   H185      1.0  0.42179  0.29669  0.49672  1.0000
  P   P9        1.0  0.00834  0.28997  0.54676  1.0000
  C   C251      1.0  0.44873  0.20634  0.95424  1.0000
  C   C252      1.0  0.47846  0.24076  0.57204  1.0000
  H   H186      1.0  0.42970  0.24884  0.87769  1.0000
  H   H187      1.0  0.38257  0.04612  0.51135  1.0000
  C   C253      1.0  0.99507  0.11361  0.53110  1.0000
  H   H188      1.0  0.45861  0.03195  0.74034  1.0000
  H   H189      1.0  0.42430  0.05875  0.75330  1.0000
  H   H190      1.0  0.41819  0.07440  0.81514  1.0000
  H   H191      1.0  0.44624  0.06346  0.86371  1.0000
  C   C254      1.0  0.46566  0.32119  0.84069  1.0000
  H   H192      1.0  0.06656  0.04502  0.82890  1.0000
  Fe  Fe22      1.0  0.36676  0.27692  0.95814  1.0000
  H   H193      1.0  0.46622  0.21657  0.75380  1.0000
  C   C255      1.0  0.23391  0.29773  0.70505  1.0000
  H   H194      1.0  0.44158  0.32381  0.88502  1.0000
  H   H195      1.0  0.41771  0.30631  0.65183  1.0000
  H   H196      1.0  0.45034  0.18469  0.51511  1.0000
  H   H197      1.0  0.21769  0.28897  0.71124  1.0000
  H   H198      1.0  0.47039  0.27917  0.69256  1.0000
  H   H199      1.0  0.10144  0.99533  0.75052  1.0000
  C   C256      1.0  0.07307  0.06925  0.65449  1.0000
  H   H200      1.0  0.22348  0.22336  0.95231  1.0000
  S   S44       1.0  0.34214  0.24686  0.96575  1.0000
  P   P10       1.0  0.08773  0.03339  0.70142  1.0000
  C   C257      1.0  0.02690  0.24573  0.56580  1.0000
  H   H201      1.0  0.39956  0.23024  0.91452  1.0000
  C   C258      1.0  0.31634  0.22386  0.76959  1.0000
  C   C259      1.0  0.30355  0.23005  0.80035  1.0000
  C   C260      1.0  0.29211  0.26747  0.77360  1.0000
  H   H202      1.0  0.48607  0.23659  0.59808  1.0000
  C   C261      1.0  0.30417  0.26099  0.74206  1.0000
  C   C262      1.0  0.31695  0.23942  0.74075  1.0000
  P   P11       1.0  0.30476  0.28109  0.70484  1.0000
  C   C263      1.0  0.03192  0.10759  0.96062  1.0000
  H   H203      1.0  0.48847  0.28234  0.62150  1.0000
  H   H204      1.0  0.00001  0.25818  0.48644  1.0000
  H   H205      1.0  0.48876  0.08453  0.86665  1.0000
  C   C264      1.0  0.32816  0.30122  0.71476  1.0000
  C   C265      1.0  0.35071  0.29777  0.69993  1.0000
  C   C266      1.0  0.36869  0.31335  0.70851  1.0000
  H   H206      1.0  0.17610  0.03040  0.62975  1.0000
  S   S45       1.0  0.17678  0.24406  0.95957  1.0000
  C   C267      1.0  0.01250  0.09809  0.54482  1.0000
  H   H207      1.0  0.32592  0.20707  0.76820  1.0000
  H   H208      1.0  0.30314  0.21805  0.82278  1.0000
  C   C268      1.0  0.47987  0.00390  0.87590  1.0000
  C   C269      1.0  0.04539  0.14683  0.97475  1.0000
  H   H209      1.0  0.32724  0.23453  0.71740  1.0000
  C   C270      1.0  0.47555  0.16936  0.55264  1.0000
  C   C271      1.0  0.46949  0.04256  0.82919  1.0000
  C   C272      1.0  0.47216  0.13557  0.49154  1.0000
  H   H210      1.0  0.28789  0.23538  0.67886  1.0000
  H   H211      1.0  0.35458  0.28305  0.68195  1.0000
  C   C273      1.0  0.99895  0.32251  0.98081  1.0000
  H   H212      1.0  0.45437  0.01598  0.91546  1.0000
  C   C274      1.0  0.45946  0.23290  0.90656  1.0000
  H   H213      1.0  0.14308  0.25828  0.52194  1.0000
  C   C275      1.0  0.01506  0.31309  0.65118  1.0000
  H   H214      1.0  0.00763  0.08379  0.56207  1.0000
  P   P12       1.0  0.49185  0.15334  0.51835  1.0000
  H   H215      1.0  0.41739  0.17737  0.73184  1.0000
  H   H216      1.0  0.49171  0.10012  0.97956  1.0000
  C   C276      1.0  0.03862  0.12984  0.94944  1.0000
  H   H217      1.0  0.01650  0.27977  0.95479  1.0000
  H   H218      1.0  0.41693  0.11312  0.49294  1.0000
  C   C277      1.0  0.13699  0.03424  0.69858  1.0000
  C   C278      1.0  0.02847  0.29020  0.77694  1.0000
  H   H219      1.0  0.06147  0.09774  0.61998  1.0000
  H   H220      1.0  0.44415  0.25075  0.59271  1.0000
  C   C279      1.0  0.31853  0.26519  0.59937  1.0000
  C   C280      1.0  0.25043  0.19369  0.51397  1.0000
  H   H221      1.0  0.41144  0.20342  0.96379  1.0000
  C   C281      1.0  0.04512  0.22896  0.57146  1.0000
  C   C282      1.0  0.05607  0.08340  0.63682  1.0000
  C   C283      1.0  0.04109  0.30501  0.89374  1.0000
  H   H222      1.0  0.45373  0.19421  0.97542  1.0000
  C   C284      1.0  0.06833  0.23424  0.56306  1.0000
  C   C285      1.0  0.04194  0.04812  0.68319  1.0000
  C   C286      1.0  0.35517  0.24472  0.83698  1.0000
  H   H223      1.0  0.44249  0.13870  0.52819  1.0000
  C   C287      1.0  0.06201  0.24285  0.85557  1.0000
  C   C288      1.0  0.07936  0.22706  0.84259  1.0000
  C   C289      1.0  0.07584  0.21516  0.81002  1.0000
  C   C290      1.0  0.05542  0.21983  0.78957  1.0000
  C   C291      1.0  0.03839  0.23651  0.80174  1.0000
  C   C292      1.0  0.04144  0.24733  0.83547  1.0000
  P   P13       1.0  0.01236  0.24379  0.77531  1.0000
  C   C293      1.0  0.01453  0.22936  0.73184  1.0000
  H   H224      1.0  0.00638  0.05999  0.67052  1.0000
  C   C294      1.0  0.00364  0.30511  0.58917  1.0000
  C   C295      1.0  0.45884  0.25118  0.50422  1.0000
  C   C296      1.0  0.42124  0.24184  0.73464  1.0000
  H   H225      1.0  0.17497  0.03504  0.69605  1.0000
  C   C297      1.0  0.45439  0.31264  0.87091  1.0000
  H   H226      1.0  0.47305  0.17714  0.64344  1.0000
  C   C298      1.0  0.11659  0.02929  0.64157  1.0000
  C   C299      1.0  0.02135  0.20554  0.66605  1.0000
  C   C300      1.0  0.03453  0.22534  0.67445  1.0000
  C   C301      1.0  0.03115  0.23722  0.70721  1.0000
  H   H227      1.0  0.42599  0.21896  0.68811  1.0000
  C   C302      1.0  0.07332  0.25609  0.54840  1.0000
  H   H228      1.0  0.08243  0.22126  0.56759  1.0000
  H   H229      1.0  0.44763  0.15061  0.82974  1.0000
  C   C303      1.0  0.43536  0.23722  0.89921  1.0000
  C   C304      1.0  0.03206  0.07966  0.64192  1.0000
  H   H230      1.0  0.06445  0.25146  0.88140  1.0000
  H   H231      1.0  0.09527  0.22356  0.85829  1.0000
  H   H232      1.0  0.08886  0.20211  0.80084  1.0000
  H   H233      1.0  0.05308  0.21027  0.76454  1.0000
  C   C305      1.0  0.38097  0.05740  0.48809  1.0000
  C   C306      1.0  0.08871  0.07260  0.81041  1.0000
  C   C307      1.0  0.43232  0.18584  0.83302  1.0000
  H   H234      1.0  0.32515  0.29397  0.63548  1.0000
  C   C308      1.0  0.39052  0.30270  0.87699  1.0000
  H   H235      1.0  0.00110  0.19793  0.80438  1.0000
  H   H236      1.0  0.42601  0.20451  0.56187  1.0000
  C   C309      1.0  0.48580  0.19072  0.78467  1.0000
  H   H237      1.0  0.02461  0.19576  0.64135  1.0000
  H   H238      1.0  0.04795  0.23096  0.65611  1.0000
  H   H239      1.0  0.04204  0.25209  0.71386  1.0000
  H   H240      1.0  0.46411  0.24591  0.80322  1.0000
  H   H241      1.0  0.28212  0.25694  0.82667  1.0000
  C   C310      1.0  0.38487  0.29314  0.48473  1.0000
  C   C311      1.0  0.45566  0.18328  0.54296  1.0000
  C   C312      1.0  0.35890  0.21741  0.66220  1.0000
  H   H242      1.0  0.33629  0.18909  0.64645  1.0000
  H   H243      1.0  0.37291  0.21274  0.81995  1.0000
  C   C313      1.0  0.30761  0.26563  0.66233  1.0000
  C   C314      1.0  0.29706  0.24366  0.65721  1.0000
  C   C315      1.0  0.36942  0.23112  0.81378  1.0000
  H   H244      1.0  0.38234  0.24289  0.68430  1.0000
  S   S46       1.0  0.38609  0.27814  0.90475  1.0000
  H   H245      1.0  0.25596  0.26737  0.71710  1.0000
  C   C316      1.0  0.02501  0.13436  0.49910  1.0000
  H   H246      1.0  0.02217  0.24354  0.91880  1.0000
  C   C317      1.0  0.35849  0.27828  0.79807  1.0000
  H   H247      1.0  0.35468  0.29671  0.79259  1.0000
  H   H248      1.0  0.03628  0.03528  0.70239  1.0000
  H   H249      1.0  0.45697  0.24283  0.66144  1.0000
  C   C318      1.0  0.34822  0.19576  0.66686  1.0000
  C   C319      1.0  0.37446  0.22595  0.68836  1.0000
  C   C320      1.0  0.48907  0.07833  0.89411  1.0000
  C   C321      1.0  0.41816  0.22659  0.91983  1.0000
  H   H250      1.0  0.10966  0.07688  0.72568  1.0000
  H   H251      1.0  0.43728  0.20093  0.62579  1.0000
  C   C322      1.0  0.35290  0.18271  0.69785  1.0000
  C   C323      1.0  0.37921  0.24137  0.78334  1.0000
  C   C324      1.0  0.37307  0.26486  0.77512  1.0000
  C   C325      1.0  0.45695  0.26854  0.70448  1.0000
  C   C326      1.0  0.00094  0.20977  0.72277  1.0000
  C   C327      1.0  0.29767  0.23242  0.62358  1.0000
  C   C328      1.0  0.37970  0.21266  0.71923  1.0000
  H   H252      1.0  0.34459  0.16590  0.70132  1.0000
  H   H253      1.0  0.37993  0.27299  0.75141  1.0000
  C   C329      1.0  0.44831  0.19258  0.60547  1.0000
  H   H254      1.0  0.26380  0.23739  0.96668  1.0000
  H   H255      1.0  0.40738  0.28134  0.83602  1.0000
  C   C330      1.0  0.31794  0.27653  0.63290  1.0000
  C   C331      1.0  0.01039  0.27505  0.76629  1.0000
  C   C332      1.0  0.36834  0.19124  0.72417  1.0000
  H   H256      1.0  0.41657  0.22052  0.82819  1.0000
  H   H257      1.0  0.30852  0.23458  0.56858  1.0000
  C   C333      1.0  0.01822  0.30027  0.61918  1.0000
  C   C334      1.0  0.02499  0.06218  0.66535  1.0000
  C   C335      1.0  0.00129  0.13237  0.50909  1.0000
  C   C336      1.0  0.46602  0.21684  0.93366  1.0000
  C   C337      1.0  0.47368  0.22938  0.80738  1.0000
  P   P14       1.0  0.39858  0.22429  0.75410  1.0000
  H   H258      1.0  0.37142  0.18105  0.74828  1.0000
  C   C338      1.0  0.00453  0.19784  0.69010  1.0000
  H   H259      1.0  0.04971  0.08880  0.54641  1.0000
  C   C339      1.0  0.40184  0.29902  0.84388  1.0000
  C   C340      1.0  0.45887  0.28944  0.88213  1.0000
  S   S47       1.0  0.11907  0.15237  0.49804  1.0000
  C   C341      1.0  0.13828  0.02861  0.62389  1.0000
  C   C342      1.0  0.44186  0.19447  0.56934  1.0000
  C   C343      1.0  0.43164  0.23477  0.70201  1.0000
  C   C344      1.0  0.15866  0.03352  0.68083  1.0000
  C   C345      1.0  0.42107  0.17990  0.76022  1.0000
  H   H260      1.0  0.48424  0.11090  0.55896  1.0000
  C   C346      1.0  0.44921  0.13115  0.50337  1.0000
  H   H261      1.0  0.33928  0.27900  0.84773  1.0000
  C   C347      1.0  0.47482  0.27463  0.86326  1.0000
  C   C348      1.0  0.23305  0.32109  0.69338  1.0000
  C   C349      1.0  0.44935  0.24815  0.68694  1.0000
  C   C350      1.0  0.48475  0.29672  0.60326  1.0000
  C   C351      1.0  0.41424  0.20096  0.77801  1.0000
  C   C352      1.0  0.44717  0.27532  0.73744  1.0000
  H   H262      1.0  0.28937  0.21556  0.61943  1.0000
  H   H263      1.0  0.99487  0.18207  0.68386  1.0000
  C   C353      1.0  0.49191  0.06315  0.96521  1.0000
  H   H264      1.0  0.13684  0.03600  0.72755  1.0000
  C   C354      1.0  0.01843  0.30579  0.87786  1.0000
  H   H265      1.0  0.04144  0.21175  0.58217  1.0000
  H   H266      1.0  0.05115  0.16378  0.96559  1.0000
  C   C355      1.0  0.43284  0.16176  0.77899  1.0000
  C   C356      1.0  0.15930  0.03084  0.64349  1.0000
  C   C357      1.0  0.32419  0.31991  0.73928  1.0000
  H   H267      1.0  0.48997  0.11354  0.91627  1.0000
  C   C358      1.0  0.46844  0.17924  0.61533  1.0000
  C   C359      1.0  0.10082  0.08150  0.78123  1.0000
  C   C360      1.0  0.39311  0.31880  0.61151  1.0000
  H   H268      1.0  0.44972  0.28322  0.90535  1.0000
  C   C361      1.0  0.07682  0.05145  0.80682  1.0000
  C   C362      1.0  0.42483  0.21138  0.94756  1.0000
  C   C363      1.0  0.05516  0.27291  0.54258  1.0000
  H   H269      1.0  0.06688  0.02331  0.77156  1.0000
  C   C364      1.0  0.48196  0.16754  0.58905  1.0000
  C   C365      1.0  0.10105  0.06923  0.74844  1.0000
  H   H270      1.0  0.09156  0.07292  0.65107  1.0000
  C   C366      1.0  0.06608  0.05110  0.67713  1.0000
  H   H271      1.0  0.10918  0.09842  0.78376  1.0000
  H   H272      1.0  0.09125  0.25978  0.54081  1.0000
  C   C367      1.0  0.49128  0.04656  0.93712  1.0000
  H   H273      1.0  0.08789  0.08259  0.83539  1.0000
  H   H274      1.0  0.43702  0.18827  0.86108  1.0000
  C   C368      1.0  0.47237  0.03329  0.79442  1.0000
  C   C369      1.0  0.37420  0.08113  0.49257  1.0000
  P   P15       1.0  0.48167  0.24488  0.87796  1.0000
  S   S48       1.0  0.33741  0.16638  0.48828  1.0000
  C   C370      1.0  0.45499  0.24885  0.56904  1.0000
  H   H275      1.0  0.37956  0.30822  0.50111  1.0000
  C   C371      1.0  0.40602  0.31804  0.82096  1.0000
  H   H276      1.0  0.45320  0.29110  0.75107  1.0000
  C   C372      1.0  0.00271  0.00282  0.72646  1.0000
  C   C373      1.0  0.22557  0.24087  0.96348  1.0000
  H   H277      1.0  0.19118  0.19524  0.53414  1.0000
  C   C374      1.0  0.03181  0.26792  0.55155  1.0000
  C   C375      1.0  0.46785  0.31417  0.61215  1.0000
  S   S49       1.0  0.33783  0.22491  0.49850  1.0000
  C   C376      1.0  0.04238  0.11879  0.51277  1.0000
  Fe  Fe23      1.0  0.13874  0.25904  0.96612  1.0000
  H   H278      1.0  0.32644  0.27361  0.57671  1.0000
  H   H279      1.0  0.02674  0.09447  0.94084  1.0000
  H   H280      1.0  0.03890  0.13381  0.92102  1.0000
  C   C377      1.0  0.27675  0.29689  0.70092  1.0000
  C   C378      1.0  0.20532  0.25538  0.96962  1.0000
  C   C379      1.0  0.00664  0.32347  0.75157  1.0000
  C   C380      1.0  0.00124  0.26958  0.94782  1.0000
  C   C381      1.0  0.48986  0.09486  0.92221  1.0000
  H   H281      1.0  0.41475  0.31502  0.79558  1.0000
  H   H282      1.0  0.48593  0.17753  0.76330  1.0000
  H   H283      1.0  0.00904  0.24133  0.57242  1.0000
  H   H284      1.0  0.06066  0.12051  0.50492  1.0000
  H   H285      1.0  0.49098  0.31357  0.79912  1.0000
  C   C382      1.0  0.29165  0.25195  0.80250  1.0000
  H   H286      1.0  0.28296  0.28446  0.77588  1.0000
  C   C383      1.0  0.02649  0.31432  0.76974  1.0000
  C   C384      1.0  0.49213  0.23780  0.54130  1.0000
  H   H287      1.0  0.18353  0.24270  0.50910  1.0000
  H   H288      1.0  0.43694  0.27591  0.96635  1.0000
  Fe  Fe24      1.0  0.48378  0.11568  0.70220  1.0000
  H   H289      1.0  0.13878  0.02637  0.59497  1.0000
  H   H290      1.0  0.46375  0.30992  0.96653  1.0000
  C   C385      1.0  0.27570  0.32016  0.68830  1.0000
  H   H291      1.0  0.99678  0.01882  0.71319  1.0000
  H   H292      1.0  0.01091  0.18637  0.51971  1.0000
  C   C386      1.0  0.03618  0.10083  0.53593  1.0000
  C   C387      1.0  0.00670  0.19118  0.49225  1.0000
  H   H293      1.0  0.02923  0.22126  0.49354  1.0000
  C   C388      1.0  0.48692  0.28376  0.83399  1.0000
  H   H294      1.0  0.99824  0.16465  0.94131  1.0000
  C   C389      1.0  0.17203  0.24856  0.48731  1.0000
  C   C390      1.0  0.48229  0.24264  0.50747  1.0000
  C   C391      1.0  0.48442  0.22434  0.84070  1.0000
  S   S50       1.0  0.07159  0.27502  0.98048  1.0000
  H   H295      1.0  0.02607  0.30915  0.67446  1.0000
  C   C392      1.0  0.43462  0.11628  0.48359  1.0000
  S   S51       1.0  0.08435  0.32394  0.91109  1.0000
  C   C393      1.0  0.05598  0.32409  0.89037  1.0000
  C   C394      1.0  0.09936  0.36535  0.20634  1.0000
  C   C395      1.0  0.12698  0.64078  0.18649  1.0000
  S   S52       1.0  0.37544  0.63550  0.39804  1.0000
  H   H296      1.0  0.38281  0.34723  0.46116  1.0000
  H   H297      1.0  0.09151  0.33198  0.05093  1.0000
  C   C396      1.0  0.44616  0.39350  0.10242  1.0000
  C   C397      1.0  0.99894  0.37667  0.08387  1.0000
  C   C398      1.0  0.41814  0.64117  0.23657  1.0000
  Fe  Fe25      1.0  0.01870  0.55424  0.19654  1.0000
  H   H298      1.0  0.39970  0.39454  0.16001  1.0000
  S   S53       1.0  0.01429  0.51417  0.18677  1.0000
  Fe  Fe26      1.0  0.04162  0.59846  0.16524  1.0000
  S   S54       1.0  0.02280  0.62350  0.20305  1.0000
  S   S55       1.0  0.06644  0.61055  0.12179  1.0000
  Fe  Fe27      1.0  0.03141  0.59654  0.24521  1.0000
  S   S56       1.0  0.04403  0.60320  0.30284  1.0000
  C   C399      1.0  0.00863  0.46663  0.19984  1.0000
  S   S57       1.0  0.05281  0.57261  0.20827  1.0000
  S   S58       1.0  0.00914  0.57844  0.15009  1.0000
  Fe  Fe28      1.0  0.01161  0.33893  0.21950  1.0000
  S   S59       1.0  0.04311  0.35486  0.24587  1.0000
  C   C400      1.0  0.45889  0.40315  0.16326  1.0000
  H   H299      1.0  0.03068  0.54054  0.30651  1.0000
  H   H300      1.0  0.37653  0.37972  0.99260  1.0000
  Fe  Fe29      1.0  0.01685  0.37991  0.27239  1.0000
  S   S60       1.0  0.02594  0.41915  0.27955  1.0000
  H   H301      1.0  0.49211  0.33316  0.39160  1.0000
  C   C401      1.0  0.09527  0.38028  0.23587  1.0000
  H   H302      1.0  0.48673  0.61949  0.01719  1.0000
  C   C402      1.0  0.01799  0.48790  0.21294  1.0000
  H   H303      1.0  0.05182  0.65217  0.28058  1.0000
  C   C403      1.0  0.43052  0.37200  0.03320  1.0000
  C   C404      1.0  0.02300  0.44511  0.25257  1.0000
  C   C405      1.0  0.03246  0.46634  0.26557  1.0000
  C   C406      1.0  0.03011  0.48751  0.24590  1.0000
  H   H304      1.0  0.11648  0.39998  0.02235  1.0000
  H   H305      1.0  0.05822  0.42089  0.19714  1.0000
  H   H306      1.0  0.04168  0.46643  0.29114  1.0000
  H   H307      1.0  0.03776  0.50351  0.25622  1.0000
  C   C407      1.0  0.06808  0.64085  0.11142  1.0000
  C   C408      1.0  0.45510  0.41706  0.03382  1.0000
  C   C409      1.0  0.43567  0.40161  0.17511  1.0000
  H   H308      1.0  0.39195  0.34682  0.13846  1.0000
  H   H309      1.0  0.09355  0.41857  0.07150  1.0000
  H   H310      1.0  0.31863  0.61602  0.29091  1.0000
  C   C410      1.0  0.48600  0.35416  0.07622  1.0000
  C   C411      1.0  0.47318  0.64614  0.40796  1.0000
  H   H311      1.0  0.02330  0.47816  0.11469  1.0000
  C   C412      1.0  0.39979  0.34971  0.47415  1.0000
  H   H312      1.0  0.31456  0.63012  0.22816  1.0000
  P   P16       1.0  0.06175  0.39884  0.12569  1.0000
  C   C413      1.0  0.42063  0.34388  0.45590  1.0000
  C   C414      1.0  0.40091  0.63863  0.37154  1.0000
  C   C415      1.0  0.06992  0.40547  0.19908  1.0000
  H   H313      1.0  0.09245  0.35865  0.15081  1.0000
  C   C416      1.0  0.44198  0.64221  0.32958  1.0000
  C   C417      1.0  0.43049  0.62077  0.33128  1.0000
  C   C418      1.0  0.40989  0.61908  0.35194  1.0000
  C   C419      1.0  0.99427  0.53139  0.29875  1.0000
  H   H314      1.0  0.41965  0.58841  0.41371  1.0000
  H   H315      1.0  0.43731  0.60562  0.31637  1.0000
  H   H316      1.0  0.40083  0.60256  0.35275  1.0000
  C   C420      1.0  0.36645  0.65087  0.28825  1.0000
  S   S61       1.0  0.46760  0.64567  0.30359  1.0000
  H   H317      1.0  0.07659  0.41145  0.25539  1.0000
  C   C421      1.0  0.05362  0.62887  0.32585  1.0000
  C   C422      1.0  0.05915  0.62721  0.36264  1.0000
  C   C423      1.0  0.43737  0.58085  0.41086  1.0000
  H   H318      1.0  0.11266  0.58888  0.07606  1.0000
  H   H319      1.0  0.05731  0.61055  0.37611  1.0000
  C   C424      1.0  0.16267  0.63393  0.08655  1.0000
  C   C425      1.0  0.32903  0.63597  0.24494  1.0000
  C   C426      1.0  0.12128  0.62756  0.32270  1.0000
  P   P17       1.0  0.45311  0.38883  0.05560  1.0000
  H   H320      1.0  0.02343  0.39452  0.17770  1.0000
  C   C427      1.0  0.02388  0.64431  0.45485  1.0000
  C   C428      1.0  0.10591  0.38922  0.03946  1.0000
  C   C429      1.0  0.01661  0.32993  0.45637  1.0000
  C   C430      1.0  0.03968  0.46828  0.11954  1.0000
  H   H321      1.0  0.01814  0.65095  0.04491  1.0000
  C   C431      1.0  0.01259  0.54382  0.31489  1.0000
  C   C432      1.0  0.43742  0.62784  0.22358  1.0000
  C   C433      1.0  0.45961  0.43766  0.05376  1.0000
  H   H322      1.0  0.48232  0.40033  0.11856  1.0000
  C   C434      1.0  0.11871  0.62222  0.35891  1.0000
  H   H323      1.0  0.00764  0.65455  0.28747  1.0000
  H   H324      1.0  0.00352  0.42941  0.20905  1.0000
  H   H325      1.0  0.43170  0.40463  0.20321  1.0000
  H   H326      1.0  0.40163  0.59113  0.47990  1.0000
  C   C435      1.0  0.00408  0.65079  0.09809  1.0000
  H   H327      1.0  0.12293  0.32969  0.31581  1.0000
  C   C436      1.0  0.09289  0.39968  0.06749  1.0000
  C   C437      1.0  0.45255  0.41848  0.99631  1.0000
  H   H328      1.0  0.05514  0.32602  0.01412  1.0000
  H   H329      1.0  0.03362  0.38242  0.06408  1.0000
  C   C438      1.0  0.08046  0.40027  0.23225  1.0000
  C   C439      1.0  0.21433  0.61543  0.18588  1.0000
  H   H330      1.0  0.11499  0.61541  0.30236  1.0000
  H   H331      1.0  0.17636  0.64685  0.08884  1.0000
  C   C440      1.0  0.44382  0.56941  0.37883  1.0000
  C   C441      1.0  0.02263  0.38259  0.08770  1.0000
  C   C442      1.0  0.33131  0.62799  0.28022  1.0000
  H   H332      1.0  0.15040  0.33633  0.36713  1.0000
  C   C443      1.0  0.10536  0.36485  0.03345  1.0000
  H   H333      1.0  0.17136  0.62486  0.03180  1.0000
  H   H334      1.0  0.02175  0.57098  0.35299  1.0000
  H   H335      1.0  0.44294  0.61175  0.23708  1.0000
  C   C444      1.0  0.44977  0.63542  0.19375  1.0000
  C   C445      1.0  0.46417  0.39902  0.12713  1.0000
  C   C446      1.0  0.19373  0.62155  0.16664  1.0000
  H   H336      1.0  0.46186  0.43719  0.08261  1.0000
  H   H337      1.0  0.20669  0.65137  0.25881  1.0000
  C   C447      1.0  0.10800  0.61284  0.22519  1.0000
  C   C448      1.0  0.08909  0.62880  0.23013  1.0000
  H   H338      1.0  0.18295  0.64687  0.33402  1.0000
  C   C449      1.0  0.06138  0.43076  0.12424  1.0000
  H   H339      1.0  0.07212  0.64515  0.41021  1.0000
  C   C450      1.0  0.08897  0.37058  0.17302  1.0000
  H   H340      1.0  0.43112  0.56791  0.35701  1.0000
  C   C451      1.0  0.05618  0.65052  0.30876  1.0000
  C   C452      1.0  0.06742  0.64680  0.38211  1.0000
  H   H341      1.0  0.11035  0.60606  0.36648  1.0000
  C   C453      1.0  0.43329  0.34747  0.02824  1.0000
  H   H342      1.0  0.48915  0.52713  0.45093  1.0000
  H   H343      1.0  0.11743  0.61031  0.13277  1.0000
  C   C454      1.0  0.07834  0.36135  0.08293  1.0000
  H   H344      1.0  0.40912  0.63503  0.26000  1.0000
  H   H345      1.0  0.44510  0.63656  0.44296  1.0000
  C   C455      1.0  0.01684  0.38964  0.15135  1.0000
  H   H346      1.0  0.11031  0.34949  0.20936  1.0000
  H   H347      1.0  0.46481  0.62509  0.18379  1.0000
  H   H348      1.0  0.47282  0.34876  0.09507  1.0000
  C   C456      1.0  0.17770  0.63857  0.18055  1.0000
  H   H349      1.0  0.06751  0.35030  0.09926  1.0000
  H   H350      1.0  0.09785  0.43334  0.14155  1.0000
  C   C457      1.0  0.21901  0.62621  0.21904  1.0000
  C   C458      1.0  0.00753  0.56108  0.34097  1.0000
  H   H351      1.0  0.99921  0.46659  0.17445  1.0000
  H   H352      1.0  0.12408  0.63388  0.41343  1.0000
  H   H353      1.0  0.23499  0.62144  0.23388  1.0000
  H   H354      1.0  0.19040  0.61285  0.14117  1.0000
  P   P18       1.0  0.15095  0.64688  0.15656  1.0000
  H   H355      1.0  0.10763  0.59556  0.23735  1.0000
  H   H356      1.0  0.47200  0.55181  0.34945  1.0000
  C   C459      1.0  0.46131  0.45933  0.03646  1.0000
  C   C460      1.0  0.41766  0.39605  0.15075  1.0000
  C   C461      1.0  0.48331  0.56236  0.40253  1.0000
  H   H357      1.0  0.35182  0.62931  0.32923  1.0000
  H   H358      1.0  0.07420  0.62378  0.24609  1.0000
  C   C462      1.0  0.04043  0.44366  0.11629  1.0000
  C   C463      1.0  0.03181  0.38895  0.12155  1.0000
  C   C464      1.0  0.07442  0.39092  0.16893  1.0000
  H   H359      1.0  0.47141  0.63079  0.39060  1.0000
  H   H360      1.0  0.10296  0.37598  0.26183  1.0000
  H   H361      1.0  0.99831  0.51861  0.27774  1.0000
  H   H362      1.0  0.09627  0.47688  0.14685  1.0000
  H   H363      1.0  0.05880  0.49924  0.13425  1.0000
  C   C465      1.0  0.21894  0.65727  0.33724  1.0000
  H   H364      1.0  0.40868  0.38737  0.09627  1.0000
  H   H365      1.0  0.13402  0.65207  0.28461  1.0000
  C   C466      1.0  0.42285  0.39199  0.11452  1.0000
  C   C467      1.0  0.12636  0.63797  0.38537  1.0000
  C   C468      1.0  0.10797  0.65684  0.19185  1.0000
  C   C469      1.0  0.07911  0.38577  0.08965  1.0000
  C   C470      1.0  0.40986  0.38353  0.02039  1.0000
  C   C471      1.0  0.12694  0.60115  0.07906  1.0000
  C   C472      1.0  0.14199  0.60516  0.05041  1.0000
  C   C473      1.0  0.15987  0.62154  0.05417  1.0000
  H   H366      1.0  0.47596  0.37983  0.45642  1.0000
  C   C474      1.0  0.14766  0.62992  0.11553  1.0000
  C   C475      1.0  0.12974  0.61344  0.11148  1.0000
  C   C476      1.0  0.08163  0.44296  0.13472  1.0000
  C   C477      1.0  0.08080  0.46759  0.13787  1.0000
  C   C478      1.0  0.35001  0.63545  0.30182  1.0000
  C   C479      1.0  0.03948  0.33049  0.99847  1.0000
  H   H367      1.0  0.13960  0.59577  0.02519  1.0000
  C   C480      1.0  0.12698  0.61885  0.20378  1.0000
  C   C481      1.0  0.09168  0.35092  0.05532  1.0000
  C   C482      1.0  0.45385  0.58299  0.43886  1.0000
  C   C483      1.0  0.05976  0.48022  0.13061  1.0000
  Fe  Fe30      1.0  0.03687  0.33032  0.29184  1.0000
  H   H368      1.0  0.14126  0.60601  0.19962  1.0000
  H   H369      1.0  0.08652  0.63444  0.06173  1.0000
  C   C484      1.0  0.18235  0.64908  0.21411  1.0000
  H   H370      1.0  0.02442  0.43484  0.10867  1.0000
  C   C485      1.0  0.39252  0.37082  0.00225  1.0000
  C   C486      1.0  0.45856  0.46060  0.99919  1.0000
  S   S62       1.0  0.01304  0.35636  0.32116  1.0000
  H   H371      1.0  0.03560  0.36205  0.45100  1.0000
  S   S63       1.0  0.49162  0.59205  0.23592  1.0000
  H   H372      1.0  0.01757  0.63852  0.10804  1.0000
  C   C487      1.0  0.42814  0.33468  0.14672  1.0000
  C   C488      1.0  0.01113  0.44541  0.21938  1.0000
  H   H373      1.0  0.22666  0.60227  0.17506  1.0000
  C   C489      1.0  0.45845  0.64934  0.43755  1.0000
  C   C490      1.0  0.20303  0.64303  0.23314  1.0000
  H   H374      1.0  0.45984  0.47742  0.98585  1.0000
  S   S64       1.0  0.00945  0.32656  0.16132  1.0000
  H   H375      1.0  0.40706  0.40234  0.02457  1.0000
  C   C491      1.0  0.41587  0.33484  0.01012  1.0000
  H   H376      1.0  0.42039  0.55095  0.47627  1.0000
  C   C492      1.0  0.08917  0.65088  0.21380  1.0000
  H   H377      1.0  0.05006  0.65318  0.15877  1.0000
  H   H378      1.0  0.44855  0.33787  0.03875  1.0000
  H   H379      1.0  0.41980  0.33671  0.42884  1.0000
  S   S65       1.0  0.48974  0.36806  0.23760  1.0000
  H   H380      1.0  0.43128  0.34635  0.16931  1.0000
  H   H381      1.0  0.22568  0.63953  0.34244  1.0000
  C   C493      1.0  0.40587  0.33482  0.12932  1.0000
  C   C494      1.0  0.47692  0.57362  0.43498  1.0000
  C   C495      1.0  0.46682  0.56028  0.37459  1.0000
  C   C496      1.0  0.13171  0.64857  0.31284  1.0000
  H   H382      1.0  0.03717  0.63353  0.44124  1.0000
  C   C497      1.0  0.39558  0.34650  0.99701  1.0000
  C   C498      1.0  0.03025  0.34840  0.46916  1.0000
  H   H383      1.0  0.38089  0.65631  0.30547  1.0000
  C   C499      1.0  0.07903  0.64775  0.07962  1.0000
  H   H384      1.0  0.01159  0.32932  0.42829  1.0000
  C   C500      1.0  0.34542  0.65149  0.23128  1.0000
  H   H385      1.0  0.11552  0.35669  0.01186  1.0000
  H   H386      1.0  0.45844  0.34183  0.45865  1.0000
  H   H387      1.0  0.44859  0.59219  0.46320  1.0000
  C   C501      1.0  0.48133  0.37329  0.05341  1.0000
  C   C502      1.0  0.44255  0.34696  0.47273  1.0000
  H   H388      1.0  0.47288  0.40760  0.18207  1.0000
  S   S66       1.0  0.99776  0.57679  0.23590  1.0000
  H   H389      1.0  0.46477  0.47515  0.05202  1.0000
  H   H390      1.0  0.34322  0.65741  0.20397  1.0000
  H   H391      1.0  0.00808  0.65745  0.40603  1.0000
  C   C503      1.0  0.44300  0.65657  0.17717  1.0000
  C   C504      1.0  0.00742  0.65780  0.43511  1.0000
  H   H392      1.0  0.38201  0.33661  0.98341  1.0000
  C   C505      1.0  0.99304  0.38410  0.14728  1.0000
  C   C506      1.0  0.00422  0.65777  0.06224  1.0000
  H   H393      1.0  0.45553  0.60406  0.57840  1.0000
  H   H394      1.0  0.05941  0.35869  0.86782  1.0000
  S   S67       1.0  0.40491  0.36576  0.80463  1.0000
  S   S68       1.0  0.07767  0.63843  0.55396  1.0000
  H   H395      1.0  0.47350  0.48747  0.67648  1.0000
  H   H396      1.0  0.46960  0.64492  0.57584  1.0000
  C   C507      1.0  0.47994  0.62603  0.91038  1.0000
  Fe  Fe31      1.0  0.42377  0.36647  0.75110  1.0000
  S   S69       1.0  0.40862  0.39049  0.70813  1.0000
  C   C508      1.0  0.38787  0.34464  0.86449  1.0000
  Fe  Fe32      1.0  0.46627  0.35151  0.70537  1.0000
  S   S70       1.0  0.45437  0.37486  0.66030  1.0000
  C   C509      1.0  0.48494  0.39002  0.58661  1.0000
  Fe  Fe33      1.0  0.44583  0.40287  0.70239  1.0000
  S   S71       1.0  0.45744  0.44071  0.69040  1.0000
  Fe  Fe34      1.0  0.41846  0.36067  0.67000  1.0000
  H   H397      1.0  0.43491  0.59181  0.88178  1.0000
  S   S72       1.0  0.46061  0.38019  0.74726  1.0000
  H   H398      1.0  0.99519  0.34116  0.67781  1.0000
  Fe  Fe35      1.0  0.43695  0.62195  0.70229  1.0000
  S   S73       1.0  0.40921  0.60190  0.73059  1.0000
  S   S74       1.0  0.43579  0.62864  0.64168  1.0000
  Fe  Fe36      1.0  0.46698  0.62709  0.77177  1.0000
  S   S75       1.0  0.44126  0.60677  0.80416  1.0000
  C   C510      1.0  0.45500  0.42765  0.56586  1.0000
  Fe  Fe37      1.0  0.43961  0.58151  0.75639  1.0000
  S   S76       1.0  0.43539  0.54165  0.76607  1.0000
  Fe  Fe38      1.0  0.41323  0.62835  0.77579  1.0000
  C   C511      1.0  0.49078  0.55143  0.63926  1.0000
  S   S77       1.0  0.46756  0.60051  0.72595  1.0000
  H   H399      1.0  0.02078  0.36774  0.93259  1.0000
  C   C512      1.0  0.39513  0.65729  0.63881  1.0000
  C   C513      1.0  0.44176  0.51389  0.74413  1.0000
  C   C514      1.0  0.45684  0.51154  0.71462  1.0000
  C   C515      1.0  0.46162  0.48904  0.69895  1.0000
  C   C516      1.0  0.45117  0.46858  0.71206  1.0000
  C   C517      1.0  0.43598  0.47097  0.74136  1.0000
  C   C518      1.0  0.43145  0.49340  0.75731  1.0000
  H   H400      1.0  0.46507  0.52700  0.70426  1.0000
  H   H401      1.0  0.47634  0.60093  0.86705  1.0000
  H   H402      1.0  0.42777  0.45553  0.75189  1.0000
  H   H403      1.0  0.41980  0.49488  0.78012  1.0000
  H   H404      1.0  0.34821  0.56176  0.71587  1.0000
  C   C519      1.0  0.44566  0.63195  0.94822  1.0000
  H   H405      1.0  0.03562  0.63372  0.50760  1.0000
  H   H406      1.0  0.00513  0.65746  0.53908  1.0000
  C   C520      1.0  0.25392  0.33226  0.68484  1.0000
  C   C521      1.0  0.48418  0.41095  0.60690  1.0000
  C   C522      1.0  0.47672  0.33530  0.55779  1.0000
  H   H407      1.0  0.00697  0.56399  0.81871  1.0000
  C   C523      1.0  0.41244  0.64453  0.61964  1.0000
  H   H408      1.0  0.46728  0.57479  0.53214  1.0000
  C   C524      1.0  0.44443  0.60445  0.89803  1.0000
  S   S78       1.0  0.99480  0.64727  0.66949  1.0000
  H   H409      1.0  0.04802  0.36332  0.51505  1.0000
  C   C525      1.0  0.04799  0.34385  0.87059  1.0000
  H   H410      1.0  0.39551  0.58472  0.59391  1.0000
  C   C526      1.0  0.05344  0.64089  0.58414  1.0000
  H   H411      1.0  0.33550  0.56217  0.65183  1.0000
  P   P19       1.0  0.47191  0.36077  0.52968  1.0000
  C   C527      1.0  0.01638  0.64392  0.63514  1.0000
  C   C528      1.0  0.02685  0.62202  0.62613  1.0000
  C   C529      1.0  0.04540  0.62057  0.60101  1.0000
  C   C530      1.0  0.99965  0.34102  0.95604  1.0000
  C   C531      1.0  0.43339  0.61567  0.92721  1.0000
  H   H412      1.0  0.02113  0.60626  0.63924  1.0000
  H   H413      1.0  0.05371  0.60359  0.59492  1.0000
  C   C532      1.0  0.03057  0.33131  0.52843  1.0000
  C   C533      1.0  0.38346  0.32559  0.88718  1.0000
  H   H414      1.0  0.99849  0.56854  0.88374  1.0000
  H   H415      1.0  0.19416  0.61286  0.69691  1.0000
  S   S79       1.0  0.39568  0.34914  0.62252  1.0000
  C   C534      1.0  0.99776  0.33114  0.65314  1.0000
  C   C535      1.0  0.19958  0.63094  0.69425  1.0000
  H   H416      1.0  0.01920  0.35992  0.83972  1.0000
  H   H417      1.0  0.42317  0.36743  0.55398  1.0000
  C   C536      1.0  0.18010  0.64763  0.53083  1.0000
  C   C537      1.0  0.14473  0.64305  0.56563  1.0000
  C   C538      1.0  0.47500  0.63217  0.55537  1.0000
  H   H418      1.0  0.38946  0.55025  0.73205  1.0000
  C   C539      1.0  0.42275  0.36128  0.52630  1.0000
  C   C540      1.0  0.15784  0.63802  0.53479  1.0000
  C   C541      1.0  0.44379  0.35661  0.50749  1.0000
  C   C542      1.0  0.46367  0.33326  0.58933  1.0000
  C   C543      1.0  0.39387  0.65798  0.56343  1.0000
  H   H419      1.0  0.45207  0.44118  0.95021  1.0000
  C   C544      1.0  0.34228  0.33537  0.74788  1.0000
  H   H420      1.0  0.22113  0.63024  0.74229  1.0000
  C   C545      1.0  0.36071  0.55714  0.69492  1.0000
  C   C546      1.0  0.48977  0.63872  0.52754  1.0000
  H   H421      1.0  0.21617  0.33046  0.69067  1.0000
  C   C547      1.0  0.36450  0.33214  0.73241  1.0000
  C   C548      1.0  0.45420  0.44018  0.97913  1.0000
  C   C549      1.0  0.46773  0.60958  0.88971  1.0000
  H   H422      1.0  0.38955  0.60781  0.53882  1.0000
  C   C550      1.0  0.02298  0.64437  0.49227  1.0000
  C   C551      1.0  0.46902  0.42965  0.59676  1.0000
  H   H423      1.0  0.00559  0.63662  0.96443  1.0000
  C   C552      1.0  0.02522  0.34461  0.85468  1.0000
  C   C553      1.0  0.48513  0.52893  0.62674  1.0000
  C   C554      1.0  0.47039  0.38759  0.55620  1.0000
  C   C555      1.0  0.35361  0.55743  0.65887  1.0000
  H   H424      1.0  0.46152  0.33895  0.83144  1.0000
  H   H425      1.0  0.39551  0.65712  0.66784  1.0000
  S   S80       1.0  0.43062  0.33598  0.71343  1.0000
  H   H426      1.0  0.04006  0.32603  0.77928  1.0000
  H   H427      1.0  0.15056  0.62697  0.51375  1.0000
  H   H428      1.0  0.42625  0.52734  0.53123  1.0000
  H   H429      1.0  0.43689  0.63994  0.97111  1.0000
  H   H430      1.0  0.29166  0.32895  0.68092  1.0000
  H   H431      1.0  0.44506  0.40565  0.52131  1.0000
  C   C556      1.0  0.02011  0.35404  0.95259  1.0000
  H   H432      1.0  0.45037  0.34653  0.59648  1.0000
  C   C557      1.0  0.46893  0.63752  0.93955  1.0000
  C   C558      1.0  0.39924  0.34100  0.83141  1.0000
  H   H433      1.0  0.36786  0.32531  0.56880  1.0000
  H   H434      1.0  0.47745  0.58664  0.65122  1.0000
  C   C559      1.0  0.41475  0.55812  0.50198  1.0000
  H   H435      1.0  0.36392  0.55111  0.60424  1.0000
  C   C560      1.0  0.19142  0.64440  0.66515  1.0000
  C   C561      1.0  0.03725  0.34908  0.50518  1.0000
  H   H436      1.0  0.38250  0.36236  0.87267  1.0000
  H   H437      1.0  0.17976  0.63636  0.64569  1.0000
  H   H438      1.0  0.03644  0.33208  0.55618  1.0000
  H   H439      1.0  0.19002  0.64434  0.50647  1.0000
  H   H440      1.0  0.00489  0.34227  0.74708  1.0000
  C   C562      1.0  0.40431  0.58075  0.50398  1.0000
  C   C563      1.0  0.39036  0.47302  0.56772  1.0000
  C   C564      1.0  0.39822  0.45721  0.59412  1.0000
  C   C565      1.0  0.41080  0.46543  0.62395  1.0000
  C   C566      1.0  0.41573  0.48938  0.62721  1.0000
  C   C567      1.0  0.40871  0.50526  0.60020  1.0000
  C   C568      1.0  0.39530  0.49703  0.57093  1.0000
  P   P20       1.0  0.41392  0.53634  0.60652  1.0000
  C   C569      1.0  0.39345  0.54567  0.64096  1.0000
  C   C570      1.0  0.44395  0.54161  0.62028  1.0000
  C   C571      1.0  0.44978  0.56414  0.63277  1.0000
  C   C572      1.0  0.47315  0.56910  0.64182  1.0000
  C   C573      1.0  0.45582  0.40678  0.54541  1.0000
  C   C574      1.0  0.01034  0.32553  0.85840  1.0000
  C   C575      1.0  0.46187  0.52411  0.61666  1.0000
  C   C576      1.0  0.40036  0.54518  0.67723  1.0000
  H   H441      1.0  0.37848  0.34415  0.73921  1.0000
  C   C577      1.0  0.41168  0.64499  0.58188  1.0000
  S   S81       1.0  0.43862  0.64983  0.74528  1.0000
  C   C578      1.0  0.36983  0.55139  0.63197  1.0000
  C   C579      1.0  0.40987  0.55361  0.56631  1.0000
  C   C580      1.0  0.40043  0.57679  0.56833  1.0000
  C   C581      1.0  0.39738  0.59014  0.53719  1.0000
  H   H442      1.0  0.41528  0.61175  0.93347  1.0000
  C   C582      1.0  0.38399  0.55075  0.70406  1.0000
  C   C583      1.0  0.41779  0.54469  0.53309  1.0000
  H   H443      1.0  0.38001  0.46673  0.54512  1.0000
  H   H444      1.0  0.39419  0.43865  0.59197  1.0000
  H   H445      1.0  0.41639  0.45332  0.64498  1.0000
  H   H446      1.0  0.42470  0.49558  0.65118  1.0000
  H   H447      1.0  0.38820  0.50910  0.55102  1.0000
  H   H448      1.0  0.43623  0.57792  0.63553  1.0000
  H   H449      1.0  0.12737  0.63575  0.56851  1.0000
  C   C584      1.0  0.47377  0.59255  0.53057  1.0000
  H   H450      1.0  0.05624  0.35808  0.96973  1.0000
  H   H451      1.0  0.45801  0.50670  0.60643  1.0000
  H   H452      1.0  0.41830  0.54027  0.68501  1.0000
  S   S82       1.0  0.38156  0.64756  0.80095  1.0000
  H   H453      1.0  0.46803  0.44558  0.61315  1.0000
  C   C585      1.0  0.21477  0.64073  0.71982  1.0000
  H   H454      1.0  0.38475  0.36170  0.52442  1.0000
  H   H455      1.0  0.02879  0.64877  0.78586  1.0000
  C   C586      1.0  0.48895  0.59886  0.50288  1.0000
  H   H456      1.0  0.42483  0.63523  0.56664  1.0000
  H   H457      1.0  0.25322  0.35027  0.67535  1.0000
  C   C587      1.0  0.46702  0.60910  0.55682  1.0000
  H   H458      1.0  0.33923  0.34979  0.76682  1.0000
  C   C588      1.0  0.15383  0.65770  0.59251  1.0000
  H   H459      1.0  0.41575  0.64842  0.86063  1.0000
  C   C589      1.0  0.40085  0.35799  0.50959  1.0000
  H   H460      1.0  0.37469  0.32864  0.91255  1.0000
  H   H461      1.0  0.44340  0.44223  0.55794  1.0000
  C   C590      1.0  0.04007  0.34867  0.97358  1.0000
  H   H462      1.0  0.44932  0.40280  0.98031  1.0000
  C   C591      1.0  0.00574  0.65804  0.51004  1.0000
  P   P21       1.0  0.48567  0.65799  0.96628  1.0000
  Fe  Fe39      1.0  0.45842  0.84913  0.28964  1.0000
  S   S83       1.0  0.43422  0.87236  0.32322  1.0000
  H   H463      1.0  0.00158  0.72807  0.26194  1.0000
  Fe  Fe40      1.0  0.43014  0.86003  0.22046  1.0000
  S   S84       1.0  0.40400  0.88359  0.24959  1.0000
  S   S85       1.0  0.42631  0.85483  0.16002  1.0000
  Fe  Fe41      1.0  0.43563  0.89885  0.27770  1.0000
  S   S86       1.0  0.43886  0.93868  0.29173  1.0000
  Fe  Fe42      1.0  0.40489  0.85551  0.29203  1.0000
  S   S87       1.0  0.37128  0.84033  0.31416  1.0000
  S   S88       1.0  0.46212  0.87639  0.24625  1.0000
  S   S89       1.0  0.42868  0.83120  0.26056  1.0000
  S   S90       1.0  0.33019  0.66288  0.46789  1.0000
  Fe  Fe43      1.0  0.31045  0.69339  0.44174  1.0000
  S   S91       1.0  0.33905  0.80179  0.99745  1.0000
  Fe  Fe44      1.0  0.35661  0.72111  0.43325  1.0000
  S   S92       1.0  0.38075  0.75087  0.41683  1.0000
  S   S93       1.0  0.33736  0.69583  0.39696  1.0000
  H   H464      1.0  0.44304  0.72032  0.31419  1.0000
  H   H465      1.0  0.26916  0.98991  0.21466  1.0000
  Fe  Fe45      1.0  0.08964  0.74086  0.04286  1.0000
  S   S94       1.0  0.11286  0.76766  0.06859  1.0000
  S   S95       1.0  0.06969  0.71944  0.08342  1.0000
  Fe  Fe46      1.0  0.09109  0.79431  0.03808  1.0000
  S   S96       1.0  0.07467  0.82714  0.06457  1.0000
  Fe  Fe47      1.0  0.13637  0.76436  0.01985  1.0000
  S   S97       1.0  0.17648  0.75937  0.03279  1.0000
  S   S98       1.0  0.06687  0.76785  0.01420  1.0000
  H   H466      1.0  0.48257  0.70349  0.34185  1.0000
  C   C592      1.0  0.43207  0.83459  0.01227  1.0000
  S   S99       1.0  0.36576  0.77381  0.08827  1.0000
  H   H467      1.0  0.41665  0.73893  0.08284  1.0000
  C   C593      1.0  0.20439  0.76445  0.01165  1.0000
  S   S100      1.0  0.08097  0.69323  0.38849  1.0000
  C   C594      1.0  0.24788  0.75917  0.01265  1.0000
  C   C595      1.0  0.22541  0.75543  0.02777  1.0000
  H   H468      1.0  0.26360  0.75159  0.02511  1.0000
  H   H469      1.0  0.22429  0.74528  0.05206  1.0000
  C   C596      1.0  0.07003  0.68904  0.09336  1.0000
  C   C597      1.0  0.05944  0.68211  0.12533  1.0000
  C   C598      1.0  0.34993  0.85745  0.15985  1.0000
  S   S101      1.0  0.10816  0.72507  0.47019  1.0000
  H   H470      1.0  0.05179  0.69527  0.14327  1.0000
  S   S102      1.0  0.11663  0.66720  0.47564  1.0000
  Fe  Fe48      1.0  0.35796  0.77309  0.02824  1.0000
  C   C599      1.0  0.05170  0.82422  0.09611  1.0000
  C   C600      1.0  0.03793  0.84415  0.10652  1.0000
  C   C601      1.0  0.02018  0.84241  0.13265  1.0000
  C   C602      1.0  0.01645  0.82079  0.14913  1.0000
  C   C603      1.0  0.03041  0.80099  0.13893  1.0000
  C   C604      1.0  0.04759  0.80254  0.11209  1.0000
  H   H471      1.0  0.04105  0.86102  0.09439  1.0000
  C   C605      1.0  0.38139  0.89300  0.06327  1.0000
  H   H472      1.0  0.02786  0.78431  0.15188  1.0000
  H   H473      1.0  0.05798  0.78707  0.10421  1.0000
  C   C606      1.0  0.40825  0.83279  0.14134  1.0000
  C   C607      1.0  0.40125  0.83443  0.10515  1.0000
  C   C608      1.0  0.38782  0.81675  0.08867  1.0000
  C   C609      1.0  0.38114  0.79727  0.10847  1.0000
  C   C610      1.0  0.38740  0.79601  0.14502  1.0000
  C   C611      1.0  0.40097  0.81365  0.16142  1.0000
  H   H474      1.0  0.40609  0.84954  0.08991  1.0000
  H   H475      1.0  0.38289  0.81805  0.06060  1.0000
  H   H476      1.0  0.38215  0.78108  0.16050  1.0000
  H   H477      1.0  0.40614  0.81222  0.18936  1.0000
  C   C612      1.0  0.43845  0.96580  0.26697  1.0000
  C   C613      1.0  0.13896  0.66478  0.33933  1.0000
  H   H478      1.0  0.46914  0.79168  0.38495  1.0000
  C   C614      1.0  0.43329  0.96679  0.23016  1.0000
  H   H479      1.0  0.47331  0.85630  0.06993  1.0000
  H   H480      1.0  0.42991  0.95063  0.21553  1.0000
  C   C615      1.0  0.37399  0.81489  0.34152  1.0000
  C   C616      1.0  0.35413  0.80119  0.34794  1.0000
  C   C617      1.0  0.35585  0.78118  0.37024  1.0000
  C   C618      1.0  0.37742  0.77493  0.38677  1.0000
  C   C619      1.0  0.39721  0.78862  0.38018  1.0000
  C   C620      1.0  0.39559  0.80836  0.35759  1.0000
  H   H481      1.0  0.33732  0.80614  0.33572  1.0000
  H   H482      1.0  0.34043  0.77091  0.37519  1.0000
  H   H483      1.0  0.41384  0.78430  0.39327  1.0000
  H   H484      1.0  0.41100  0.81877  0.35308  1.0000
  H   H485      1.0  0.06627  0.68682  0.31498  1.0000
  H   H486      1.0  0.41208  0.73611  0.35572  1.0000
  H   H487      1.0  0.36064  0.89722  0.11097  1.0000
  C   C621      1.0  0.05346  0.74817  0.23909  1.0000
  C   C622      1.0  0.04876  0.73788  0.20561  1.0000
  C   C623      1.0  0.05960  0.74633  0.17498  1.0000
  C   C624      1.0  0.07525  0.76492  0.17765  1.0000
  C   C625      1.0  0.08002  0.77539  0.21114  1.0000
  C   C626      1.0  0.06887  0.76699  0.24184  1.0000
  P   P22       1.0  0.09882  0.80055  0.21466  1.0000
  C   C627      1.0  0.11580  0.79804  0.25598  1.0000
  C   C628      1.0  0.11889  0.80047  0.17707  1.0000
  C   C629      1.0  0.14059  0.78778  0.17843  1.0000
  C   C630      1.0  0.15607  0.78810  0.14937  1.0000
  C   C631      1.0  0.15013  0.80121  0.11888  1.0000
  C   C632      1.0  0.12856  0.81378  0.11725  1.0000
  C   C633      1.0  0.11281  0.81307  0.14585  1.0000
  C   C634      1.0  0.11989  0.81791  0.27781  1.0000
  C   C635      1.0  0.13315  0.81564  0.30959  1.0000
  C   C636      1.0  0.14254  0.79359  0.31969  1.0000
  C   C637      1.0  0.13857  0.77377  0.29811  1.0000
  C   C638      1.0  0.12504  0.77592  0.26666  1.0000
  C   C639      1.0  0.08118  0.82771  0.21459  1.0000
  C   C640      1.0  0.05679  0.82767  0.22120  1.0000
  C   C641      1.0  0.04347  0.84884  0.22111  1.0000
  C   C642      1.0  0.05421  0.87010  0.21384  1.0000
  C   C643      1.0  0.07843  0.87031  0.20713  1.0000
  C   C644      1.0  0.09190  0.84924  0.20766  1.0000
  H   H488      1.0  0.04490  0.74183  0.26285  1.0000
  H   H489      1.0  0.03651  0.72359  0.20320  1.0000
  H   H490      1.0  0.05543  0.73889  0.14888  1.0000
  H   H491      1.0  0.08314  0.77135  0.15340  1.0000
  H   H492      1.0  0.07182  0.77522  0.26783  1.0000
  H   H493      1.0  0.14567  0.77756  0.20166  1.0000
  H   H494      1.0  0.17268  0.77814  0.15025  1.0000
  H   H495      1.0  0.16193  0.80115  0.09607  1.0000
  H   H496      1.0  0.12365  0.82348  0.09322  1.0000
  H   H497      1.0  0.09583  0.82226  0.14324  1.0000
  H   H498      1.0  0.11287  0.83517  0.27062  1.0000
  H   H499      1.0  0.13619  0.83103  0.32636  1.0000
  H   H500      1.0  0.15288  0.79186  0.34425  1.0000
  H   H501      1.0  0.14601  0.75672  0.30576  1.0000
  H   H502      1.0  0.12190  0.76036  0.25050  1.0000
  H   H503      1.0  0.04778  0.81142  0.22570  1.0000
  H   H504      1.0  0.02459  0.84870  0.22573  1.0000
  H   H505      1.0  0.04364  0.88636  0.21296  1.0000
  H   H506      1.0  0.08668  0.88680  0.20111  1.0000
  H   H507      1.0  0.11064  0.84972  0.20224  1.0000
  H   H508      1.0  0.01936  0.69594  0.29821  1.0000
  C   C645      1.0  0.44699  0.68356  0.99362  1.0000
  C   C646      1.0  0.38353  0.72131  0.32571  1.0000
  H   H509      1.0  0.32966  0.81891  0.12994  1.0000
  H   H510      1.0  0.25763  0.96023  0.16874  1.0000
  H   H511      1.0  0.04008  0.81636  0.98521  1.0000
  S   S103      1.0  0.11610  0.79366  0.99096  1.0000
  C   C647      1.0  0.28437  0.92672  0.06749  1.0000
  C   C648      1.0  0.15475  0.72233  0.11238  1.0000
  C   C649      1.0  0.13436  0.70935  0.10748  1.0000
  C   C650      1.0  0.46250  0.68104  0.06501  1.0000
  H   H512      1.0  0.15608  0.73944  0.09986  1.0000
  H   H513      1.0  0.11991  0.71639  0.09121  1.0000
  H   H514      1.0  0.22365  0.67292  0.41360  1.0000
  C   C651      1.0  0.48357  0.68931  0.22076  1.0000
  C   C652      1.0  0.23449  0.67597  0.33709  1.0000
  C   C653      1.0  0.29244  0.94394  0.16589  1.0000
  H   H515      1.0  0.10722  0.67371  0.17868  1.0000
  C   C654      1.0  0.46554  0.84499  0.04962  1.0000
  H   H516      1.0  0.44975  0.76083  0.00379  1.0000
  C   C655      1.0  0.32250  0.96120  0.20422  1.0000
  C   C656      1.0  0.31576  0.94424  0.17860  1.0000
  P   P23       1.0  0.35210  0.96087  0.22277  1.0000
  H   H517      1.0  0.34702  0.86804  0.24984  1.0000
  C   C657      1.0  0.35322  0.94330  0.26304  1.0000
  C   C658      1.0  0.37519  0.93630  0.27770  1.0000
  C   C659      1.0  0.37653  0.92121  0.30713  1.0000
  C   C660      1.0  0.35593  0.91250  0.32166  1.0000
  C   C661      1.0  0.33391  0.91950  0.30745  1.0000
  C   C662      1.0  0.33250  0.93491  0.27833  1.0000
  H   H518      1.0  0.48124  0.67852  0.24422  1.0000
  H   H519      1.0  0.39834  0.88550  0.01260  1.0000
  H   H520      1.0  0.36923  0.95415  0.36753  1.0000
  H   H521      1.0  0.44175  0.67836  0.34793  1.0000
  C   C663      1.0  0.47524  0.71278  0.22053  1.0000
  C   C664      1.0  0.37232  0.94710  0.19107  1.0000
  C   C665      1.0  0.37474  0.92239  0.18955  1.0000
  C   C666      1.0  0.39126  0.91145  0.16682  1.0000
  C   C667      1.0  0.40555  0.92501  0.14536  1.0000
  C   C668      1.0  0.40286  0.94959  0.14592  1.0000
  C   C669      1.0  0.38627  0.96064  0.16862  1.0000
  C   C670      1.0  0.17237  0.69036  0.14711  1.0000
  H   H522      1.0  0.36765  0.72852  0.23022  1.0000
  H   H523      1.0  0.08822  0.67690  0.04583  1.0000
  H   H524      1.0  0.39139  0.94206  0.26577  1.0000
  H   H525      1.0  0.32838  0.93119  0.16845  1.0000
  C   C671      1.0  0.41820  0.78626  0.47765  1.0000
  H   H526      1.0  0.05319  0.76247  0.39958  1.0000
  H   H527      1.0  0.35712  0.90007  0.34361  1.0000
  H   H528      1.0  0.31797  0.91264  0.31874  1.0000
  H   H529      1.0  0.31528  0.93978  0.26750  1.0000
  H   H530      1.0  0.48570  0.77923  0.06048  1.0000
  C   C672      1.0  0.28543  0.81335  0.05033  1.0000
  H   H531      1.0  0.39367  0.91576  0.31798  1.0000
  H   H532      1.0  0.39446  0.90544  0.07206  1.0000
  C   C673      1.0  0.40728  0.72580  0.33230  1.0000
  H   H533      1.0  0.36426  0.91155  0.20659  1.0000
  H   H534      1.0  0.39338  0.89241  0.16648  1.0000
  H   H535      1.0  0.41898  0.91642  0.12884  1.0000
  H   H536      1.0  0.41418  0.96018  0.12968  1.0000
  C   C674      1.0  0.44544  0.81611  0.99680  1.0000
  C   C675      1.0  0.44395  0.79062  0.09775  1.0000
  C   C676      1.0  0.43066  0.77357  0.08018  1.0000
  C   C677      1.0  0.42818  0.75148  0.09564  1.0000
  C   C678      1.0  0.43952  0.74618  0.12827  1.0000
  C   C679      1.0  0.45330  0.76315  0.14579  1.0000
  C   C680      1.0  0.45507  0.78557  0.13053  1.0000
  P   P24       1.0  0.46677  0.75687  0.18900  1.0000
  C   C681      1.0  0.44550  0.76229  0.22427  1.0000
  C   C682      1.0  0.31687  0.81785  0.10829  1.0000
  C   C683      1.0  0.01320  0.68517  0.98355  1.0000
  H   H537      1.0  0.27378  0.81142  0.02722  1.0000
  H   H538      1.0  0.41768  0.77013  0.46189  1.0000
  C   C684      1.0  0.32040  0.87894  0.21091  1.0000
  C   C685      1.0  0.46041  0.66935  0.45956  1.0000
  C   C686      1.0  0.45321  0.76745  0.25943  1.0000
  C   C687      1.0  0.43680  0.77284  0.28631  1.0000
  C   C688      1.0  0.41261  0.77279  0.27846  1.0000
  C   C689      1.0  0.40480  0.76735  0.24376  1.0000
  C   C690      1.0  0.42114  0.76199  0.21676  1.0000
  H   H539      1.0  0.23742  0.89787  0.10013  1.0000
  C   C691      1.0  0.29298  0.83567  0.06093  1.0000
  H   H540      1.0  0.34740  0.73265  0.11920  1.0000
  C   C692      1.0  0.44045  0.69143  0.05684  1.0000
  C   C693      1.0  0.29706  0.88896  0.09261  1.0000
  C   C694      1.0  0.20085  0.68789  0.45466  1.0000
  H   H541      1.0  0.44477  0.80813  0.08674  1.0000
  H   H542      1.0  0.42123  0.77793  0.05552  1.0000
  H   H543      1.0  0.43701  0.72915  0.14029  1.0000
  H   H544      1.0  0.46447  0.79948  0.14412  1.0000
  C   C695      1.0  0.36428  0.65911  0.25288  1.0000
  C   C696      1.0  0.24379  0.69379  0.45098  1.0000
  H   H545      1.0  0.35159  0.75146  0.17914  1.0000
  H   H546      1.0  0.40558  0.67531  0.38445  1.0000
  H   H547      1.0  0.43215  0.86392  0.04965  1.0000
  C   C697      1.0  0.43263  0.98871  0.21214  1.0000
  H   H548      1.0  0.44287  0.77781  0.31297  1.0000
  H   H549      1.0  0.39988  0.77728  0.29913  1.0000
  H   H550      1.0  0.38606  0.76789  0.23766  1.0000
  H   H551      1.0  0.41466  0.75814  0.19001  1.0000
  H   H552      1.0  0.47028  0.80504  0.21842  1.0000
  H   H553      1.0  0.11749  0.67660  0.11670  1.0000
  C   C698      1.0  0.27353  0.88477  0.10169  1.0000
  C   C699      1.0  0.25559  0.90140  0.09358  1.0000
  C   C700      1.0  0.01782  0.77890  0.46977  1.0000
  H   H554      1.0  0.06524  0.70972  0.00842  1.0000
  C   C701      1.0  0.49136  0.68341  0.42148  1.0000
  C   C702      1.0  0.42403  0.67023  0.19055  1.0000
  C   C703      1.0  0.00749  0.72402  0.11640  1.0000
  H   H555      1.0  0.26902  0.86847  0.11460  1.0000
  C   C704      1.0  0.07995  0.67179  0.07050  1.0000
  Fe  Fe49      1.0  0.09098  0.69247  0.44818  1.0000
  P   P25       1.0  0.15415  0.69103  0.32698  1.0000
  C   C705      1.0  0.14786  0.71405  0.35993  1.0000
  C   C706      1.0  0.46896  0.81185  0.00788  1.0000
  C   C707      1.0  0.20158  0.70335  0.32657  1.0000
  C   C708      1.0  0.22583  0.69896  0.33152  1.0000
  H   H556      1.0  0.24702  0.93507  0.06967  1.0000
  H   H557      1.0  0.01375  0.75047  0.07674  1.0000
  H   H558      1.0  0.38110  0.98332  0.27976  1.0000
  C   C709      1.0  0.12691  0.72787  0.35784  1.0000
  C   C710      1.0  0.12280  0.74644  0.38224  1.0000
  C   C711      1.0  0.13936  0.75112  0.40927  1.0000
  C   C712      1.0  0.15970  0.73677  0.41264  1.0000
  C   C713      1.0  0.16391  0.71829  0.38820  1.0000
  C   C714      1.0  0.14346  0.70101  0.28349  1.0000
  C   C715      1.0  0.11929  0.69991  0.27476  1.0000
  C   C716      1.0  0.11079  0.70772  0.24141  1.0000
  C   C717      1.0  0.12634  0.71656  0.21633  1.0000
  C   C718      1.0  0.15036  0.71789  0.22484  1.0000
  C   C719      1.0  0.15894  0.71010  0.25818  1.0000
  C   C720      1.0  0.36141  0.69887  0.13638  1.0000
  C   C721      1.0  0.26099  0.92234  0.07640  1.0000
  H   H559      1.0  0.01887  0.71084  0.10354  1.0000
  H   H560      1.0  0.19511  0.72142  0.32384  1.0000
  H   H561      1.0  0.23791  0.71347  0.33252  1.0000
  C   C722      1.0  0.49061  0.75777  0.45353  1.0000
  H   H562      1.0  0.46858  0.68010  0.09261  1.0000
  C   C723      1.0  0.49142  0.77618  0.19540  1.0000
  H   H563      1.0  0.11351  0.72421  0.33788  1.0000
  H   H564      1.0  0.10642  0.75676  0.38084  1.0000
  C   C724      1.0  0.44301  0.98716  0.28524  1.0000
  C   C725      1.0  0.37704  0.70763  0.29602  1.0000
  H   H565      1.0  0.17963  0.70726  0.39182  1.0000
  H   H566      1.0  0.10699  0.69293  0.29379  1.0000
  H   H567      1.0  0.09213  0.70678  0.23491  1.0000
  H   H568      1.0  0.11974  0.72249  0.19036  1.0000
  H   H569      1.0  0.16236  0.72500  0.20554  1.0000
  H   H570      1.0  0.17763  0.71116  0.26390  1.0000
  C   C726      1.0  0.38362  0.88177  0.02983  1.0000
  C   C727      1.0  0.00433  0.74625  0.10095  1.0000
  H   H571      1.0  0.40661  0.96813  0.34218  1.0000
  H   H572      1.0  0.18987  0.72262  0.13471  1.0000
  S   S104      1.0  0.11426  0.73518  0.99611  1.0000
  C   C728      1.0  0.05208  0.70166  0.99137  1.0000
  C   C729      1.0  0.17377  0.71282  0.13211  1.0000
  S   S105      1.0  0.33606  0.74401  0.00466  1.0000
  H   H573      1.0  0.48937  0.72620  0.13447  1.0000
  P   P26       1.0  0.31992  0.86685  0.10169  1.0000
  H   H574      1.0  0.30895  0.88716  0.23085  1.0000
  C   C730      1.0  0.07019  0.66833  0.36502  1.0000
  H   H575      1.0  0.18508  0.67994  0.44404  1.0000
  H   H576      1.0  0.44874  0.72257  0.41639  1.0000
  C   C731      1.0  0.99663  0.71014  0.25629  1.0000
  H   H577      1.0  0.41958  0.68693  0.17803  1.0000
  H   H578      1.0  0.00980  0.85788  0.14060  1.0000
  C   C732      1.0  0.48776  0.71613  0.15880  1.0000
  C   C733      1.0  0.36682  0.86567  0.01848  1.0000
  C   C734      1.0  0.06439  0.67016  0.32832  1.0000
  C   C735      1.0  0.35659  0.85751  0.19609  1.0000
  H   H579      1.0  0.38511  0.97971  0.16935  1.0000
  C   C736      1.0  0.02303  0.73625  0.46589  1.0000
  H   H580      1.0  0.07424  0.66304  0.21724  1.0000
  C   C737      1.0  0.47894  0.82646  0.03432  1.0000
  H   H581      1.0  0.01997  0.71896  0.47661  1.0000
  C   C738      1.0  0.42461  0.71687  0.30894  1.0000
  C   C739      1.0  0.37302  0.69619  0.19934  1.0000
  H   H582      1.0  0.42924  0.69822  0.07815  1.0000
  C   C740      1.0  0.45728  0.75696  0.39771  1.0000
  H   H583      1.0  0.35964  0.69079  0.11000  1.0000
  C   C741      1.0  0.34182  0.86820  0.22167  1.0000
  H   H584      1.0  0.36142  0.84887  0.14046  1.0000
  C   C742      1.0  0.99438  0.84756  0.45382  1.0000
  H   H585      1.0  0.46724  0.72010  0.24458  1.0000
  C   C743      1.0  0.35686  0.73306  0.17541  1.0000
  H   H586      1.0  0.33476  0.84865  0.03074  1.0000
  C   C744      1.0  0.35452  0.72250  0.14154  1.0000
  H   H587      1.0  0.35854  0.70401  0.29167  1.0000
  C   C745      1.0  0.47706  0.68648  0.45186  1.0000
  C   C746      1.0  0.32837  0.86791  0.14874  1.0000
  C   C747      1.0  0.45979  0.73768  0.42071  1.0000
  S   S106      1.0  0.27085  0.68919  0.42683  1.0000
  H   H588      1.0  0.13592  0.76513  0.42873  1.0000
  C   C748      1.0  0.30915  0.79560  0.09772  1.0000
  H   H589      1.0  0.37592  0.66743  0.16063  1.0000
  H   H590      1.0  0.44462  0.75664  0.37583  1.0000
  C   C749      1.0  0.37348  0.97261  0.36987  1.0000
  H   H591      1.0  0.28732  0.93085  0.14617  1.0000
  C   C750      1.0  0.36602  0.71997  0.20427  1.0000
  H   H592      1.0  0.37320  0.84912  0.20440  1.0000
  H   H593      1.0  0.43193  0.69551  0.26227  1.0000
  C   C751      1.0  0.03216  0.78100  0.43947  1.0000
  C   C752      1.0  0.34529  0.87206  0.07408  1.0000
  C   C753      1.0  0.34767  0.86092  0.04040  1.0000
  C   C754      1.0  0.29357  0.79333  0.06869  1.0000
  C   C755      1.0  0.39435  0.69821  0.27274  1.0000
  C   C756      1.0  0.41821  0.70296  0.27933  1.0000
  C   C757      1.0  0.03724  0.73847  0.43576  1.0000
  H   H594      1.0  0.18769  0.68307  0.16105  1.0000
  H   H595      1.0  0.37018  0.72818  0.34405  1.0000
  C   C758      1.0  0.36229  0.88819  0.08534  1.0000
  C   C759      1.0  0.13296  0.68686  0.12218  1.0000
  H   H596      1.0  0.99766  0.85387  0.03138  1.0000
  C   C760      1.0  0.43273  0.66184  0.34864  1.0000
  S   S107      1.0  0.99555  0.81757  0.18380  1.0000
  C   C761      1.0  0.15178  0.67727  0.14253  1.0000
  H   H597      1.0  0.00294  0.85671  0.47565  1.0000
  C   C762      1.0  0.37061  0.68574  0.16512  1.0000
  H   H598      1.0  0.41574  0.70109  0.01460  1.0000
  H   H599      1.0  0.38666  0.80104  0.45288  1.0000
  H   H600      1.0  0.28708  0.85086  0.04552  1.0000
  C   C763      1.0  0.31361  0.87872  0.17461  1.0000
  H   H601      1.0  0.25319  0.67278  0.34256  1.0000
  C   C764      1.0  0.13641  0.65921  0.37570  1.0000
  P   P27       1.0  0.38572  0.67920  0.23599  1.0000
  H   H602      1.0  0.45276  0.66250  0.15429  1.0000
  C   C765      1.0  0.30863  0.83815  0.09025  1.0000
  C   C766      1.0  0.99607  0.71881  0.14837  1.0000
  C   C767      1.0  0.22284  0.68388  0.43747  1.0000
  H   H603      1.0  0.47189  0.76798  0.26598  1.0000
  H   H604      1.0  0.03589  0.79825  0.42903  1.0000
  C   C768      1.0  0.19465  0.66158  0.33251  1.0000
  H   H605      1.0  0.32029  0.91381  0.06802  1.0000
  H   H606      1.0  0.28826  0.77601  0.05983  1.0000
  H   H607      1.0  0.31596  0.77997  0.11125  1.0000
  H   H608      1.0  0.44861  0.67143  0.48212  1.0000
  H   H609      1.0  0.04500  0.72284  0.42304  1.0000
  C   C769      1.0  0.46858  0.67194  0.00176  1.0000
  C   C770      1.0  0.47663  0.67147  0.03759  1.0000
  Fe  Fe50      1.0  0.35815  0.66742  0.42599  1.0000
  C   C771      1.0  0.47631  0.73801  0.44915  1.0000
  C   C772      1.0  0.27568  0.96046  0.17870  1.0000
  H   H610      1.0  0.29680  0.88681  0.16709  1.0000
  S   S108      1.0  0.48434  0.82072  0.31060  1.0000
  C   C773      1.0  0.18572  0.68472  0.32741  1.0000
  S   S109      1.0  0.38680  0.76828  0.98802  1.0000
  H   H611      1.0  0.28854  0.94288  0.05391  1.0000
  C   C774      1.0  0.39457  0.98048  0.35571  1.0000
  C   C775      1.0  0.44222  0.84919  0.03833  1.0000
  S   S110      1.0  0.32849  0.72095  0.47601  1.0000
  H   H612      1.0  0.44739  0.98673  0.31355  1.0000
  H   H613      1.0  0.99719  0.76779  0.21838  1.0000
  P   P28       1.0  0.47914  0.71303  0.47900  1.0000
  C   C776      1.0  0.43281  0.69293  0.02112  1.0000
  C   C777      1.0  0.47113  0.77672  0.40282  1.0000
  H   H614      1.0  0.17197  0.73957  0.43477  1.0000
  C   C778      1.0  0.03043  0.69539  0.00569  1.0000
  H   H615      1.0  0.31014  0.99031  0.23790  1.0000
  C   C779      1.0  0.30237  0.91013  0.07557  1.0000
  H   H616      1.0  0.02716  0.69885  0.03390  1.0000
  S   S111      1.0  0.37885  0.69245  0.45988  1.0000
  C   C780      1.0  0.04188  0.76083  0.42262  1.0000
  C   C781      1.0  0.47730  0.72642  0.18952  1.0000
  C   C782      1.0  0.35794  0.98855  0.38709  1.0000
  H   H617      1.0  0.34157  0.98242  0.39800  1.0000
  H   H618      1.0  0.99651  0.80062  0.26201  1.0000
  H   H619      1.0  0.16999  0.66202  0.22542  1.0000
  C   C783      1.0  0.30546  0.97747  0.21746  1.0000
  C   C784      1.0  0.28218  0.97719  0.20452  1.0000
  H   H620      1.0  0.42980  0.73132  0.47610  1.0000
  C   C785      1.0  0.41095  0.66220  0.21965  1.0000
  H   H621      1.0  0.07553  0.84029  0.98971  1.0000
  H   H622      1.0  0.42884  0.98915  0.18366  1.0000
  H   H623      1.0  0.14208  0.67125  0.39666  1.0000
  C   C786      1.0  0.36090  0.99089  0.23118  1.0000
  C   C787      1.0  0.48958  0.66319  0.39984  1.0000
  H   H624      1.0  0.36856  0.85687  0.99255  1.0000
  C   C788      1.0  0.48789  0.77704  0.43056  1.0000
  C   C789      1.0  0.00675  0.69198  0.27703  1.0000
  H   H625      1.0  0.00246  0.78675  0.00772  1.0000
  C   C790      1.0  0.41235  0.66009  0.36962  1.0000
  H   H626      1.0  0.99873  0.70146  0.15982  1.0000
  C   C791      1.0  0.48773  0.79890  0.21021  1.0000
  H   H627      1.0  0.41401  0.83787  0.00325  1.0000
  P   P29       1.0  0.48777  0.79118  0.98377  1.0000
  H   H628      1.0  0.01547  0.74594  0.99332  1.0000
  C   C792      1.0  0.40079  0.80384  0.47221  1.0000
  C   C793      1.0  0.00024  0.66868  0.27104  1.0000
  C   C794      1.0  0.24231  0.70776  0.48217  1.0000
  C   C795      1.0  0.05847  0.65820  0.13429  1.0000
  C   C796      1.0  0.38320  0.66443  0.84127  1.0000
  H   H629      1.0  0.00284  0.84520  0.89181  1.0000
  H   H630      1.0  0.45479  0.81828  0.66420  1.0000
  C   C797      1.0  0.23453  0.69010  0.60305  1.0000
  Fe  Fe51      1.0  0.08397  0.72252  0.51722  1.0000
  S   S112      1.0  0.05857  0.75029  0.54038  1.0000
  S   S113      1.0  0.35485  0.68877  0.56060  1.0000
  S   S114      1.0  0.10941  0.69969  0.54859  1.0000
  Fe  Fe52      1.0  0.00920  0.89204  0.71369  1.0000
  H   H631      1.0  0.39728  0.73058  0.51920  1.0000
  H   H632      1.0  0.04803  0.73288  0.65051  1.0000
  Fe  Fe53      1.0  0.03726  0.84751  0.68784  1.0000
  S   S115      1.0  0.01736  0.82325  0.72294  1.0000
  S   S116      1.0  0.06815  0.83350  0.65445  1.0000
  C   C798      1.0  0.04987  0.81482  0.51528  1.0000
  Fe  Fe54      1.0  0.02108  0.85114  0.76563  1.0000
  S   S117      1.0  0.02966  0.84546  0.82518  1.0000
  H   H633      1.0  0.02829  0.98364  0.80395  1.0000
  S   S118      1.0  0.04340  0.87442  0.73186  1.0000
  H   H634      1.0  0.03683  0.73509  0.80338  1.0000
  P   P30       1.0  0.18786  0.68577  0.62451  1.0000
  S   S119      1.0  0.07966  0.76044  0.91145  1.0000
  Fe  Fe55      1.0  0.36363  0.74152  0.96114  1.0000
  S   S120      1.0  0.34472  0.76819  0.92569  1.0000
  S   S121      1.0  0.38506  0.70803  0.94638  1.0000
  C   C799      1.0  0.22026  0.71211  0.49891  1.0000
  C   C800      1.0  0.03582  0.71618  0.79942  1.0000
  C   C801      1.0  0.09023  0.67985  0.67318  1.0000
  Fe  Fe56      1.0  0.36678  0.79495  0.95501  1.0000
  S   S122      1.0  0.38667  0.82603  0.93240  1.0000
  C   C802      1.0  0.37668  0.67087  0.58259  1.0000
  S   S123      1.0  0.46777  0.82004  0.81461  1.0000
  C   C803      1.0  0.38408  0.69180  0.90541  1.0000
  C   C804      1.0  0.36566  0.69502  0.88052  1.0000
  C   C805      1.0  0.40180  0.66140  0.86596  1.0000
  C   C806      1.0  0.48174  0.85018  0.51360  1.0000
  H   H635      1.0  0.27852  0.78140  0.87740  1.0000
  C   C807      1.0  0.40212  0.67492  0.89795  1.0000
  H   H636      1.0  0.35167  0.70784  0.88613  1.0000
  H   H637      1.0  0.44485  0.67539  0.66734  1.0000
  C   C808      1.0  0.49203  0.78706  0.59390  1.0000
  C   C809      1.0  0.41131  0.82391  0.90305  1.0000
  C   C810      1.0  0.42009  0.80219  0.88996  1.0000
  C   C811      1.0  0.43813  0.80146  0.86409  1.0000
  C   C812      1.0  0.44780  0.82227  0.85115  1.0000
  C   C813      1.0  0.43977  0.84395  0.86538  1.0000
  C   C814      1.0  0.42157  0.84474  0.89110  1.0000
  H   H638      1.0  0.41252  0.78599  0.89896  1.0000
  H   H639      1.0  0.44435  0.78467  0.85342  1.0000
  H   H640      1.0  0.44690  0.86014  0.85558  1.0000
  H   H641      1.0  0.41495  0.86164  0.90104  1.0000
  H   H642      1.0  0.44301  0.76722  0.78642  1.0000
  C   C815      1.0  0.45844  0.75330  0.60786  1.0000
  H   H643      1.0  0.43410  0.72410  0.90576  1.0000
  H   H644      1.0  0.22997  0.79146  0.94077  1.0000
  C   C816      1.0  0.04471  0.82178  0.84760  1.0000
  C   C817      1.0  0.04885  0.79968  0.83132  1.0000
  C   C818      1.0  0.05942  0.78101  0.85121  1.0000
  C   C819      1.0  0.06660  0.78440  0.88715  1.0000
  C   C820      1.0  0.06290  0.80659  0.90308  1.0000
  C   C821      1.0  0.05180  0.82506  0.88357  1.0000
  H   H645      1.0  0.04378  0.79698  0.80354  1.0000
  H   H646      1.0  0.06218  0.76389  0.83876  1.0000
  H   H647      1.0  0.06859  0.80945  0.93050  1.0000
  H   H648      1.0  0.04888  0.84210  0.89641  1.0000
  C   C822      1.0  0.46063  0.68440  0.67574  1.0000
  H   H649      1.0  0.07123  0.85492  0.57518  1.0000
  H   H650      1.0  0.02890  0.86692  0.57668  1.0000
  H   H651      1.0  0.30684  0.71039  0.87671  1.0000
  H   H652      1.0  0.15491  0.71629  0.58492  1.0000
  C   C823      1.0  0.06212  0.77110  0.57560  1.0000
  C   C824      1.0  0.04176  0.78128  0.59137  1.0000
  C   C825      1.0  0.04342  0.79960  0.61698  1.0000
  C   C826      1.0  0.06552  0.80827  0.62647  1.0000
  C   C827      1.0  0.08595  0.79771  0.61137  1.0000
  C   C828      1.0  0.08428  0.77913  0.58607  1.0000
  H   H653      1.0  0.02458  0.77553  0.58275  1.0000
  H   H654      1.0  0.02757  0.80778  0.62810  1.0000
  H   H655      1.0  0.10309  0.80449  0.61834  1.0000
  H   H656      1.0  0.09997  0.77200  0.57321  1.0000
  H   H657      1.0  0.44084  0.68490  0.96605  1.0000
  C   C829      1.0  0.00688  0.95937  0.72622  1.0000
  C   C830      1.0  0.01716  0.96074  0.76053  1.0000
  C   C831      1.0  0.04232  0.66265  0.59209  1.0000
  H   H658      1.0  0.03713  0.67358  0.73396  1.0000
  C   C832      1.0  0.46994  0.76279  0.72115  1.0000
  C   C833      1.0  0.46193  0.74926  0.90281  1.0000
  C   C834      1.0  0.46392  0.86753  0.63085  1.0000
  C   C835      1.0  0.36508  0.68114  0.84888  1.0000
  H   H659      1.0  0.44187  0.69235  0.59360  1.0000
  H   H660      1.0  0.41642  0.67219  0.91699  1.0000
  H   H661      1.0  0.20633  0.66980  0.55347  1.0000
  C   C836      1.0  0.01498  0.75114  0.93619  1.0000
  C   C837      1.0  0.48659  0.68488  0.90365  1.0000
  C   C838      1.0  0.21094  0.72645  0.60319  1.0000
  S   S124      1.0  0.49133  0.87266  0.74781  1.0000
  H   H662      1.0  0.11054  0.74588  0.66768  1.0000
  C   C839      1.0  0.13860  0.72211  0.68564  1.0000
  C   C840      1.0  0.49230  0.82170  0.92673  1.0000
  C   C841      1.0  0.01783  0.68176  0.94683  1.0000
  H   H663      1.0  0.45742  0.94114  0.89579  1.0000
  H   H664      1.0  0.39364  0.65831  0.53438  1.0000
  C   C842      1.0  0.06626  0.95566  0.70888  1.0000
  H   H665      1.0  0.00332  0.75419  0.50719  1.0000
  Fe  Fe57      1.0  0.34962  0.69030  0.49970  1.0000
  Fe  Fe58      1.0  0.09098  0.66948  0.52219  1.0000
  C   C843      1.0  0.43690  0.81066  0.52310  1.0000
  C   C844      1.0  0.07880  0.74768  0.76774  1.0000
  C   C845      1.0  0.36805  0.69329  0.73141  1.0000
  C   C846      1.0  0.00268  0.71384  0.69276  1.0000
  H   H666      1.0  0.23358  0.67160  0.73622  1.0000
  H   H667      1.0  0.22894  0.75749  0.58682  1.0000
  C   C847      1.0  0.34835  0.70381  0.71447  1.0000
  H   H668      1.0  0.47321  0.67356  0.89259  1.0000
  H   H669      1.0  0.10193  0.66493  0.67920  1.0000
  H   H670      1.0  0.01080  0.69658  0.68767  1.0000
  C   C848      1.0  0.01839  0.84059  0.53783  1.0000
  C   C849      1.0  0.47533  0.76568  0.92183  1.0000
  C   C850      1.0  0.07746  0.69121  0.70062  1.0000
  H   H671      1.0  0.07996  0.68528  0.72794  1.0000
  H   H672      1.0  0.46403  0.69339  0.78181  1.0000
  C   C851      1.0  0.16389  0.70528  0.63894  1.0000
  C   C852      1.0  0.05867  0.84605  0.55790  1.0000
  C   C853      1.0  0.45291  0.83685  0.58831  1.0000
  C   C854      1.0  0.01531  0.73155  0.71048  1.0000
  C   C855      1.0  0.43631  0.78966  0.50282  1.0000
  H   H673      1.0  0.19445  0.73615  0.60727  1.0000
  H   H674      1.0  0.02890  0.72644  0.58651  1.0000
  H   H675      1.0  0.01418  0.76186  0.88095  1.0000
  C   C856      1.0  0.05963  0.71798  0.65715  1.0000
  C   C857      1.0  0.01014  0.72510  0.58153  1.0000
  C   C858      1.0  0.30560  0.72773  0.86474  1.0000
  C   C859      1.0  0.29112  0.74534  0.88019  1.0000
  C   C860      1.0  0.28958  0.76774  0.86494  1.0000
  C   C861      1.0  0.30254  0.77256  0.83423  1.0000
  C   C862      1.0  0.31748  0.75506  0.81886  1.0000
  C   C863      1.0  0.31874  0.73255  0.83421  1.0000
  P   P31       1.0  0.33428  0.76157  0.77927  1.0000
  C   C864      1.0  0.31398  0.77509  0.74735  1.0000
  C   C865      1.0  0.35816  0.78114  0.78963  1.0000
  C   C866      1.0  0.37739  0.78229  0.76613  1.0000
  C   C867      1.0  0.39539  0.79821  0.77282  1.0000
  C   C868      1.0  0.39425  0.81318  0.80279  1.0000
  C   C869      1.0  0.37546  0.81184  0.82662  1.0000
  C   C870      1.0  0.35757  0.79580  0.82029  1.0000
  C   C871      1.0  0.32082  0.79398  0.72608  1.0000
  C   C872      1.0  0.30485  0.80426  0.70152  1.0000
  C   C873      1.0  0.28199  0.79577  0.69802  1.0000
  C   C874      1.0  0.27507  0.77696  0.71907  1.0000
  C   C875      1.0  0.29098  0.76665  0.74365  1.0000
  C   C876      1.0  0.34724  0.73482  0.76013  1.0000
  C   C877      1.0  0.36712  0.72418  0.77680  1.0000
  C   C878      1.0  0.37753  0.70360  0.76234  1.0000
  C   C879      1.0  0.48221  0.79775  0.69012  1.0000
  H   H676      1.0  0.48802  0.85088  0.59379  1.0000
  C   C880      1.0  0.33797  0.72454  0.72869  1.0000
  C   C881      1.0  0.17634  0.66720  0.58901  1.0000
  H   H677      1.0  0.28124  0.74175  0.90424  1.0000
  C   C882      1.0  0.99972  0.98063  0.70941  1.0000
  H   H678      1.0  0.30109  0.79002  0.82273  1.0000
  H   H679      1.0  0.32975  0.71863  0.82276  1.0000
  H   H680      1.0  0.37837  0.77105  0.74246  1.0000
  H   H681      1.0  0.41026  0.79910  0.75485  1.0000
  H   H682      1.0  0.40803  0.82573  0.80770  1.0000
  H   H683      1.0  0.37482  0.82322  0.85023  1.0000
  H   H684      1.0  0.34343  0.79508  0.83946  1.0000
  H   H685      1.0  0.33837  0.80091  0.72841  1.0000
  H   H686      1.0  0.31017  0.81889  0.68526  1.0000
  H   H687      1.0  0.26962  0.80380  0.67905  1.0000
  H   H688      1.0  0.25733  0.77042  0.71643  1.0000
  H   H689      1.0  0.28535  0.75206  0.75975  1.0000
  H   H690      1.0  0.37428  0.73157  0.80139  1.0000
  C   C883      1.0  0.44012  0.74128  0.95655  1.0000
  P   P32       1.0  0.04459  0.72456  0.72733  1.0000
  H   H691      1.0  0.35049  0.68315  0.83016  1.0000
  H   H692      1.0  0.32272  0.73229  0.71511  1.0000
  C   C884      1.0  0.08233  0.96491  0.73364  1.0000
  C   C885      1.0  0.00404  0.75344  0.71773  1.0000
  Fe  Fe59      1.0  0.13286  0.69982  0.49958  1.0000
  C   C886      1.0  0.00418  0.78139  0.97984  1.0000
  C   C887      1.0  0.05887  0.84845  0.98127  1.0000
  H   H693      1.0  0.99492  0.80762  0.56898  1.0000
  C   C888      1.0  0.45546  0.71395  0.51127  1.0000
  C   C889      1.0  0.44105  0.78741  0.68914  1.0000
  C   C890      1.0  0.03476  0.85271  0.55887  1.0000
  H   H694      1.0  0.44993  0.77601  0.50617  1.0000
  H   H695      1.0  0.16749  0.69779  0.69579  1.0000
  H   H696      1.0  0.37579  0.67689  0.72103  1.0000
  C   C891      1.0  0.44096  0.86845  0.64425  1.0000
  C   C892      1.0  0.00208  0.71042  0.55389  1.0000
  H   H697      1.0  0.07354  0.70290  0.94409  1.0000
  C   C893      1.0  0.09253  0.76693  0.77732  1.0000
  H   H698      1.0  0.01299  0.76713  0.73252  1.0000
  H   H699      1.0  0.04796  0.67835  0.57882  1.0000
  C   C894      1.0  0.05701  0.96984  0.68141  1.0000
  C   C895      1.0  0.02576  0.82137  0.51605  1.0000
  C   C896      1.0  0.12547  0.73463  0.65979  1.0000
  H   H700      1.0  0.08127  0.73140  0.78240  1.0000
  H   H701      1.0  0.08943  0.95387  0.75494  1.0000
  C   C897      1.0  0.43316  0.72375  0.50218  1.0000
  S   S125      1.0  0.27792  0.77837  0.96113  1.0000
  P   P33       1.0  0.46110  0.81565  0.55385  1.0000
  H   H702      1.0  0.00821  0.77441  0.80797  1.0000
  Fe  Fe60      1.0  0.09299  0.76480  0.96936  1.0000
  H   H703      1.0  0.19056  0.78447  0.96705  1.0000
  C   C898      1.0  0.48783  0.77774  0.71036  1.0000
  C   C899      1.0  0.08991  0.78808  0.75866  1.0000
  Fe  Fe61      1.0  0.31829  0.77261  0.97143  1.0000
  C   C900      1.0  0.06202  0.74961  0.73976  1.0000
  C   C901      1.0  0.08773  0.68755  0.63783  1.0000
  C   C902      1.0  0.15055  0.71785  0.61317  1.0000
  C   C903      1.0  0.48240  0.67813  0.66056  1.0000
  H   H704      1.0  0.01499  0.70087  0.53778  1.0000
  C   C904      1.0  0.08889  0.98845  0.73123  1.0000
  H   H705      1.0  0.06062  0.93761  0.71123  1.0000
  C   C905      1.0  0.44438  0.73701  0.92021  1.0000
  C   C906      1.0  0.03619  0.68166  0.76046  1.0000
  H   H706      1.0  0.07120  0.71320  0.60260  1.0000
  H   H707      1.0  0.13383  0.72373  0.71368  1.0000
  C   C907      1.0  0.06148  0.70985  0.69255  1.0000
  C   C908      1.0  0.46941  0.78939  0.57841  1.0000
  C   C909      1.0  0.07403  0.78978  0.72983  1.0000
  H   H708      1.0  0.42100  0.84572  0.52958  1.0000
  H   H709      1.0  0.46696  0.86149  0.52172  1.0000
  H   H710      1.0  0.07227  0.80615  0.71525  1.0000
  H   H711      1.0  0.09722  0.67836  0.61652  1.0000
  H   H712      1.0  0.04857  0.77217  0.69697  1.0000
  H   H713      1.0  0.47521  0.69402  0.55149  1.0000
  H   H714      1.0  0.40627  0.85394  0.64084  1.0000
  C   C910      1.0  0.41783  0.71223  0.55963  1.0000
  C   C911      1.0  0.45847  0.70253  0.54439  1.0000
  C   C912      1.0  0.45251  0.77250  0.58594  1.0000
  H   H715      1.0  0.08468  0.82164  0.53609  1.0000
  H   H716      1.0  0.03506  0.90171  0.95695  1.0000
  C   C913      1.0  0.45435  0.97829  0.90897  1.0000
  C   C914      1.0  0.03867  0.83488  0.97853  1.0000
  C   C915      1.0  0.13146  0.73245  0.62360  1.0000
  H   H717      1.0  0.07331  0.88288  0.97564  1.0000
  P   P34       1.0  0.47718  0.73681  0.74695  1.0000
  H   H718      1.0  0.39257  0.69514  0.77568  1.0000
  C   C916      1.0  0.03953  0.70596  0.76534  1.0000
  H   H719      1.0  0.40320  0.71146  0.57809  1.0000
  H   H720      1.0  0.04352  0.68457  0.90474  1.0000
  H   H721      1.0  0.04430  0.96262  0.66259  1.0000
  S   S126      1.0  0.00489  0.86667  0.66641  1.0000
  C   C917      1.0  0.03062  0.70208  0.82868  1.0000
  C   C918      1.0  0.37743  0.67047  0.62035  1.0000
  S   S127      1.0  0.17201  0.70914  0.50760  1.0000
  H   H722      1.0  0.10488  0.76564  0.79972  1.0000
  H   H723      1.0  0.44524  0.74060  0.61427  1.0000
  H   H724      1.0  0.43460  0.77439  0.57566  1.0000
  H   H725      1.0  0.41684  0.82546  0.59248  1.0000
  C   C919      1.0  0.42398  0.85341  0.63008  1.0000
  C   C920      1.0  0.02417  0.66419  0.61779  1.0000
  C   C921      1.0  0.23056  0.73871  0.59173  1.0000
  C   C922      1.0  0.46361  0.95865  0.89026  1.0000
  S   S128      1.0  0.00324  0.93191  0.70249  1.0000
  C   C923      1.0  0.46993  0.85175  0.60307  1.0000
  H   H726      1.0  0.47418  0.81769  0.91998  1.0000
  H   H727      1.0  0.01618  0.68122  0.62434  1.0000
  H   H728      1.0  0.12115  0.74190  0.60349  1.0000
  C   C924      1.0  0.42004  0.82876  0.51610  1.0000
  H   H729      1.0  0.43756  0.80585  0.97531  1.0000
  C   C925      1.0  0.45482  0.73073  0.77932  1.0000
  C   C926      1.0  0.25401  0.70235  0.59114  1.0000
  H   H730      1.0  0.10015  0.80321  0.76652  1.0000
  C   C927      1.0  0.41455  0.72319  0.52650  1.0000
  H   H731      1.0  0.48916  0.97877  0.68994  1.0000
  C   C928      1.0  0.44066  0.74905  0.79411  1.0000
  C   C929      1.0  0.42361  0.74404  0.81965  1.0000
  C   C930      1.0  0.42110  0.72088  0.83123  1.0000
  C   C931      1.0  0.43576  0.70275  0.81753  1.0000
  C   C932      1.0  0.03976  0.68755  0.93286  1.0000
  H   H732      1.0  0.00046  0.74951  0.62393  1.0000
  C   C933      1.0  0.43967  0.70158  0.56837  1.0000
  C   C934      1.0  0.06037  0.77055  0.71997  1.0000
  C   C935      1.0  0.01161  0.75822  0.97183  1.0000
  C   C936      1.0  0.45888  0.80267  0.67970  1.0000
  C   C937      1.0  0.44657  0.76743  0.70970  1.0000
  C   C938      1.0  0.42999  0.83745  0.60248  1.0000
  H   H733      1.0  0.02289  0.94470  0.77390  1.0000
  S   S129      1.0  0.06457  0.69215  0.49266  1.0000
  H   H734      1.0  0.26707  0.73602  0.57572  1.0000
  H   H735      1.0  0.44218  0.70632  0.71404  1.0000
  C   C939      1.0  0.00331  0.79030  0.91633  1.0000
  C   C940      1.0  0.02026  0.98295  0.77751  1.0000
  H   H736      1.0  0.34102  0.69571  0.69048  1.0000
  H   H737      1.0  0.41254  0.75815  0.83086  1.0000
  H   H738      1.0  0.40791  0.71700  0.85100  1.0000
  C   C941      1.0  0.47066  0.77046  0.95820  1.0000
  H   H739      1.0  0.48826  0.70496  0.85505  1.0000
  H   H740      1.0  0.05611  0.79965  0.49985  1.0000
  C   C942      1.0  0.05679  0.69772  0.95506  1.0000
  C   C943      1.0  0.25203  0.72665  0.58548  1.0000
  H   H741      1.0  0.42301  0.79110  0.68059  1.0000
  H   H742      1.0  0.43266  0.75564  0.71670  1.0000
  C   C944      1.0  0.48412  0.82699  0.52636  1.0000
  C   C945      1.0  0.07282  0.70693  0.62994  1.0000
  H   H743      1.0  0.02801  0.71015  0.85490  1.0000
  C   C946      1.0  0.15774  0.70745  0.67533  1.0000
  C   C947      1.0  0.45261  0.70765  0.79177  1.0000
  H   H744      1.0  0.14328  0.66158  0.61605  1.0000
  C   C948      1.0  0.22887  0.78131  0.96508  1.0000
  C   C949      1.0  0.45922  0.70184  0.70248  1.0000
  C   C950      1.0  0.06623  0.82725  0.53591  1.0000
  H   H745      1.0  0.43413  0.68480  0.82670  1.0000
  H   H746      1.0  0.43649  0.88059  0.66601  1.0000
  H   H747      1.0  0.46530  0.74591  0.87461  1.0000
  H   H748      1.0  0.27061  0.69296  0.58586  1.0000
  H   H749      1.0  0.47731  0.87869  0.64249  1.0000
  C   C951      1.0  0.48122  0.75076  0.62227  1.0000
  C   C952      1.0  0.19934  0.70235  0.48532  1.0000
  C   C953      1.0  0.40185  0.82519  0.49112  1.0000
  H   H750      1.0  0.02152  0.73349  0.93007  1.0000
  H   H751      1.0  0.25808  0.71564  0.49295  1.0000
  H   H752      1.0  0.21935  0.72339  0.52239  1.0000
  C   C954      1.0  0.01716  0.84519  0.96685  1.0000
  H   H753      1.0  0.21917  0.69561  0.68510  1.0000
  H   H754      1.0  0.99989  0.84588  0.53925  1.0000
  C   C955      1.0  0.03120  0.66754  0.78983  1.0000
  C   C956      1.0  0.21275  0.70200  0.60881  1.0000
  H   H755      1.0  0.42644  0.73187  0.96988  1.0000
  C   C957      1.0  0.45326  0.75782  0.97557  1.0000
  C   C958      1.0  0.47967  0.71309  0.71446  1.0000
  C   C959      1.0  0.02860  0.67771  0.82398  1.0000
  H   H756      1.0  0.48575  0.73596  0.63936  1.0000
  H   H757      1.0  0.02441  0.66674  0.84656  1.0000
  H   H758      1.0  0.44084  0.97601  0.92893  1.0000
  C   C960      1.0  0.01586  0.86952  0.95992  1.0000
  H   H759      1.0  0.36426  0.68048  0.63539  1.0000
  C   C961      1.0  0.01078  0.76713  0.90849  1.0000
  H   H760      1.0  0.00447  0.67472  0.92899  1.0000
  H   H761      1.0  0.48346  0.66407  0.64063  1.0000
  C   C962      1.0  0.18937  0.66211  0.55783  1.0000
  H   H762      1.0  0.48926  0.77449  0.90802  1.0000
  C   C963      1.0  0.03607  0.88305  0.96290  1.0000
  P   P35       1.0  0.00432  0.80501  0.49011  1.0000
  C   C964      1.0  0.19850  0.66779  0.66138  1.0000
  H   H763      1.0  0.38873  0.83906  0.48596  1.0000
  C   C965      1.0  0.05760  0.87248  0.97339  1.0000
  H   H764      1.0  0.00100  0.80244  0.89436  1.0000
  C   C966      1.0  0.48056  0.96162  0.86383  1.0000
  C   C967      1.0  0.99410  0.73801  0.60271  1.0000
  H   H765      1.0  0.23635  0.67124  0.60721  1.0000
  C   C968      1.0  0.21365  0.67754  0.68734  1.0000
  C   C969      1.0  0.24989  0.77237  0.98127  1.0000
  C   C970      1.0  0.99982  0.79763  0.95211  1.0000
  H   H766      1.0  0.48747  0.94651  0.84865  1.0000
  H   H767      1.0  0.99929  0.87804  0.95195  1.0000
  C   C971      1.0  0.48847  0.98416  0.85643  1.0000
  H   H768      1.0  0.99283  0.81509  0.79729  1.0000
  C   C972      1.0  0.20636  0.77735  0.97998  1.0000
  C   C973      1.0  0.01348  0.75635  0.48304  1.0000
  C   C974      1.0  0.22179  0.66403  0.71637  1.0000
  Fe  Fe62      1.0  0.84663  0.18287  0.01278  1.0000
  S   S130      1.0  0.85064  0.16856  0.06978  1.0000
  H   H769      1.0  0.93612  0.19389  0.12183  1.0000
  C   C975      1.0  0.97359  0.25586  0.37540  1.0000
  Fe  Fe63      1.0  0.85910  0.23752  0.46951  1.0000
  Fe  Fe64      1.0  0.63043  0.19203  0.00715  1.0000
  H   H770      1.0  0.88212  0.02714  0.27841  1.0000
  S   S131      1.0  0.66956  0.18180  0.01787  1.0000
  Fe  Fe65      1.0  0.57946  0.17557  0.02115  1.0000
  C   C976      1.0  0.98636  0.18399  0.43577  1.0000
  S   S132      1.0  0.55201  0.14917  0.03815  1.0000
  C   C977      1.0  0.77875  0.02983  0.17125  1.0000
  Fe  Fe66      1.0  0.58964  0.22804  0.01604  1.0000
  S   S133      1.0  0.57331  0.26385  0.03144  1.0000
  H   H771      1.0  0.83507  0.02117  0.14205  1.0000
  S   S134      1.0  0.60399  0.19926  0.05202  1.0000
  S   S135      1.0  0.57964  0.26729  0.41807  1.0000
  C   C978      1.0  0.80685  0.03861  0.21874  1.0000
  S   S136      1.0  0.83994  0.26299  0.43242  1.0000
  S   S137      1.0  0.88214  0.20484  0.45530  1.0000
  H   H772      1.0  0.49294  0.11980  0.12123  1.0000
  C   C979      1.0  0.52541  0.26543  0.13846  1.0000
  Fe  Fe67      1.0  0.86046  0.29093  0.46165  1.0000
  H   H773      1.0  0.91916  0.26760  0.13469  1.0000
  Fe  Fe68      1.0  0.93646  0.11369  0.21396  1.0000
  S   S138      1.0  0.90672  0.09497  0.24009  1.0000
  S   S139      1.0  0.93941  0.12449  0.15526  1.0000
  Fe  Fe69      1.0  0.96466  0.11697  0.28508  1.0000
  S   S140      1.0  0.93707  0.09793  0.31538  1.0000
  Fe  Fe70      1.0  0.93558  0.07295  0.26728  1.0000
  S   S141      1.0  0.93219  0.03317  0.27947  1.0000
  Fe  Fe71      1.0  0.91087  0.12111  0.28598  1.0000
  S   S142      1.0  0.88017  0.14238  0.31102  1.0000
  S   S143      1.0  0.96537  0.09070  0.23897  1.0000
  S   S144      1.0  0.93825  0.14113  0.25734  1.0000
  C   C980      1.0  0.88202  0.18874  0.41391  1.0000
  C   C981      1.0  0.86339  0.19096  0.38908  1.0000
  C   C982      1.0  0.86320  0.17674  0.35771  1.0000
  C   C983      1.0  0.88179  0.16042  0.35040  1.0000
  C   C984      1.0  0.90074  0.15861  0.37477  1.0000
  C   C985      1.0  0.90073  0.17255  0.40644  1.0000
  H   H774      1.0  0.84886  0.20326  0.39442  1.0000
  H   H775      1.0  0.84848  0.17833  0.33906  1.0000
  H   H776      1.0  0.91518  0.14618  0.36956  1.0000
  H   H777      1.0  0.91526  0.17068  0.42533  1.0000
  H   H778      1.0  0.89181  0.28613  0.38603  1.0000
  C   C986      1.0  0.93578  0.00495  0.25745  1.0000
  C   C987      1.0  0.49813  0.18242  0.01015  1.0000
  H   H779      1.0  0.94855  0.01786  0.20739  1.0000
  H   H780      1.0  0.53863  0.18712  0.35567  1.0000
  H   H781      1.0  0.55394  0.21341  0.11905  1.0000
  C   C988      1.0  0.51690  0.14278  0.14866  1.0000
  C   C989      1.0  0.50786  0.13112  0.11844  1.0000
  C   C990      1.0  0.51868  0.13347  0.08478  1.0000
  C   C991      1.0  0.53831  0.14785  0.08075  1.0000
  C   C992      1.0  0.54696  0.16000  0.11076  1.0000
  C   C993      1.0  0.53639  0.15736  0.14455  1.0000
  H   H782      1.0  0.92233  0.14958  0.00091  1.0000
  H   H783      1.0  0.51199  0.12381  0.06184  1.0000
  H   H784      1.0  0.56226  0.17082  0.10813  1.0000
  H   H785      1.0  0.54359  0.16634  0.16774  1.0000
  C   C994      1.0  0.99167  0.17732  0.47116  1.0000
  H   H786      1.0  0.51266  0.17888  0.99192  1.0000
  C   C995      1.0  0.56406  0.28922  0.39276  1.0000
  H   H787      1.0  0.90673  0.03823  0.20137  1.0000
  C   C996      1.0  0.54335  0.24807  0.13779  1.0000
  H   H788      1.0  0.81013  0.04373  0.24639  1.0000
  C   C997      1.0  0.54086  0.25010  0.23219  1.0000
  C   C998      1.0  0.59377  0.27257  0.09859  1.0000
  C   C999      1.0  0.57557  0.27795  0.07401  1.0000
  C   C1000     1.0  0.55896  0.29592  0.08257  1.0000
  C   C1001     1.0  0.96785  0.31071  0.09308  1.0000
  C   C1002     1.0  0.76222  0.27473  0.35225  1.0000
  H   H789      1.0  0.60676  0.25883  0.09221  1.0000
  C   C1003     1.0  0.76147  0.27418  0.31475  1.0000
  H   H790      1.0  0.97018  0.31070  0.41300  1.0000
  C   C1004     1.0  0.87569  0.15614  0.09247  1.0000
  C   C1005     1.0  0.89822  0.15533  0.07735  1.0000
  C   C1006     1.0  0.91766  0.14572  0.09686  1.0000
  C   C1007     1.0  0.91480  0.13720  0.13186  1.0000
  C   C1008     1.0  0.89232  0.13824  0.14703  1.0000
  C   C1009     1.0  0.87290  0.14755  0.12736  1.0000
  H   H791      1.0  0.90057  0.16230  0.05081  1.0000
  H   H792      1.0  0.93498  0.14495  0.08485  1.0000
  H   H793      1.0  0.88983  0.13163  0.17383  1.0000
  H   H794      1.0  0.85557  0.14819  0.13935  1.0000
  C   C1010     1.0  0.86603  0.00479  0.21500  1.0000
  C   C1011     1.0  0.71822  0.18010  0.01107  1.0000
  C   C1012     1.0  0.54000  0.22689  0.11930  1.0000
  H   H795      1.0  0.71782  0.16725  0.03229  1.0000
  H   H796      1.0  0.95300  0.27124  0.41851  1.0000
  H   H797      1.0  0.51008  0.20170  0.17691  1.0000
  H   H798      1.0  0.87202  0.15870  0.23891  1.0000
  H   H799      1.0  0.77805  0.20122  0.45005  1.0000
  C   C1013     1.0  0.56052  0.30860  0.11517  1.0000
  C   C1014     1.0  0.53775  0.32271  0.35133  1.0000
  C   C1015     1.0  0.94402  0.00238  0.22226  1.0000
  H   H800      1.0  0.79374  0.01844  0.12080  1.0000
  C   C1016     1.0  0.50465  0.26223  0.11875  1.0000
  C   C1017     1.0  0.84649  0.17686  0.20514  1.0000
  C   C1018     1.0  0.97039  0.10713  0.04927  1.0000
  C   C1019     1.0  0.52408  0.18641  0.33658  1.0000
  H   H801      1.0  0.57993  0.19475  0.20905  1.0000
  C   C1020     1.0  0.82077  0.02583  0.16016  1.0000
  C   C1021     1.0  0.78348  0.03694  0.20659  1.0000
  S   S145      1.0  0.50501  0.13914  0.19214  1.0000
  C   C1022     1.0  0.49407  0.20522  0.02388  1.0000
  C   C1023     1.0  0.96806  0.28738  0.10473  1.0000
  H   H802      1.0  0.53837  0.19007  0.22645  1.0000
  H   H803      1.0  0.50558  0.21918  0.01601  1.0000
  H   H804      1.0  0.93448  0.19032  0.99193  1.0000
  H   H805      1.0  0.76064  0.02855  0.16188  1.0000
  H   H806      1.0  0.66601  0.30765  0.39895  1.0000
  C   C1024     1.0  0.97035  0.29707  0.03110  1.0000
  H   H807      1.0  0.96496  0.23914  0.37722  1.0000
  C   C1025     1.0  0.89473  0.21775  0.10065  1.0000
  H   H808      1.0  0.88396  0.21285  0.04554  1.0000
  C   C1026     1.0  0.94680  0.20489  0.21061  1.0000
  H   H809      1.0  0.72437  0.28424  0.44394  1.0000
  H   H810      1.0  0.57541  0.11253  0.99722  1.0000
  C   C1027     1.0  0.69680  0.19048  0.99852  1.0000
  C   C1028     1.0  0.54547  0.20763  0.22531  1.0000
  C   C1029     1.0  0.97639  0.17794  0.18589  1.0000
  H   H811      1.0  0.54464  0.29974  0.06399  1.0000
  H   H812      1.0  0.95877  0.31485  0.48038  1.0000
  C   C1030     1.0  0.57870  0.30341  0.13968  1.0000
  H   H813      1.0  0.97529  0.18880  0.24137  1.0000
  C   C1031     1.0  0.91158  0.25540  0.11562  1.0000
  C   C1032     1.0  0.50122  0.24126  0.09917  1.0000
  C   C1033     1.0  0.93943  0.12879  0.46220  1.0000
  H   H814      1.0  0.49415  0.28918  0.33713  1.0000
  C   C1034     1.0  0.49530  0.25988  0.29975  1.0000
  H   H815      1.0  0.88559  0.00335  0.16515  1.0000
  H   H816      1.0  0.50747  0.19893  0.40831  1.0000
  C   C1035     1.0  0.93911  0.15251  0.98848  1.0000
  H   H817      1.0  0.69247  0.22223  0.45346  1.0000
  H   H818      1.0  0.86493  0.11688  0.03340  1.0000
  H   H819      1.0  0.49836  0.12662  0.45130  1.0000
  H   H820      1.0  0.54768  0.32239  0.12156  1.0000
  H   H821      1.0  0.82528  0.19782  0.16842  1.0000
  C   C1036     1.0  0.84266  0.19493  0.18035  1.0000
  H   H822      1.0  0.91424  0.27962  0.07161  1.0000
  H   H823      1.0  0.53035  0.26586  0.23816  1.0000
  C   C1037     1.0  0.79740  0.02418  0.14809  1.0000
  C   C1038     1.0  0.74023  0.18626  0.99666  1.0000
  S   S146      1.0  0.77243  0.27150  0.46428  1.0000
  H   H824      1.0  0.53482  0.21695  0.30812  1.0000
  H   H825      1.0  0.53897  0.22245  0.43705  1.0000
  H   H826      1.0  0.87250  0.24571  0.22038  1.0000
  C   C1039     1.0  0.96471  0.10915  0.40456  1.0000
  C   C1040     1.0  0.54667  0.30193  0.33523  1.0000
  H   H827      1.0  0.77519  0.28516  0.36643  1.0000
  C   C1041     1.0  0.91007  0.28739  0.25012  1.0000
  C   C1042     1.0  0.64299  0.25364  0.41128  1.0000
  C   C1043     1.0  0.56909  0.21021  0.21580  1.0000
  C   C1044     1.0  0.74468  0.26065  0.29680  1.0000
  C   C1045     1.0  0.72875  0.24752  0.31633  1.0000
  C   C1046     1.0  0.72967  0.24769  0.35404  1.0000
  C   C1047     1.0  0.74628  0.26170  0.37176  1.0000
  P   P36       1.0  0.70903  0.23117  0.37982  1.0000
  C   C1048     1.0  0.69902  0.20661  0.35291  1.0000
  C   C1049     1.0  0.72358  0.21980  0.41983  1.0000
  C   C1050     1.0  0.50788  0.16832  0.33848  1.0000
  S   S147      1.0  0.52161  0.31936  0.22588  1.0000
  H   H828      1.0  0.96924  0.25072  0.08875  1.0000
  C   C1051     1.0  0.52182  0.20333  0.30959  1.0000
  C   C1052     1.0  0.74776  0.21344  0.41928  1.0000
  C   C1053     1.0  0.71055  0.18439  0.35493  1.0000
  C   C1054     1.0  0.70283  0.16557  0.33363  1.0000
  C   C1055     1.0  0.68365  0.16882  0.31010  1.0000
  C   C1056     1.0  0.67218  0.19092  0.30777  1.0000
  C   C1057     1.0  0.67984  0.20977  0.32901  1.0000
  C   C1058     1.0  0.68377  0.24975  0.39174  1.0000
  C   C1059     1.0  0.68483  0.27446  0.39051  1.0000
  H   H829      1.0  0.84728  0.99943  0.26446  1.0000
  C   C1060     1.0  0.97009  0.27362  0.04295  1.0000
  H   H830      1.0  0.97139  0.07498  0.12601  1.0000
  C   C1061     1.0  0.66266  0.23946  0.40218  1.0000
  C   C1062     1.0  0.55566  0.31027  0.40856  1.0000
  H   H831      1.0  0.54309  0.29846  0.30709  1.0000
  H   H832      1.0  0.74403  0.26031  0.26771  1.0000
  H   H833      1.0  0.71589  0.23725  0.30188  1.0000
  H   H834      1.0  0.74709  0.26240  0.40074  1.0000
  H   H835      1.0  0.50974  0.15500  0.35904  1.0000
  H   H836      1.0  0.96559  0.23518  0.46695  1.0000
  H   H837      1.0  0.94489  0.25687  0.19101  1.0000
  H   H838      1.0  0.84340  0.10661  0.28574  1.0000
  H   H839      1.0  0.75796  0.21526  0.39508  1.0000
  H   H840      1.0  0.72551  0.18149  0.37280  1.0000
  H   H841      1.0  0.71179  0.14846  0.33533  1.0000
  H   H842      1.0  0.67772  0.15424  0.29358  1.0000
  H   H843      1.0  0.65736  0.19347  0.28942  1.0000
  H   H844      1.0  0.67087  0.22683  0.32660  1.0000
  H   H845      1.0  0.70091  0.28291  0.38296  1.0000
  H   H846      1.0  0.94605  0.29085  0.23344  1.0000
  C   C1063     1.0  0.86538  0.08066  0.31268  1.0000
  C   C1064     1.0  0.75921  0.20521  0.45033  1.0000
  H   H847      1.0  0.66143  0.22046  0.40355  1.0000
  C   C1065     1.0  0.92500  0.22664  0.30176  1.0000
  C   C1066     1.0  0.92309  0.20270  0.30939  1.0000
  C   C1067     1.0  0.94335  0.18906  0.31744  1.0000
  C   C1068     1.0  0.96557  0.19920  0.31741  1.0000
  C   C1069     1.0  0.96776  0.22307  0.30886  1.0000
  C   C1070     1.0  0.94722  0.23682  0.30154  1.0000
  C   C1071     1.0  0.94428  0.07406  0.04404  1.0000
  H   H848      1.0  0.97194  0.16897  0.12991  1.0000
  H   H849      1.0  0.97452  0.10157  0.38216  1.0000
  H   H850      1.0  0.91060  0.30234  0.26851  1.0000
  H   H851      1.0  0.57191  0.27006  0.22211  1.0000
  H   H852      1.0  0.99166  0.16632  0.18980  1.0000
  C   C1072     1.0  0.66506  0.28860  0.39957  1.0000
  H   H853      1.0  0.97168  0.05727  0.98943  1.0000
  C   C1073     1.0  0.95087  0.06690  0.07860  1.0000
  C   C1074     1.0  0.51891  0.22329  0.10051  1.0000
  C   C1075     1.0  0.91860  0.30101  0.35267  1.0000
  H   H854      1.0  0.49707  0.31127  0.01032  1.0000
  P   P37       1.0  0.90815  0.22344  0.17237  1.0000
  C   C1076     1.0  0.97666  0.10006  0.08403  1.0000
  H   H855      1.0  0.88915  0.20046  0.10827  1.0000
  C   C1077     1.0  0.57870  0.23265  0.21503  1.0000
  H   H856      1.0  0.55896  0.31364  0.43679  1.0000
  C   C1078     1.0  0.88868  0.25534  0.22270  1.0000
  C   C1079     1.0  0.96906  0.26883  0.07968  1.0000
  H   H857      1.0  0.90923  0.23739  0.29656  1.0000
  H   H858      1.0  0.90588  0.19476  0.30967  1.0000
  H   H859      1.0  0.94184  0.17061  0.32429  1.0000
  C   C1080     1.0  0.64415  0.27819  0.40993  1.0000
  H   H860      1.0  0.94836  0.25562  0.29679  1.0000
  H   H861      1.0  0.93936  0.21388  0.23372  1.0000
  H   H862      1.0  0.85790  0.22308  0.15138  1.0000
  C   C1081     1.0  0.90867  0.24866  0.20254  1.0000
  C   C1082     1.0  0.89968  0.10876  0.01260  1.0000
  C   C1083     1.0  0.52984  0.20934  0.45232  1.0000
  C   C1084     1.0  0.90883  0.26232  0.07978  1.0000
  S   S148      1.0  0.83113  0.21952  0.00303  1.0000
  H   H863      1.0  0.91914  0.28610  0.33431  1.0000
  H   H864      1.0  0.88814  0.05221  0.33164  1.0000
  C   C1085     1.0  0.59540  0.28539  0.13123  1.0000
  H   H865      1.0  0.94322  0.05140  0.09006  1.0000
  H   H866      1.0  0.96782  0.28379  0.13324  1.0000
  C   C1086     1.0  0.88944  0.27462  0.24641  1.0000
  H   H867      1.0  0.93231  0.09208  0.39044  1.0000
  C   C1087     1.0  0.89191  0.22471  0.06495  1.0000
  C   C1088     1.0  0.90429  0.23309  0.12642  1.0000
  C   C1089     1.0  0.51221  0.19602  0.43614  1.0000
  C   C1090     1.0  0.92828  0.11390  0.43761  1.0000
  C   C1091     1.0  0.96534  0.17953  0.15222  1.0000
  H   H868      1.0  0.98873  0.11033  0.10001  1.0000
  C   C1092     1.0  0.88774  0.18678  0.20984  1.0000
  C   C1093     1.0  0.88002  0.99377  0.18837  1.0000
  C   C1094     1.0  0.89894  0.24700  0.05446  1.0000
  C   C1095     1.0  0.94095  0.10393  0.40902  1.0000
  H   H869      1.0  0.83734  0.08174  0.23163  1.0000
  H   H870      1.0  0.97341  0.24421  0.24235  1.0000
  C   C1096     1.0  0.53110  0.22756  0.23336  1.0000
  C   C1097     1.0  0.91186  0.06238  0.15828  1.0000
  C   C1098     1.0  0.90100  0.07744  0.13324  1.0000
  C   C1099     1.0  0.87639  0.07959  0.13135  1.0000
  C   C1100     1.0  0.86256  0.06645  0.15424  1.0000
  C   C1101     1.0  0.87333  0.05067  0.17869  1.0000
  C   C1102     1.0  0.89809  0.04914  0.18109  1.0000
  P   P38       1.0  0.85592  0.03515  0.21057  1.0000
  C   C1103     1.0  0.82566  0.03348  0.19537  1.0000
  S   S149      1.0  0.88064  0.32219  0.44057  1.0000
  C   C1104     1.0  0.93553  0.20656  0.17694  1.0000
  C   C1105     1.0  0.96333  0.13413  0.45795  1.0000
  C   C1106     1.0  0.96676  0.27402  0.39910  1.0000
  H   H871      1.0  0.89651  0.25243  0.02677  1.0000
  C   C1107     1.0  0.93004  0.28090  0.23019  1.0000
  C   C1108     1.0  0.50062  0.17902  0.45586  1.0000
  C   C1109     1.0  0.88408  0.20497  0.18486  1.0000
  H   H872      1.0  0.62881  0.28909  0.41708  1.0000
  H   H873      1.0  0.76902  0.04107  0.22465  1.0000
  C   C1110     1.0  0.94598  0.17573  0.98341  1.0000
  C   C1111     1.0  0.85828  0.05205  0.25171  1.0000
  C   C1112     1.0  0.87268  0.04397  0.28015  1.0000
  C   C1113     1.0  0.87620  0.05824  0.31050  1.0000
  C   C1114     1.0  0.94492  0.19370  0.14774  1.0000
  H   H874      1.0  0.97101  0.25900  0.02409  1.0000
  H   H875      1.0  0.91166  0.08813  0.11616  1.0000
  H   H876      1.0  0.86810  0.09203  0.11287  1.0000
  H   H877      1.0  0.84357  0.06909  0.15328  1.0000
  H   H878      1.0  0.50511  0.24872  0.31827  1.0000
  C   C1115     1.0  0.87509  0.11135  0.01007  1.0000
  C   C1116     1.0  0.84766  0.07472  0.25392  1.0000
  H   H879      1.0  0.59696  0.23467  0.20747  1.0000
  C   C1117     1.0  0.86130  0.20908  0.17046  1.0000
  H   H880      1.0  0.56616  0.26904  0.34339  1.0000
  H   H881      1.0  0.83209  0.16582  0.21268  1.0000
  C   C1118     1.0  0.86900  0.17283  0.21989  1.0000
  C   C1119     1.0  0.99023  0.25979  0.34838  1.0000
  H   H882      1.0  0.68526  0.27907  0.47219  1.0000
  H   H883      1.0  0.75644  0.17816  0.00685  1.0000
  H   H884      1.0  0.90978  0.11004  0.44073  1.0000
  C   C1120     1.0  0.97592  0.12408  0.42906  1.0000
  C   C1121     1.0  0.50324  0.20238  0.28433  1.0000
  H   H885      1.0  0.86871  0.09205  0.33567  1.0000
  C   C1122     1.0  0.55966  0.28523  0.35593  1.0000
  H   H886      1.0  0.90820  0.11226  0.03818  1.0000
  H   H887      1.0  0.93155  0.06393  0.02892  1.0000
  S   S150      1.0  0.56374  0.20474  0.98770  1.0000
  P   P39       1.0  0.50121  0.22375  0.24853  1.0000
  C   C1123     1.0  0.85105  0.08887  0.28445  1.0000
  H   H888      1.0  0.56005  0.25121  0.15097  1.0000
  H   H889      1.0  0.87404  0.27967  0.26208  1.0000
  H   H890      1.0  0.60961  0.28131  0.14998  1.0000
  H   H891      1.0  0.51688  0.20652  0.08691  1.0000
  C   C1124     1.0  0.95401  0.09423  0.02914  1.0000
  C   C1125     1.0  0.96687  0.08004  0.09874  1.0000
  C   C1126     1.0  0.92933  0.26165  0.20640  1.0000
  H   H892      1.0  0.90497  0.18311  0.22158  1.0000
  C   C1127     1.0  0.90314  0.30092  0.38210  1.0000
  C   C1128     1.0  0.56460  0.25258  0.22335  1.0000
  C   C1129     1.0  0.96715  0.19066  0.21505  1.0000
  H   H893      1.0  0.50308  0.27990  0.05439  1.0000
  H   H894      1.0  0.52789  0.28176  0.15331  1.0000
  H   H895      1.0  0.62678  0.24562  0.41950  1.0000
  C   C1130     1.0  0.99132  0.25009  0.24147  1.0000
  C   C1131     1.0  0.93310  0.32030  0.34659  1.0000
  H   H896      1.0  0.93094  0.06160  0.16094  1.0000
  C   C1132     1.0  0.97649  0.29622  0.39613  1.0000
  H   H897      1.0  0.98080  0.18840  0.32490  1.0000
  C   C1133     1.0  0.71096  0.21715  0.45174  1.0000
  H   H898      1.0  0.77389  0.28424  0.29966  1.0000
  Fe  Fe72      1.0  0.81259  0.26730  0.47689  1.0000
  H   H899      1.0  0.97808  0.12277  0.03849  1.0000
  H   H900      1.0  0.59539  0.31672  0.27924  1.0000
  H   H901      1.0  0.98889  0.25861  0.18517  1.0000
  H   H902      1.0  0.97452  0.17381  0.41908  1.0000
  S   S151      1.0  0.95054  0.32015  0.30718  1.0000
  C   C1134     1.0  0.96921  0.31557  0.05645  1.0000
  C   C1135     1.0  0.90168  0.32038  0.40547  1.0000
  H   H903      1.0  0.50972  0.31607  0.44715  1.0000
  S   S152      1.0  0.58087  0.31934  0.18074  1.0000
  C   C1136     1.0  0.72357  0.27620  0.47002  1.0000
  H   H904      1.0  0.92780  0.31852  0.01696  1.0000
  P   P40       1.0  0.97363  0.30381  0.98412  1.0000
  Fe  Fe73      1.0  0.58993  0.27003  0.47753  1.0000
  H   H905      1.0  0.53100  0.26446  0.98383  1.0000
  C   C1137     1.0  0.92756  0.32331  0.98898  1.0000
  P   P41       1.0  0.94506  0.10338  0.98466  1.0000
  C   C1138     1.0  0.72240  0.20859  0.48259  1.0000
  C   C1139     1.0  0.74655  0.20282  0.48200  1.0000
  C   C1140     1.0  0.49335  0.30932  0.43634  1.0000
  H   H906      1.0  0.49337  0.05731  0.99280  1.0000
  S   S153      1.0  0.96731  0.13506  0.84857  1.0000
  Fe  Fe74      1.0  0.85812  0.22175  0.95888  1.0000
  S   S154      1.0  0.83369  0.20696  0.91723  1.0000
  S   S155      1.0  0.88527  0.24977  0.94694  1.0000
  H   H907      1.0  0.86335  0.10355  0.73643  1.0000
  Fe  Fe75      1.0  0.84943  0.17167  0.93252  1.0000
  S   S156      1.0  0.85872  0.14532  0.88795  1.0000
  Fe  Fe76      1.0  0.80756  0.20172  0.96198  1.0000
  S   S157      1.0  0.76842  0.21138  0.94965  1.0000
  H   H908      1.0  0.67309  0.08726  0.88102  1.0000
  S   S158      1.0  0.58632  0.19522  0.88782  1.0000
  Fe  Fe77      1.0  0.63181  0.26543  0.53052  1.0000
  H   H909      1.0  0.71265  0.20733  0.50736  1.0000
  S   S159      1.0  0.67183  0.25817  0.54130  1.0000
  Fe  Fe78      1.0  0.58809  0.29714  0.54885  1.0000
  S   S160      1.0  0.56308  0.27301  0.52112  1.0000
  Fe  Fe79      1.0  0.58358  0.24391  0.54916  1.0000
  S   S161      1.0  0.55748  0.22102  0.57803  1.0000
  H   H910      1.0  0.59615  0.08372  0.74082  1.0000
  S   S162      1.0  0.60757  0.26845  0.57888  1.0000
  H   H911      1.0  0.50432  0.25734  0.74149  1.0000
  Fe  Fe80      1.0  0.51824  0.10678  0.76476  1.0000
  S   S163      1.0  0.54193  0.08263  0.73188  1.0000
  S   S164      1.0  0.52339  0.11330  0.82451  1.0000
  H   H912      1.0  0.87186  0.17825  0.74772  1.0000
  S   S165      1.0  0.50474  0.09199  0.66486  1.0000
  Fe  Fe81      1.0  0.50851  0.06652  0.71139  1.0000
  S   S166      1.0  0.83181  0.29754  0.50253  1.0000
  Fe  Fe82      1.0  0.53640  0.10977  0.68856  1.0000
  S   S167      1.0  0.56774  0.12223  0.65701  1.0000
  H   H913      1.0  0.62913  0.05944  0.76676  1.0000
  S   S168      1.0  0.51536  0.13495  0.72326  1.0000
  Fe  Fe83      1.0  0.85095  0.27003  0.53551  1.0000
  S   S169      1.0  0.85441  0.27441  0.59630  1.0000
  H   H914      1.0  0.89512  0.19128  0.86204  1.0000
  H   H915      1.0  0.64069  0.01860  0.94363  1.0000
  C   C1141     1.0  0.71974  0.21319  0.95652  1.0000
  H   H916      1.0  0.94139  0.26833  0.95717  1.0000
  C   C1142     1.0  0.69964  0.26321  0.52003  1.0000
  C   C1143     1.0  0.72087  0.25624  0.53770  1.0000
  C   C1144     1.0  0.74321  0.25900  0.52158  1.0000
  H   H917      1.0  0.68362  0.01997  0.93137  1.0000
  H   H918      1.0  0.72003  0.24841  0.56397  1.0000
  H   H919      1.0  0.75919  0.25324  0.53545  1.0000
  S   S170      1.0  0.61733  0.22246  0.97328  1.0000
  C   C1145     1.0  0.54275  0.09974  0.57379  1.0000
  C   C1146     1.0  0.53082  0.23754  0.77142  1.0000
  H   H920      1.0  0.99019  0.04392  0.87954  1.0000
  C   C1147     1.0  0.56090  0.19295  0.59805  1.0000
  C   C1148     1.0  0.58222  0.17987  0.59754  1.0000
  C   C1149     1.0  0.58410  0.15807  0.61540  1.0000
  C   C1150     1.0  0.56468  0.14918  0.63364  1.0000
  C   C1151     1.0  0.54324  0.16200  0.63326  1.0000
  C   C1152     1.0  0.54136  0.18369  0.61536  1.0000
  H   H921      1.0  0.59727  0.18663  0.58373  1.0000
  H   H922      1.0  0.60071  0.14814  0.61531  1.0000
  H   H923      1.0  0.52814  0.15524  0.64693  1.0000
  H   H924      1.0  0.52473  0.19356  0.61542  1.0000
  C   C1153     1.0  0.56861  0.17255  0.87046  1.0000
  C   C1154     1.0  0.56529  0.17031  0.83315  1.0000
  C   C1155     1.0  0.55133  0.15234  0.81863  1.0000
  C   C1156     1.0  0.54058  0.13648  0.84143  1.0000
  C   C1157     1.0  0.54371  0.13889  0.87870  1.0000
  C   C1158     1.0  0.55778  0.15675  0.89320  1.0000
  H   H925      1.0  0.57362  0.18238  0.81540  1.0000
  H   H926      1.0  0.54895  0.15072  0.78987  1.0000
  H   H927      1.0  0.53538  0.12677  0.89651  1.0000
  H   H928      1.0  0.56027  0.15825  0.92199  1.0000
  C   C1159     1.0  0.87686  0.29083  0.61768  1.0000
  C   C1160     1.0  0.89664  0.29821  0.59919  1.0000
  H   H929      1.0  0.89819  0.29424  0.57090  1.0000
  C   C1161     1.0  0.51008  0.00021  0.72549  1.0000
  H   H930      1.0  0.51511  0.06271  0.81554  1.0000
  C   C1162     1.0  0.86082  0.16307  0.74955  1.0000
  H   H931      1.0  0.72019  0.22615  0.93547  1.0000
  H   H932      1.0  0.96518  0.15253  0.71950  1.0000
  C   C1163     1.0  0.88119  0.27205  0.91397  1.0000
  C   C1164     1.0  0.85891  0.28208  0.90591  1.0000
  C   C1165     1.0  0.85665  0.30057  0.88088  1.0000
  C   C1166     1.0  0.87651  0.30884  0.86301  1.0000
  C   C1167     1.0  0.89860  0.29806  0.86991  1.0000
  C   C1168     1.0  0.90100  0.28022  0.89585  1.0000
  H   H933      1.0  0.84349  0.27598  0.91958  1.0000
  H   H934      1.0  0.59806  0.28460  0.66408  1.0000
  C   C1169     1.0  0.91436  0.31078  0.61738  1.0000
  H   H935      1.0  0.91829  0.27261  0.90163  1.0000
  C   C1170     1.0  0.93684  0.13733  0.85753  1.0000
  C   C1171     1.0  0.92991  0.15082  0.88749  1.0000
  C   C1172     1.0  0.90618  0.15260  0.89749  1.0000
  C   C1173     1.0  0.88887  0.14165  0.87688  1.0000
  C   C1174     1.0  0.89568  0.12813  0.84661  1.0000
  C   C1175     1.0  0.91971  0.12577  0.83709  1.0000
  H   H936      1.0  0.94305  0.15977  0.90338  1.0000
  H   H937      1.0  0.90133  0.16284  0.92087  1.0000
  H   H938      1.0  0.88236  0.11949  0.83058  1.0000
  H   H939      1.0  0.92492  0.11506  0.81414  1.0000
  C   C1176     1.0  0.58880  0.30776  0.82223  1.0000
  C   C1177     1.0  0.98648  0.32340  0.59142  1.0000
  H   H940      1.0  0.89083  0.31283  0.70102  1.0000
  H   H941      1.0  0.95930  0.28670  0.57509  1.0000
  C   C1178     1.0  0.56359  0.25977  0.79426  1.0000
  C   C1179     1.0  0.96742  0.18008  0.96684  1.0000
  C   C1180     1.0  0.86599  0.19270  0.82453  1.0000
  C   C1181     1.0  0.49562  0.20218  0.84580  1.0000
  C   C1182     1.0  0.66289  0.14720  0.93371  1.0000
  C   C1183     1.0  0.66582  0.07238  0.89471  1.0000
  H   H942      1.0  0.69969  0.05434  0.90007  1.0000
  C   C1184     1.0  0.82370  0.14580  0.76521  1.0000
  S   S171      1.0  0.93175  0.32422  0.78043  1.0000
  C   C1185     1.0  0.96963  0.07579  0.88959  1.0000
  C   C1186     1.0  0.87503  0.29604  0.65450  1.0000
  H   H943      1.0  0.82221  0.10807  0.75831  1.0000
  S   S172      1.0  0.83064  0.23975  0.51186  1.0000
  C   C1187     1.0  0.94346  0.24789  0.50992  1.0000
  C   C1188     1.0  0.58658  0.29444  0.71749  1.0000
  H   H944      1.0  0.97268  0.19802  0.96275  1.0000
  C   C1189     1.0  0.56747  0.03361  0.83112  1.0000
  C   C1190     1.0  0.98703  0.21040  0.81176  1.0000
  H   H945      1.0  0.55448  0.08758  0.58814  1.0000
  C   C1191     1.0  0.53194  0.27958  0.76113  1.0000
  C   C1192     1.0  0.88308  0.20253  0.84697  1.0000
  C   C1193     1.0  0.80509  0.18320  0.84200  1.0000
  C   C1194     1.0  0.59797  0.29734  0.88420  1.0000
  H   H946      1.0  0.58588  0.03404  0.82353  1.0000
  C   C1195     1.0  0.55992  0.01652  0.85483  1.0000
  C   C1196     1.0  0.80659  0.23481  0.74657  1.0000
  H   H947      1.0  0.67473  0.14878  0.95667  1.0000
  S   S173      1.0  0.60694  0.16563  0.97963  1.0000
  C   C1197     1.0  0.80186  0.25031  0.71824  1.0000
  C   C1198     1.0  0.76302  0.18685  0.85253  1.0000
  C   C1199     1.0  0.82783  0.20833  0.70601  1.0000
  C   C1200     1.0  0.49294  0.31712  0.54822  1.0000
  C   C1201     1.0  0.52075  0.25806  0.75659  1.0000
  C   C1202     1.0  0.52475  0.99981  0.75600  1.0000
  H   H948      1.0  0.54901  0.21653  0.50122  1.0000
  C   C1203     1.0  0.87005  0.14074  0.74016  1.0000
  C   C1204     1.0  0.81013  0.24487  0.68385  1.0000
  H   H949      1.0  0.83865  0.24379  0.79682  1.0000
  C   C1205     1.0  0.77857  0.19521  0.79372  1.0000
  C   C1206     1.0  0.96223  0.26979  0.66125  1.0000
  H   H950      1.0  0.89212  0.17632  0.68872  1.0000
  C   C1207     1.0  0.95843  0.09008  0.91544  1.0000
  H   H951      1.0  0.74156  0.19736  0.80715  1.0000
  C   C1208     1.0  0.98190  0.16126  0.95504  1.0000
  C   C1209     1.0  0.54735  0.30650  0.62800  1.0000
  H   H952      1.0  0.86501  0.17367  0.82299  1.0000
  H   H953      1.0  0.94753  0.16442  0.61350  1.0000
  C   C1210     1.0  0.86801  0.24155  0.83280  1.0000
  P   P42       1.0  0.97861  0.15193  0.49064  1.0000
  C   C1211     1.0  0.59610  0.29875  0.68374  1.0000
  H   H954      1.0  0.78869  0.17624  0.89265  1.0000
  H   H955      1.0  0.94973  0.10633  0.90728  1.0000
  H   H956      1.0  0.52860  0.28925  0.67011  1.0000
  H   H957      1.0  0.50265  0.31767  0.52342  1.0000
  H   H958      1.0  0.80005  0.23937  0.77309  1.0000
  H   H959      1.0  0.83785  0.19222  0.70050  1.0000
  C   C1212     1.0  0.63253  0.05224  0.91936  1.0000
  C   C1213     1.0  0.83768  0.16575  0.76248  1.0000
  H   H960      1.0  0.83943  0.30860  0.87553  1.0000
  H   H961      1.0  0.85957  0.29074  0.66873  1.0000
  C   C1214     1.0  0.65751  0.16697  0.91286  1.0000
  H   H962      1.0  0.55754  0.29084  0.62034  1.0000
  H   H963      1.0  0.86572  0.15967  0.64262  1.0000
  C   C1215     1.0  0.64173  0.16522  0.88394  1.0000
  H   H964      1.0  0.74830  0.18606  0.87088  1.0000
  C   C1216     1.0  0.95121  0.24219  0.83368  1.0000
  C   C1217     1.0  0.85101  0.23188  0.81003  1.0000
  H   H965      1.0  0.64102  0.06482  0.83001  1.0000
  S   S174      1.0  0.98301  0.09379  0.75548  1.0000
  H   H966      1.0  0.82261  0.17876  0.85220  1.0000
  C   C1218     1.0  0.93928  0.17852  0.51240  1.0000
  C   C1219     1.0  0.53616  0.01611  0.86470  1.0000
  H   H967      1.0  0.94988  0.14630  0.78028  1.0000
  C   C1220     1.0  0.82289  0.22380  0.67770  1.0000
  C   C1221     1.0  0.84986  0.20731  0.80555  1.0000
  H   H968      1.0  0.58621  0.11859  0.84254  1.0000
  C   C1222     1.0  0.53551  0.20601  0.48849  1.0000
  C   C1223     1.0  0.88409  0.22690  0.85114  1.0000
  C   C1224     1.0  0.85610  0.12093  0.74319  1.0000
  H   H969      1.0  0.89691  0.23436  0.86940  1.0000
  S   S175      1.0  0.61406  0.29664  0.50284  1.0000
  P   P43       1.0  0.56836  0.30819  0.78449  1.0000
  C   C1225     1.0  0.50932  0.24750  0.90194  1.0000
  H   H970      1.0  0.97077  0.26880  0.80784  1.0000
  C   C1226     1.0  0.53087  0.25880  0.95590  1.0000
  C   C1227     1.0  0.55225  0.25472  0.93818  1.0000
  C   C1228     1.0  0.55224  0.24707  0.90240  1.0000
  C   C1229     1.0  0.53086  0.24349  0.88428  1.0000
  Fe  Fe84      1.0  0.59246  0.19642  0.94839  1.0000
  H   H971      1.0  0.92848  0.23760  0.50138  1.0000
  C   C1230     1.0  0.90145  0.09917  0.94914  1.0000
  H   H972      1.0  0.63698  0.18076  0.86852  1.0000
  C   C1231     1.0  0.61457  0.09238  0.84106  1.0000
  C   C1232     1.0  0.55127  0.05030  0.81737  1.0000
  H   H973      1.0  0.53997  0.07415  0.91342  1.0000
  C   C1233     1.0  0.92456  0.31802  0.50443  1.0000
  C   C1234     1.0  0.50658  0.17518  0.49209  1.0000
  C   C1235     1.0  0.61975  0.30813  0.88174  1.0000
  H   H974      1.0  0.56886  0.24350  0.88895  1.0000
  H   H975      1.0  0.53120  0.23754  0.85665  1.0000
  C   C1236     1.0  0.99083  0.28429  0.74713  1.0000
  H   H976      1.0  0.93585  0.21219  0.85877  1.0000
  C   C1237     1.0  0.97844  0.27699  0.95832  1.0000
  H   H977      1.0  0.79188  0.26664  0.72299  1.0000
  H   H978      1.0  0.61089  0.11420  0.96013  1.0000
  C   C1238     1.0  0.62024  0.13516  0.71542  1.0000
  C   C1239     1.0  0.63748  0.12976  0.74139  1.0000
  C   C1240     1.0  0.64769  0.14783  0.76147  1.0000
  C   C1241     1.0  0.64066  0.17134  0.75557  1.0000
  C   C1242     1.0  0.62273  0.17687  0.73039  1.0000
  C   C1243     1.0  0.61307  0.15863  0.70966  1.0000
  P   P44       1.0  0.61467  0.20724  0.72093  1.0000
  C   C1244     1.0  0.58381  0.21090  0.70868  1.0000
  C   C1245     1.0  0.61924  0.22601  0.75976  1.0000
  C   C1246     1.0  0.61591  0.21745  0.79455  1.0000
  C   C1247     1.0  0.62120  0.23146  0.82455  1.0000
  C   C1248     1.0  0.62935  0.25425  0.82004  1.0000
  C   C1249     1.0  0.63162  0.26330  0.78552  1.0000
  C   C1250     1.0  0.62637  0.24933  0.75547  1.0000
  C   C1251     1.0  0.57625  0.23001  0.68735  1.0000
  C   C1252     1.0  0.55260  0.23250  0.67661  1.0000
  C   C1253     1.0  0.53623  0.21612  0.68750  1.0000
  C   C1254     1.0  0.54349  0.19736  0.70944  1.0000
  C   C1255     1.0  0.56711  0.19492  0.72047  1.0000
  C   C1256     1.0  0.63376  0.21534  0.68478  1.0000
  C   C1257     1.0  0.62604  0.21388  0.64889  1.0000
  C   C1258     1.0  0.64099  0.22002  0.62106  1.0000
  C   C1259     1.0  0.66386  0.22731  0.62879  1.0000
  C   C1260     1.0  0.67193  0.22817  0.66434  1.0000
  C   C1261     1.0  0.65703  0.22198  0.69225  1.0000
  H   H979      1.0  0.61251  0.12123  0.69937  1.0000
  H   H980      1.0  0.64316  0.11159  0.74559  1.0000
  H   H981      1.0  0.66128  0.14365  0.78127  1.0000
  H   H982      1.0  0.64944  0.18512  0.77044  1.0000
  H   H983      1.0  0.60010  0.16247  0.68880  1.0000
  H   H984      1.0  0.60970  0.19980  0.79865  1.0000
  H   H985      1.0  0.61907  0.22460  0.85137  1.0000
  H   H986      1.0  0.63374  0.26490  0.84336  1.0000
  H   H987      1.0  0.63771  0.28107  0.78200  1.0000
  H   H988      1.0  0.62830  0.25662  0.72892  1.0000
  H   H989      1.0  0.58874  0.24261  0.67804  1.0000
  H   H990      1.0  0.54714  0.24669  0.65878  1.0000
  C   C1262     1.0  0.51836  0.09675  0.57423  1.0000
  H   H991      1.0  0.53084  0.18453  0.71751  1.0000
  H   H992      1.0  0.57229  0.18032  0.73761  1.0000
  H   H993      1.0  0.60850  0.20800  0.64228  1.0000
  H   H994      1.0  0.63488  0.21921  0.59338  1.0000
  H   H995      1.0  0.67536  0.23222  0.60714  1.0000
  H   H996      1.0  0.68977  0.23362  0.67013  1.0000
  H   H997      1.0  0.66369  0.22241  0.71959  1.0000
  H   H998      1.0  0.68157  0.21549  0.96131  1.0000
  P   P45       1.0  0.82698  0.19438  0.77805  1.0000
  H   H999      1.0  0.97674  0.11092  0.53753  1.0000
  C   C1263     1.0  0.92295  0.18746  0.53728  1.0000
  S   S176      1.0  0.50297  0.02676  0.70147  1.0000
  C   C1264     1.0  0.89262  0.30872  0.67272  1.0000
  H   H1000     1.0  0.92572  0.26310  0.55578  1.0000
  H   H1001     1.0  0.55718  0.06389  0.79972  1.0000
  C   C1265     1.0  0.98373  0.25978  0.50140  1.0000
  C   C1266     1.0  0.57555  0.08397  0.90209  1.0000
  C   C1267     1.0  0.59570  0.09550  0.91476  1.0000
  H   H1002     1.0  0.91302  0.18890  0.59277  1.0000
  H   H1003     1.0  0.54470  0.14901  0.52348  1.0000
  H   H1004     1.0  0.65622  0.11090  0.94332  1.0000
  C   C1268     1.0  0.81988  0.21379  0.74083  1.0000
  H   H1005     1.0  0.52409  0.29528  0.74911  1.0000
  C   C1269     1.0  0.78586  0.18140  0.86492  1.0000
  C   C1270     1.0  0.55232  0.23835  0.78992  1.0000
  C   C1271     1.0  0.83291  0.12348  0.75553  1.0000
  H   H1006     1.0  0.97504  0.22414  0.60403  1.0000
  H   H1007     1.0  0.86842  0.26046  0.83675  1.0000
  H   H1008     1.0  0.77533  0.20016  0.76610  1.0000
  H   H1009     1.0  0.86794  0.09896  0.92121  1.0000
  C   C1272     1.0  0.96251  0.24248  0.92849  1.0000
  H   H1010     1.0  0.58045  0.25988  0.80800  1.0000
  C   C1273     1.0  0.96825  0.20257  0.83210  1.0000
  P   P46       1.0  0.62215  0.09604  0.88808  1.0000
  H   H1011     1.0  0.90788  0.19816  0.52814  1.0000
  H   H1012     1.0  0.52786  0.18741  0.53672  1.0000
  C   C1274     1.0  0.80171  0.19097  0.80662  1.0000
  H   H1013     1.0  0.59300  0.28920  0.90916  1.0000
  H   H1014     1.0  0.53257  0.01595  0.76531  1.0000
  H   H1015     1.0  0.88818  0.13869  0.73129  1.0000
  C   C1275     1.0  0.94520  0.16843  0.58527  1.0000
  H   H1016     1.0  0.56029  0.22234  0.80091  1.0000
  C   C1276     1.0  0.95022  0.21837  0.84272  1.0000
  S   S177      1.0  0.60871  0.23852  0.50297  1.0000
  H   H1017     1.0  0.97682  0.27289  0.73846  1.0000
  H   H1018     1.0  0.91115  0.09527  0.92487  1.0000
  H   H1019     1.0  0.96739  0.28769  0.66732  1.0000
  C   C1277     1.0  0.75933  0.19341  0.81678  1.0000
  H   H1020     1.0  0.91401  0.30393  0.85600  1.0000
  H   H1021     1.0  0.51805  0.21768  0.67832  1.0000
  C   C1278     1.0  0.86438  0.27036  0.73782  1.0000
  C   C1279     1.0  0.87643  0.28020  0.76695  1.0000
  C   C1280     1.0  0.89927  0.27205  0.77560  1.0000
  C   C1281     1.0  0.91026  0.25438  0.75474  1.0000
  C   C1282     1.0  0.89844  0.24474  0.72490  1.0000
  C   C1283     1.0  0.87536  0.25277  0.71671  1.0000
  P   P47       1.0  0.91358  0.22311  0.69673  1.0000
  C   C1284     1.0  0.93660  0.23695  0.67184  1.0000
  C   C1285     1.0  0.92599  0.19949  0.72412  1.0000
  C   C1286     1.0  0.94318  0.18363  0.71010  1.0000
  C   C1287     1.0  0.95180  0.16464  0.73042  1.0000
  C   C1288     1.0  0.94319  0.16112  0.76479  1.0000
  C   C1289     1.0  0.92601  0.17661  0.77902  1.0000
  C   C1290     1.0  0.91742  0.19574  0.75885  1.0000
  C   C1291     1.0  0.94759  0.22454  0.64349  1.0000
  C   C1292     1.0  0.70125  0.27342  0.48611  1.0000
  C   C1293     1.0  0.55550  0.08285  0.92355  1.0000
  C   C1294     1.0  0.97403  0.25655  0.63480  1.0000
  C   C1295     1.0  0.94356  0.26006  0.67979  1.0000
  C   C1296     1.0  0.89370  0.21063  0.66381  1.0000
  C   C1297     1.0  0.88610  0.22414  0.63427  1.0000
  C   C1298     1.0  0.87125  0.21449  0.60805  1.0000
  C   C1299     1.0  0.86386  0.19130  0.61110  1.0000
  C   C1300     1.0  0.87138  0.17770  0.64037  1.0000
  C   C1301     1.0  0.88630  0.18727  0.66659  1.0000
  H   H1022     1.0  0.84673  0.27683  0.73108  1.0000
  H   H1023     1.0  0.86805  0.29413  0.78289  1.0000
  H   H1024     1.0  0.90847  0.27961  0.79841  1.0000
  H   H1025     1.0  0.92813  0.24854  0.76144  1.0000
  H   H1026     1.0  0.86593  0.24605  0.69360  1.0000
  H   H1027     1.0  0.94998  0.18553  0.68347  1.0000
  S   S178      1.0  0.82170  0.16512  0.97391  1.0000
  C   C1302     1.0  0.96111  0.27585  0.55122  1.0000
  H   H1028     1.0  0.91939  0.17374  0.80577  1.0000
  H   H1029     1.0  0.90386  0.20725  0.77036  1.0000
  H   H1030     1.0  0.94163  0.20739  0.63537  1.0000
  H   H1031     1.0  0.80590  0.14732  0.77551  1.0000
  C   C1303     1.0  0.52363  0.18934  0.50845  1.0000
  C   C1304     1.0  0.58251  0.29723  0.85468  1.0000
  H   H1032     1.0  0.93462  0.27088  0.69982  1.0000
  H   H1033     1.0  0.89163  0.24219  0.63150  1.0000
  H   H1034     1.0  0.86544  0.22504  0.58531  1.0000
  H   H1035     1.0  0.85237  0.18392  0.59064  1.0000
  H   H1036     1.0  0.93769  0.25466  0.84302  1.0000
  C   C1305     1.0  0.61995  0.07251  0.78334  1.0000
  C   C1306     1.0  0.87681  0.10131  0.94688  1.0000
  C   C1307     1.0  0.50316  0.11312  0.55736  1.0000
  H   H1037     1.0  0.52227  0.22087  0.76801  1.0000
  C   C1308     1.0  0.53094  0.30564  0.65620  1.0000
  C   C1309     1.0  0.63658  0.12369  0.89670  1.0000
  H   H1038     1.0  0.58136  0.27675  0.72357  1.0000
  S   S179      1.0  0.87528  0.18646  0.97233  1.0000
  C   C1310     1.0  0.64153  0.07186  0.90192  1.0000
  C   C1311     1.0  0.60136  0.08614  0.76871  1.0000
  C   C1312     1.0  0.53689  0.13478  0.53774  1.0000
  C   C1313     1.0  0.92581  0.18223  0.57364  1.0000
  C   C1314     1.0  0.58945  0.10293  0.79005  1.0000
  C   C1315     1.0  0.65239  0.12571  0.92588  1.0000
  C   C1316     1.0  0.67188  0.03436  0.92297  1.0000
  C   C1317     1.0  0.50948  0.25536  0.93780  1.0000
  H   H1039     1.0  0.57492  0.11340  0.77881  1.0000
  C   C1318     1.0  0.52742  0.04962  0.82653  1.0000
  C   C1319     1.0  0.95912  0.26313  0.94888  1.0000
  C   C1320     1.0  0.95837  0.16394  0.52368  1.0000
  H   H1040     1.0  0.57521  0.07580  0.87575  1.0000
  C   C1321     1.0  0.63126  0.14371  0.87587  1.0000
  H   H1041     1.0  0.57092  0.12108  0.55546  1.0000
  H   H1042     1.0  0.61860  0.14316  0.85404  1.0000
  C   C1322     1.0  0.98196  0.04836  0.93580  1.0000
  C   C1323     1.0  0.59594  0.10593  0.82607  1.0000
  C   C1324     1.0  0.74479  0.26879  0.48731  1.0000
  C   C1325     1.0  0.55200  0.11867  0.55542  1.0000
  H   H1043     1.0  0.94743  0.23203  0.92117  1.0000
  H   H1044     1.0  0.75554  0.19702  0.50627  1.0000
  C   C1326     1.0  0.55327  0.28065  0.78055  1.0000
  H   H1045     1.0  0.82913  0.21967  0.65090  1.0000
  H   H1046     1.0  0.80672  0.25698  0.66188  1.0000
  C   C1327     1.0  0.62665  0.07567  0.81932  1.0000
  C   C1328     1.0  0.68093  0.05372  0.90534  1.0000
  H   H1047     1.0  0.56554  0.28908  0.85733  1.0000
  H   H1048     1.0  0.96932  0.08108  0.86168  1.0000
  C   C1329     1.0  0.95365  0.13343  0.97707  1.0000
  H   H1049     1.0  0.97656  0.14920  0.57016  1.0000
  C   C1330     1.0  0.51227  0.13233  0.53903  1.0000
  H   H1050     1.0  0.53074  0.00309  0.88377  1.0000
  H   H1051     1.0  0.66516  0.18375  0.91975  1.0000
  C   C1331     1.0  0.96159  0.15953  0.56044  1.0000
  C   C1332     1.0  0.98769  0.23408  0.80122  1.0000
  C   C1333     1.0  0.69775  0.20712  0.97108  1.0000
  S   S180      1.0  0.49617  0.32390  0.70064  1.0000
  C   C1334     1.0  0.49618  0.18545  0.81791  1.0000
  H   H1052     1.0  0.61387  0.05127  0.92504  1.0000
  C   C1335     1.0  0.97073  0.06269  0.96175  1.0000
  C   C1336     1.0  0.97509  0.13802  0.96026  1.0000
  C   C1337     1.0  0.91234  0.31625  0.65417  1.0000
  C   C1338     1.0  0.96643  0.23412  0.62539  1.0000
  C   C1339     1.0  0.59554  0.10557  0.94934  1.0000
  H   H1053     1.0  0.53995  0.09258  0.97451  1.0000
  C   C1340     1.0  0.96998  0.25011  0.81328  1.0000
  C   C1341     1.0  0.64770  0.03360  0.92990  1.0000
  H   H1054     1.0  0.63168  0.30830  0.90474  1.0000
  H   H1055     1.0  0.51122  0.08194  0.58822  1.0000
  H   H1056     1.0  0.98874  0.26382  0.62105  1.0000
  H   H1057     1.0  0.56882  0.25705  0.95249  1.0000
  H   H1058     1.0  0.91875  0.30137  0.49346  1.0000
  C   C1342     1.0  0.98889  0.30844  0.74001  1.0000
  C   C1343     1.0  0.49719  0.29811  0.57119  1.0000
  C   C1344     1.0  0.51965  0.03239  0.85004  1.0000
  H   H1059     1.0  0.49306  0.23998  0.48384  1.0000
  C   C1345     1.0  0.94189  0.26237  0.54043  1.0000
  H   H1060     1.0  0.57245  0.00358  0.86562  1.0000
  C   C1346     1.0  0.58310  0.31304  0.74235  1.0000
  H   H1061     1.0  0.50009  0.27300  0.82021  1.0000
  H   H1062     1.0  0.51040  0.23182  0.54385  1.0000
  H   H1063     1.0  0.84465  0.11022  0.97494  1.0000
  C   C1347     1.0  0.60230  0.32156  0.67458  1.0000
  C   C1348     1.0  0.95876  0.08373  0.95169  1.0000
  H   H1064     1.0  0.98795  0.21961  0.90137  1.0000
  H   H1065     1.0  0.97337  0.31558  0.72622  1.0000
  C   C1349     1.0  0.94705  0.31824  0.96679  1.0000
  H   H1066     1.0  0.50357  0.19763  0.87152  1.0000
  H   H1067     1.0  0.92950  0.31656  0.60276  1.0000
  H   H1068     1.0  0.50419  0.16813  0.82229  1.0000
  S   S181      1.0  0.88069  0.26546  0.49677  1.0000
  H   H1069     1.0  0.51049  0.28469  0.56447  1.0000
  C   C1350     1.0  0.98143  0.05492  0.89972  1.0000
  C   C1351     1.0  0.98225  0.27472  0.53167  1.0000
  H   H1070     1.0  0.98800  0.20325  0.74097  1.0000
  C   C1352     1.0  0.98522  0.23549  0.91746  1.0000
  C   C1353     1.0  0.62612  0.31875  0.84969  1.0000
  Fe  Fe85      1.0  0.98850  0.11691  0.80446  1.0000
  H   H1071     1.0  0.49706  0.15677  0.59738  1.0000
  C   C1354     1.0  0.74118  0.20291  0.96925  1.0000
  H   H1072     1.0  0.95957  0.31874  0.91196  1.0000
  C   C1355     1.0  0.61071  0.31863  0.82005  1.0000
  C   C1356     1.0  0.96437  0.24660  0.49042  1.0000
  H   H1073     1.0  0.96784  0.18425  0.83991  1.0000
  C   C1357     1.0  0.94534  0.32357  0.93013  1.0000
  C   C1358     1.0  0.57545  0.10451  0.97064  1.0000
  C   C1359     1.0  0.55543  0.09321  0.95779  1.0000
  H   H1074     1.0  0.98638  0.12372  0.95056  1.0000
  H   H1075     1.0  0.49278  0.02797  0.94336  1.0000
  H   H1076     1.0  0.93668  0.18257  0.48420  1.0000
  C   C1360     1.0  0.86366  0.10766  0.97718  1.0000
  C   C1361     1.0  0.91314  0.10280  0.98208  1.0000
  H   H1077     1.0  0.92929  0.13576  0.48453  1.0000
  H   H1078     1.0  0.49311  0.25877  0.95182  1.0000
  H   H1079     1.0  0.99113  0.03215  0.94360  1.0000
  Fe  Fe86      1.0  0.54744  0.61032  0.28927  1.0000
  S   S182      1.0  0.52478  0.63630  0.25883  1.0000
  S   S183      1.0  0.57901  0.62292  0.32205  1.0000
  Fe  Fe87      1.0  0.51696  0.56814  0.26708  1.0000
  C   C1362     1.0  0.50975  0.64016  0.98468  1.0000
  H   H1080     1.0  0.52516  0.63743  0.08393  1.0000
  Fe  Fe88      1.0  0.52421  0.60922  0.21479  1.0000
  S   S184      1.0  0.52288  0.62079  0.15606  1.0000
  C   C1363     1.0  0.59571  0.46940  0.26258  1.0000
  S   S185      1.0  0.54950  0.58389  0.24325  1.0000
  S   S186      1.0  0.51685  0.59313  0.31535  1.0000
  Fe  Fe89      1.0  0.51936  0.38769  0.21193  1.0000
  C   C1364     1.0  0.67313  0.62176  0.03447  1.0000
  S   S187      1.0  0.52039  0.42746  0.19836  1.0000
  Fe  Fe90      1.0  0.54868  0.34098  0.19954  1.0000
  H   H1081     1.0  0.52764  0.51413  0.20719  1.0000
  H   H1082     1.0  0.63418  0.61186  0.10168  1.0000
  Fe  Fe91      1.0  0.51914  0.34812  0.26726  1.0000
  S   S188      1.0  0.51890  0.34308  0.32798  1.0000
  S   S189      1.0  0.52257  0.36144  0.16557  1.0000
  S   S190      1.0  0.54822  0.36877  0.24342  1.0000
  S   S191      1.0  0.95553  0.62227  0.18386  1.0000
  C   C1365     1.0  0.65317  0.41207  0.21182  1.0000
  H   H1083     1.0  0.93123  0.48388  0.23659  1.0000
  S   S192      1.0  0.89242  0.63069  0.04172  1.0000
  C   C1366     1.0  0.52299  0.60812  0.02361  1.0000
  H   H1084     1.0  0.97893  0.48830  0.32747  1.0000
  H   H1085     1.0  0.55093  0.37720  0.44064  1.0000
  C   C1367     1.0  0.70073  0.56769  0.04112  1.0000
  H   H1086     1.0  0.92187  0.58564  0.20662  1.0000
  H   H1087     1.0  0.69422  0.39531  0.29219  1.0000
  H   H1088     1.0  0.50114  0.55538  0.39858  1.0000
  H   H1089     1.0  0.56765  0.40965  0.28405  1.0000
  C   C1368     1.0  0.57408  0.46889  0.28027  1.0000
  H   H1090     1.0  0.60302  0.48621  0.25577  1.0000
  H   H1091     1.0  0.56055  0.60083  0.02525  1.0000
  H   H1092     1.0  0.96467  0.53064  0.15782  1.0000
  C   C1369     1.0  0.65867  0.60931  0.05764  1.0000
  C   C1370     1.0  0.50776  0.34201  0.07521  1.0000
  H   H1093     1.0  0.51036  0.38622  0.41795  1.0000
  H   H1094     1.0  0.53429  0.37349  0.01053  1.0000
  C   C1371     1.0  0.60624  0.37562  0.27700  1.0000
  C   C1372     1.0  0.91128  0.63029  0.08005  1.0000
  C   C1373     1.0  0.93061  0.61416  0.08126  1.0000
  C   C1374     1.0  0.94486  0.61206  0.11239  1.0000
  C   C1375     1.0  0.93946  0.62561  0.14299  1.0000
  Fe  Fe92      1.0  0.49510  0.34069  0.19342  1.0000
  S   S193      1.0  0.98523  0.36508  0.24342  1.0000
  H   H1095     1.0  0.93451  0.60314  0.05805  1.0000
  H   H1096     1.0  0.95969  0.59961  0.11293  1.0000
  C   C1376     1.0  0.58303  0.38019  0.13302  1.0000
  H   H1097     1.0  0.94192  0.56865  0.15327  1.0000
  C   C1377     1.0  0.68275  0.39997  0.26972  1.0000
  H   H1098     1.0  0.61198  0.35477  0.13064  1.0000
  H   H1099     1.0  0.51097  0.32728  0.09311  1.0000
  H   H1100     1.0  0.58574  0.58150  0.45911  1.0000
  H   H1101     1.0  0.64193  0.41707  0.18927  1.0000
  C   C1378     1.0  0.52070  0.36801  0.02867  1.0000
  C   C1379     1.0  0.54392  0.63836  0.13442  1.0000
  H   H1102     1.0  0.57099  0.41702  0.20320  1.0000
  C   C1380     1.0  0.56440  0.44727  0.28861  1.0000
  C   C1381     1.0  0.61244  0.37479  0.18015  1.0000
  C   C1382     1.0  0.59783  0.42646  0.26104  1.0000
  H   H1103     1.0  0.65705  0.59041  0.05499  1.0000
  C   C1383     1.0  0.96575  0.55373  0.33444  1.0000
  C   C1384     1.0  0.93099  0.56860  0.20844  1.0000
  C   C1385     1.0  0.60759  0.44828  0.25302  1.0000
  C   C1386     1.0  0.51355  0.50080  0.25611  1.0000
  C   C1387     1.0  0.52241  0.49854  0.22121  1.0000
  C   C1388     1.0  0.52443  0.47606  0.20424  1.0000
  C   C1389     1.0  0.51779  0.45535  0.22176  1.0000
  H   H1104     1.0  0.49997  0.48144  0.30054  1.0000
  C   C1390     1.0  0.54255  0.32681  0.38792  1.0000
  H   H1105     1.0  0.51911  0.59474  0.04310  1.0000
  C   C1391     1.0  0.75318  0.63542  0.02401  1.0000
  H   H1106     1.0  0.56458  0.48524  0.28694  1.0000
  H   H1107     1.0  0.94335  0.35433  0.36641  1.0000
  H   H1108     1.0  0.60719  0.39830  0.32419  1.0000
  C   C1392     1.0  0.50891  0.45760  0.25665  1.0000
  H   H1109     1.0  0.68348  0.65644  0.01813  1.0000
  Fe  Fe93      1.0  0.98313  0.33994  0.28997  1.0000
  C   C1393     1.0  0.93238  0.33934  0.37083  1.0000
  H   H1110     1.0  0.70434  0.58030  0.06243  1.0000
  C   C1394     1.0  0.50688  0.48008  0.27362  1.0000
  H   H1111     1.0  0.98791  0.44564  0.32184  1.0000
  H   H1112     1.0  0.54241  0.34015  0.05157  1.0000
  C   C1395     1.0  0.64556  0.62139  0.08404  1.0000
  C   C1396     1.0  0.70408  0.54356  0.04761  1.0000
  C   C1397     1.0  0.56363  0.64714  0.15252  1.0000
  H   H1113     1.0  0.50775  0.60624  0.40820  1.0000
  C   C1398     1.0  0.64658  0.64592  0.08714  1.0000
  C   C1399     1.0  0.98413  0.56612  0.35062  1.0000
  H   H1114     1.0  0.62807  0.36547  0.19018  1.0000
  H   H1115     1.0  0.96973  0.33373  0.04787  1.0000
  C   C1400     1.0  0.56723  0.60075  0.41752  1.0000
  H   H1116     1.0  0.70250  0.50840  0.02526  1.0000
  H   H1117     1.0  0.96578  0.37281  0.11081  1.0000
  C   C1401     1.0  0.52570  0.58594  0.44990  1.0000
  H   H1118     1.0  0.62406  0.44911  0.23876  1.0000
  H   H1119     1.0  0.96907  0.42201  0.27398  1.0000
  H   H1120     1.0  0.91616  0.65267  0.16504  1.0000
  H   H1121     1.0  0.71003  0.53764  0.07384  1.0000
  C   C1402     1.0  0.72974  0.62846  0.02584  1.0000
  C   C1403     1.0  0.59357  0.65573  0.37255  1.0000
  C   C1404     1.0  0.58044  0.40365  0.18764  1.0000
  H   H1122     1.0  0.65137  0.38985  0.29647  1.0000
  H   H1123     1.0  0.53936  0.65557  0.33267  1.0000
  C   C1405     1.0  0.54634  0.61150  0.01357  1.0000
  C   C1406     1.0  0.69988  0.52709  0.02024  1.0000
  H   H1124     1.0  0.57575  0.37506  0.10718  1.0000
  C   C1407     1.0  0.94238  0.55907  0.17829  1.0000
  C   C1408     1.0  0.54520  0.60761  0.40342  1.0000
  C   C1409     1.0  0.69233  0.40906  0.23851  1.0000
  P   P48       1.0  0.68932  0.60671  0.99917  1.0000
  C   C1410     1.0  0.95503  0.53763  0.18079  1.0000
  C   C1411     1.0  0.98413  0.37746  0.11365  1.0000
  C   C1412     1.0  0.87187  0.39943  0.46046  1.0000
  H   H1125     1.0  0.89191  0.33770  0.99176  1.0000
  C   C1413     1.0  0.64344  0.40263  0.24290  1.0000
  H   H1126     1.0  0.92609  0.54689  0.00285  1.0000
  C   C1414     1.0  0.50475  0.62231  0.00913  1.0000
  C   C1415     1.0  0.59660  0.33964  0.32571  1.0000
  H   H1127     1.0  0.60416  0.34777  0.23666  1.0000
  C   C1416     1.0  0.94885  0.45154  0.25237  1.0000
  C   C1417     1.0  0.96470  0.44071  0.27648  1.0000
  H   H1128     1.0  0.49571  0.39467  0.01137  1.0000
  C   C1418     1.0  0.52455  0.60051  0.41967  1.0000
  C   C1419     1.0  0.95505  0.48948  0.28155  1.0000
  C   C1420     1.0  0.94379  0.47579  0.25516  1.0000
  P   P49       1.0  0.94739  0.52046  0.28642  1.0000
  C   C1421     1.0  0.90654  0.64460  0.11013  1.0000
  C   C1422     1.0  0.94439  0.53484  0.24360  1.0000
  C   C1423     1.0  0.93220  0.55669  0.24111  1.0000
  C   C1424     1.0  0.52526  0.34912  0.05175  1.0000
  H   H1129     1.0  0.94061  0.44112  0.23144  1.0000
  C   C1425     1.0  0.49712  0.52769  0.47740  1.0000
  C   C1426     1.0  0.95613  0.52558  0.21334  1.0000
  H   H1130     1.0  0.53122  0.47473  0.17724  1.0000
  H   H1131     1.0  0.61017  0.64580  0.37299  1.0000
  H   H1132     1.0  0.89892  0.37535  0.47899  1.0000
  H   H1133     1.0  0.89171  0.65705  0.10956  1.0000
  C   C1427     1.0  0.60332  0.35230  0.26484  1.0000
  C   C1428     1.0  0.92040  0.52167  0.31172  1.0000
  C   C1429     1.0  0.92114  0.51773  0.34887  1.0000
  C   C1430     1.0  0.90025  0.51792  0.36860  1.0000
  C   C1431     1.0  0.87846  0.52165  0.35127  1.0000
  C   C1432     1.0  0.87755  0.52497  0.31414  1.0000
  C   C1433     1.0  0.89842  0.52479  0.29434  1.0000
  C   C1434     1.0  0.67349  0.64645  0.03708  1.0000
  H   H1134     1.0  0.91563  0.35453  0.41794  1.0000
  C   C1435     1.0  0.56860  0.58673  0.44815  1.0000
  C   C1436     1.0  0.97538  0.45409  0.30351  1.0000
  C   C1437     1.0  0.69283  0.57549  0.00731  1.0000
  H   H1135     1.0  0.92406  0.56478  0.26454  1.0000
  C   C1438     1.0  0.97050  0.47835  0.30622  1.0000
  H   H1136     1.0  0.97902  0.64538  0.23942  1.0000
  H   H1137     1.0  0.98026  0.57992  0.37020  1.0000
  H   H1138     1.0  0.96679  0.50946  0.21500  1.0000
  C   C1439     1.0  0.49877  0.38001  0.02930  1.0000
  H   H1139     1.0  0.50352  0.44202  0.27055  1.0000
  H   H1140     1.0  0.71121  0.41142  0.23676  1.0000
  H   H1141     1.0  0.72004  0.63206  0.05026  1.0000
  H   H1142     1.0  0.89993  0.58250  0.00956  1.0000
  H   H1143     1.0  0.93788  0.51437  0.36253  1.0000
  H   H1144     1.0  0.90095  0.51498  0.39730  1.0000
  H   H1145     1.0  0.86227  0.52170  0.36657  1.0000
  H   H1146     1.0  0.86063  0.52748  0.30063  1.0000
  H   H1147     1.0  0.89732  0.52679  0.26549  1.0000
  H   H1148     1.0  0.55562  0.40648  0.14368  1.0000
  C   C1440     1.0  0.85313  0.41478  0.46981  1.0000
  C   C1441     1.0  0.60073  0.39197  0.20146  1.0000
  C   C1442     1.0  0.60476  0.38056  0.31401  1.0000
  H   H1149     1.0  0.54750  0.44688  0.30192  1.0000
  C   C1443     1.0  0.53584  0.37411  0.45746  1.0000
  Fe  Fe94      1.0  0.49398  0.61779  0.28227  1.0000
  H   H1150     1.0  0.59250  0.32584  0.34439  1.0000
  C   C1444     1.0  0.97078  0.53592  0.30890  1.0000
  H   H1151     1.0  0.58318  0.60629  0.40448  1.0000
  C   C1445     1.0  0.67754  0.41516  0.20961  1.0000
  P   P50       1.0  0.61191  0.39913  0.24585  1.0000
  C   C1446     1.0  0.57602  0.42615  0.27866  1.0000
  H   H1152     1.0  0.68494  0.42230  0.18545  1.0000
  C   C1447     1.0  0.60352  0.36885  0.14617  1.0000
  C   C1448     1.0  0.65839  0.39685  0.27202  1.0000
  C   C1449     1.0  0.57165  0.39775  0.15360  1.0000
  C   C1450     1.0  0.92037  0.64201  0.14159  1.0000
  C   C1451     1.0  0.55707  0.65712  0.07931  1.0000
  P   P51       1.0  0.49869  0.57690  0.47037  1.0000
  C   C1452     1.0  0.91661  0.33943  0.39997  1.0000
  C   C1453     1.0  0.51294  0.37912  0.44469  1.0000
  C   C1454     1.0  0.54057  0.64376  0.09792  1.0000
  C   C1455     1.0  0.57523  0.64848  0.34952  1.0000
  H   H1153     1.0  0.59833  0.36662  0.36659  1.0000
  H   H1154     1.0  0.54406  0.61824  0.37953  1.0000
  H   H1155     1.0  0.56637  0.64332  0.18069  1.0000
  H   H1156     1.0  0.87598  0.39616  0.43244  1.0000
  H   H1157     1.0  0.53575  0.34279  0.40043  1.0000
  C   C1456     1.0  0.55137  0.62869  0.98841  1.0000
  S   S194      1.0  0.51044  0.52875  0.27926  1.0000
  H   H1158     1.0  0.94770  0.55839  0.34144  1.0000
  C   C1457     1.0  0.54791  0.57935  0.46439  1.0000
  Fe  Fe95      1.0  0.99078  0.60203  0.19035  1.0000
  C   C1458     1.0  0.94801  0.64838  0.98584  1.0000
  H   H1159     1.0  0.84285  0.42366  0.44903  1.0000
  H   H1160     1.0  0.98160  0.38452  0.17036  1.0000
  C   C1459     1.0  0.59833  0.33448  0.28907  1.0000
  C   C1460     1.0  0.59987  0.36266  0.33819  1.0000
  H   H1161     1.0  0.76112  0.64483  0.04638  1.0000
  H   H1162     1.0  0.98608  0.65337  0.14853  1.0000
  C   C1461     1.0  0.90282  0.57462  0.98321  1.0000
  C   C1462     1.0  0.76627  0.63091  0.99299  1.0000
  H   H1163     1.0  0.78427  0.63687  0.99151  1.0000
  H   H1164     1.0  0.50819  0.62760  0.48003  1.0000
  C   C1463     1.0  0.71914  0.61701  0.99643  1.0000
  H   H1165     1.0  0.63609  0.65530  0.10720  1.0000
  C   C1464     1.0  0.49344  0.37503  0.46633  1.0000
  H   H1166     1.0  0.99209  0.37160  0.05774  1.0000
  C   C1465     1.0  0.69252  0.53476  0.98627  1.0000
  H   H1167     1.0  0.96761  0.32502  0.11266  1.0000
  Fe  Fe96      1.0  0.93115  0.34752  0.73256  1.0000
  S   S195      1.0  0.90106  0.37046  0.75291  1.0000
  C   C1466     1.0  0.87917  0.53420  0.82184  1.0000
  Fe  Fe97      1.0  0.95770  0.34902  0.80532  1.0000
  S   S196      1.0  0.92954  0.37283  0.82978  1.0000
  C   C1467     1.0  0.83487  0.33753  0.61717  1.0000
  Fe  Fe98      1.0  0.90396  0.34848  0.80321  1.0000
  H   H1168     1.0  0.95291  0.63707  0.61804  1.0000
  Fe  Fe99      1.0  0.92943  0.39317  0.77747  1.0000
  S   S197      1.0  0.92305  0.43389  0.77793  1.0000
  C   C1468     1.0  0.97673  0.61426  0.95166  1.0000
  S   S198      1.0  0.95971  0.37080  0.75476  1.0000
  Fe  Fe100     1.0  0.94785  0.57174  0.71014  1.0000
  S   S199      1.0  0.97336  0.59562  0.73934  1.0000
  S   S200      1.0  0.95602  0.53135  0.70735  1.0000
  Fe  Fe101     1.0  0.91622  0.61496  0.68891  1.0000
  S   S201      1.0  0.93879  0.64047  0.71871  1.0000
  S   S202      1.0  0.88334  0.62942  0.66004  1.0000
  Fe  Fe102     1.0  0.96935  0.62058  0.69269  1.0000
  Fe  Fe103     1.0  0.94060  0.61339  0.76203  1.0000
  S   S203      1.0  0.93875  0.61962  0.82240  1.0000
  S   S204      1.0  0.94638  0.59567  0.66135  1.0000
  S   S205      1.0  0.91544  0.58898  0.73450  1.0000
  C   C1469     1.0  0.59015  0.33578  0.73334  1.0000
  C   C1470     1.0  0.91445  0.46026  0.87764  1.0000
  H   H1169     1.0  0.51447  0.49002  0.54392  1.0000
  C   C1471     1.0  0.51853  0.64614  0.82705  1.0000
  S   S206      1.0  0.58101  0.63708  0.90686  1.0000
  C   C1472     1.0  0.55647  0.64103  0.87712  1.0000
  H   H1170     1.0  0.88052  0.60026  0.95614  1.0000
  S   S207      1.0  0.87301  0.33261  0.83244  1.0000
  C   C1473     1.0  0.73259  0.61205  0.96565  1.0000
  C   C1474     1.0  0.52551  0.62372  0.83925  1.0000
  C   C1475     1.0  0.54450  0.62120  0.86401  1.0000
  C   C1476     1.0  0.51984  0.36209  0.76775  1.0000
  H   H1171     1.0  0.87567  0.59972  0.79259  1.0000
  C   C1477     1.0  0.66461  0.63586  0.90545  1.0000
  H   H1172     1.0  0.55007  0.60377  0.87284  1.0000
  H   H1173     1.0  0.85129  0.65760  0.70731  1.0000
  C   C1478     1.0  0.53750  0.34794  0.62056  1.0000
  C   C1479     1.0  0.52059  0.34690  0.64795  1.0000
  H   H1174     1.0  0.93298  0.52908  0.94285  1.0000
  C   C1480     1.0  0.89280  0.57420  0.82716  1.0000
  H   H1175     1.0  0.54028  0.36449  0.60727  1.0000
  S   S208      1.0  0.49569  0.65085  0.79449  1.0000
  C   C1481     1.0  0.91752  0.63909  0.84220  1.0000
  H   H1176     1.0  0.84927  0.57060  0.76388  1.0000
  C   C1482     1.0  0.51249  0.36807  0.80243  1.0000
  H   H1177     1.0  0.97859  0.65216  0.82848  1.0000
  C   C1483     1.0  0.51718  0.32573  0.66583  1.0000
  C   C1484     1.0  0.94710  0.32576  0.49678  1.0000
  H   H1178     1.0  0.88697  0.58294  0.89623  1.0000
  C   C1485     1.0  0.93819  0.62787  0.97191  1.0000
  H   H1179     1.0  0.49662  0.37563  0.59490  1.0000
  H   H1180     1.0  0.98785  0.60086  0.93882  1.0000
  C   C1486     1.0  0.50096  0.50647  0.49570  1.0000
  H   H1181     1.0  0.85184  0.52862  0.78221  1.0000
  C   C1487     1.0  0.65052  0.60169  0.95369  1.0000
  C   C1488     1.0  0.93225  0.49533  0.85473  1.0000
  C   C1489     1.0  0.96241  0.55771  0.87837  1.0000
  C   C1490     1.0  0.93126  0.47076  0.85633  1.0000
  H   H1182     1.0  0.52305  0.35472  0.54063  1.0000
  C   C1491     1.0  0.93226  0.46065  0.75720  1.0000
  C   C1492     1.0  0.95169  0.46137  0.73426  1.0000
  C   C1493     1.0  0.95853  0.48304  0.71941  1.0000
  C   C1494     1.0  0.94615  0.50447  0.72701  1.0000
  C   C1495     1.0  0.92651  0.50369  0.74958  1.0000
  C   C1496     1.0  0.91976  0.48204  0.76462  1.0000
  H   H1183     1.0  0.96163  0.44526  0.72826  1.0000
  C   C1497     1.0  0.94454  0.55044  0.85461  1.0000
  H   H1184     1.0  0.91633  0.51971  0.75515  1.0000
  H   H1185     1.0  0.90463  0.48185  0.78208  1.0000
  H   H1186     1.0  0.90718  0.62599  0.52705  1.0000
  C   C1498     1.0  0.98666  0.63476  0.96572  1.0000
  H   H1187     1.0  0.54131  0.33913  0.73503  1.0000
  H   H1188     1.0  0.66959  0.64987  0.88772  1.0000
  C   C1499     1.0  0.93862  0.36207  0.52965  1.0000
  C   C1500     1.0  0.91587  0.35437  0.53751  1.0000
  C   C1501     1.0  0.90891  0.33232  0.52439  1.0000
  P   P52       1.0  0.89469  0.37459  0.55827  1.0000
  C   C1502     1.0  0.87198  0.35920  0.58174  1.0000
  C   C1503     1.0  0.91038  0.39314  0.58979  1.0000
  C   C1504     1.0  0.92560  0.38257  0.61530  1.0000
  C   C1505     1.0  0.93659  0.39626  0.64171  1.0000
  C   C1506     1.0  0.93292  0.42074  0.64233  1.0000
  C   C1507     1.0  0.91844  0.43153  0.61629  1.0000
  C   C1508     1.0  0.90720  0.41782  0.59005  1.0000
  C   C1509     1.0  0.87111  0.35918  0.61949  1.0000
  H   H1189     1.0  0.72493  0.60274  0.94301  1.0000
  C   C1510     1.0  0.91758  0.55459  0.97938  1.0000
  H   H1190     1.0  0.54940  0.56846  0.48797  1.0000
  H   H1191     1.0  0.49950  0.38226  0.80650  1.0000
  C   C1511     1.0  0.87941  0.39122  0.52356  1.0000
  H   H1192     1.0  0.97013  0.35025  0.62497  1.0000
  C   C1512     1.0  0.49671  0.36525  0.50058  1.0000
  H   H1193     1.0  0.49872  0.51513  0.62522  1.0000
  C   C1513     1.0  0.67235  0.61248  0.95881  1.0000
  C   C1514     1.0  0.86030  0.40638  0.53269  1.0000
  H   H1194     1.0  0.51664  0.60833  0.82914  1.0000
  H   H1195     1.0  0.92427  0.33978  0.88831  1.0000
  S   S209      1.0  0.57184  0.33001  0.57542  1.0000
  H   H1196     1.0  0.94409  0.37941  0.53825  1.0000
  C   C1515     1.0  0.52178  0.35563  0.83176  1.0000
  H   H1197     1.0  0.92815  0.36357  0.61561  1.0000
  H   H1198     1.0  0.94748  0.38779  0.66224  1.0000
  C   C1516     1.0  0.55078  0.32774  0.61014  1.0000
  H   H1199     1.0  0.91566  0.45053  0.61689  1.0000
  H   H1200     1.0  0.89597  0.42659  0.57041  1.0000
  H   H1201     1.0  0.88453  0.36731  0.63583  1.0000
  C   C1517     1.0  0.85382  0.34847  0.56203  1.0000
  H   H1202     1.0  0.84905  0.65375  0.61507  1.0000
  H   H1203     1.0  0.94110  0.43134  0.66321  1.0000
  C   C1518     1.0  0.88497  0.38767  0.48716  1.0000
  C   C1519     1.0  0.83543  0.33763  0.57973  1.0000
  C   C1520     1.0  0.97202  0.55277  0.80516  1.0000
  C   C1521     1.0  0.53861  0.33740  0.82646  1.0000
  H   H1204     1.0  0.49596  0.65660  0.52629  1.0000
  H   H1205     1.0  0.85522  0.40872  0.56051  1.0000
  H   H1206     1.0  0.93614  0.54258  0.79894  1.0000
  H   H1207     1.0  0.91341  0.44118  0.87790  1.0000
  C   C1522     1.0  0.53927  0.36512  0.49194  1.0000
  C   C1523     1.0  0.94720  0.64149  0.59105  1.0000
  H   H1208     1.0  0.89116  0.32636  0.52828  1.0000
  C   C1524     1.0  0.86298  0.54144  0.79525  1.0000
  H   H1209     1.0  0.51251  0.37149  0.74481  1.0000
  H   H1210     1.0  0.94500  0.50285  0.83708  1.0000
  H   H1211     1.0  0.88024  0.51572  0.82880  1.0000
  C   C1525     1.0  0.95248  0.61088  0.95458  1.0000
  C   C1526     1.0  0.89413  0.55062  0.83822  1.0000
  H   H1212     1.0  0.95925  0.55932  0.90682  1.0000
  H   H1213     1.0  0.51042  0.36256  0.65560  1.0000
  S   S210      1.0  0.98147  0.32498  0.83966  1.0000
  C   C1527     1.0  0.90708  0.33424  0.97482  1.0000
  H   H1214     1.0  0.97152  0.35400  0.50285  1.0000
  C   C1528     1.0  0.98358  0.33632  0.62324  1.0000
  C   C1529     1.0  0.92153  0.63532  0.53971  1.0000
  C   C1530     1.0  0.88483  0.65573  0.63492  1.0000
  H   H1215     1.0  0.92760  0.65688  0.49385  1.0000
  H   H1216     1.0  0.90708  0.65635  0.79321  1.0000
  C   C1531     1.0  0.90458  0.65567  0.82193  1.0000
  H   H1217     1.0  0.82087  0.32868  0.63077  1.0000
  S   S211      1.0  0.93487  0.33234  0.67591  1.0000
  H   H1218     1.0  0.85232  0.34820  0.66610  1.0000
  C   C1532     1.0  0.93291  0.65304  0.52121  1.0000
  C   C1533     1.0  0.59954  0.34002  0.69948  1.0000
  H   H1219     1.0  0.89008  0.34862  0.92738  1.0000
  H   H1220     1.0  0.61902  0.59970  0.92073  1.0000
  H   H1221     1.0  0.92430  0.62575  0.89524  1.0000
  H   H1222     1.0  0.63147  0.62992  0.87815  1.0000
  C   C1534     1.0  0.92525  0.33534  0.91649  1.0000
  C   C1535     1.0  0.90600  0.34041  0.93863  1.0000
  H   H1223     1.0  0.85336  0.65571  0.77375  1.0000
  C   C1536     1.0  0.54628  0.33145  0.79164  1.0000
  H   H1224     1.0  0.61598  0.32710  0.79565  1.0000
  C   C1537     1.0  0.53313  0.64273  0.97350  1.0000
  C   C1538     1.0  0.86153  0.56508  0.78490  1.0000
  C   C1539     1.0  0.89188  0.58464  0.95302  1.0000
  H   H1225     1.0  0.68953  0.52201  0.96493  1.0000
  H   H1226     1.0  0.89614  0.65383  0.92538  1.0000
  C   C1540     1.0  0.92142  0.54458  0.94534  1.0000
  C   C1541     1.0  0.92862  0.62960  0.57468  1.0000
  C   C1542     1.0  0.87634  0.58147  0.80106  1.0000
  C   C1543     1.0  0.98961  0.56028  0.82882  1.0000
  H   H1227     1.0  0.91965  0.61609  0.58928  1.0000
  C   C1544     1.0  0.95416  0.34780  0.50935  1.0000
  H   H1228     1.0  0.90469  0.58693  0.83854  1.0000
  C   C1545     1.0  0.91437  0.63857  0.87953  1.0000
  H   H1229     1.0  0.85380  0.34847  0.53292  1.0000
  C   C1546     1.0  0.64313  0.62473  0.90015  1.0000
  C   C1547     1.0  0.85260  0.34846  0.63702  1.0000
  C   C1548     1.0  0.89845  0.65449  0.89661  1.0000
  H   H1230     1.0  0.58760  0.35043  0.75197  1.0000
  H   H1231     1.0  0.76617  0.61575  0.93978  1.0000
  H   H1232     1.0  0.83256  0.42985  0.51315  1.0000
  C   C1549     1.0  0.98479  0.56285  0.86541  1.0000
  C   C1550     1.0  0.53644  0.34374  0.76232  1.0000
  C   C1551     1.0  0.75600  0.61919  0.96383  1.0000
  H   H1233     1.0  0.54548  0.32810  0.84963  1.0000
  H   H1234     1.0  0.88705  0.50967  0.91150  1.0000
  C   C1552     1.0  0.84735  0.41826  0.50592  1.0000
  C   C1553     1.0  0.89970  0.49898  0.89638  1.0000
  H   H1235     1.0  0.60417  0.35773  0.69212  1.0000
  C   C1554     1.0  0.91060  0.55459  0.91473  1.0000
  H   H1236     1.0  0.97578  0.55026  0.77686  1.0000
  H   H1237     1.0  0.94311  0.45980  0.84010  1.0000
  C   C1555     1.0  0.94949  0.54828  0.81784  1.0000
  C   C1556     1.0  0.89874  0.47436  0.89781  1.0000
  P   P53       1.0  0.91626  0.54144  0.87093  1.0000
  H   H1238     1.0  0.88557  0.46616  0.91405  1.0000
  H   H1239     1.0  0.91945  0.62515  0.97490  1.0000
  H   H1240     1.0  0.97368  0.48324  0.70196  1.0000
  H   H1241     1.0  0.51592  0.36016  0.85863  1.0000
  C   C1557     1.0  0.51985  0.36107  0.51360  1.0000
  C   C1558     1.0  0.91647  0.50966  0.87478  1.0000
  C   C1559     1.0  0.89572  0.57472  0.91892  1.0000
  H   H1242     1.0  0.94474  0.59507  0.94366  1.0000
  H   H1243     1.0  0.69517  0.63942  0.93915  1.0000
  C   C1560     1.0  0.51405  0.54903  0.52772  1.0000
  C   C1561     1.0  0.67914  0.62982  0.93471  1.0000
  C   C1562     1.0  0.68917  0.55889  0.97969  1.0000
  H   H1244     1.0  0.51929  0.56536  0.54053  1.0000
  H   H1245     1.0  0.55701  0.36134  0.50212  1.0000
  H   H1246     1.0  0.68394  0.56447  0.95300  1.0000
  H   H1247     1.0  0.56946  0.63107  0.98031  1.0000
  C   C1563     1.0  0.49672  0.62214  0.50131  1.0000
  C   C1564     1.0  0.63612  0.60761  0.92422  1.0000
  H   H1248     1.0  0.79623  0.65266  0.85442  1.0000
  H   H1249     1.0  0.53747  0.65526  0.95306  1.0000
  H   H1250     1.0  0.49486  0.41249  0.63111  1.0000
  H   H1251     1.0  0.52619  0.52782  0.57223  1.0000
  H   H1252     1.0  0.97532  0.32768  0.56856  1.0000
  H   H1253     1.0  0.50875  0.55517  0.64733  1.0000
  H   H1254     1.0  0.64431  0.58919  0.97298  1.0000
  H   H1255     1.0  0.98485  0.34540  0.93873  1.0000
  H   H1256     1.0  0.49801  0.62984  0.90358  1.0000
  C   C1565     1.0  0.51794  0.52778  0.54585  1.0000
  H   H1257     1.0  0.64300  0.32723  0.84791  1.0000
  H   H1258     1.0  0.82166  0.32908  0.56445  1.0000
  C   C1566     1.0  0.51136  0.50650  0.52989  1.0000
  C   C1567     1.0  0.50365  0.54918  0.49329  1.0000
  H   H1259     1.0  0.49603  0.48994  0.48319  1.0000
  H   H1260     1.0  0.60884  0.32499  0.64788  1.0000
  C   C1568     1.0  0.97221  0.65230  0.98194  1.0000
  S   S212      1.0  0.86160  0.77425  0.41117  1.0000
  H   H1261     1.0  0.75421  0.73976  0.30069  1.0000
  Fe  Fe104     1.0  0.58774  0.74110  0.44806  1.0000
  S   S213      1.0  0.60884  0.76730  0.41788  1.0000
  S   S214      1.0  0.56362  0.71429  0.42143  1.0000
  C   C1569     1.0  0.97421  0.68147  0.22254  1.0000
  C   C1570     1.0  0.70142  0.76778  0.47780  1.0000
  Fe  Fe105     1.0  0.58752  0.79500  0.44757  1.0000
  S   S215      1.0  0.57012  0.82765  0.42230  1.0000
  C   C1571     1.0  0.81393  0.74563  0.30776  1.0000
  Fe  Fe106     1.0  0.93165  0.85000  0.26539  1.0000
  S   S216      1.0  0.90694  0.87413  0.23382  1.0000
  S   S217      1.0  0.92871  0.84269  0.32575  1.0000
  Fe  Fe107     1.0  0.96519  0.84253  0.20094  1.0000
  S   S218      1.0  0.94303  0.86621  0.16543  1.0000
  H   H1262     1.0  0.95094  0.80142  0.98822  1.0000
  Fe  Fe108     1.0  0.93980  0.89111  0.21360  1.0000
  S   S219      1.0  0.94420  0.93092  0.20273  1.0000
  Fe  Fe109     1.0  0.91225  0.84762  0.18846  1.0000
  S   S220      1.0  0.88218  0.83359  0.15418  1.0000
  S   S221      1.0  0.96451  0.86831  0.24757  1.0000
  S   S222      1.0  0.93432  0.82260  0.22157  1.0000
  Fe  Fe110     1.0  0.87087  0.71728  0.02857  1.0000
  H   H1263     1.0  0.88938  0.68925  0.22434  1.0000
  S   S223      1.0  0.89674  0.74359  0.05225  1.0000
  H   H1264     1.0  0.92852  0.70332  0.24293  1.0000
  C   C1572     1.0  0.89675  0.92860  0.40756  1.0000
  C   C1573     1.0  0.51601  0.75672  0.07117  1.0000
  S   S224      1.0  0.84100  0.66224  0.98502  1.0000
  Fe  Fe111     1.0  0.60435  0.68619  0.01517  1.0000
  C   C1574     1.0  0.83943  0.69681  0.25006  1.0000
  C   C1575     1.0  0.82423  0.71405  0.18336  1.0000
  C   C1576     1.0  0.94113  0.95909  0.22509  1.0000
  C   C1577     1.0  0.93286  0.96166  0.26028  1.0000
  C   C1578     1.0  0.71363  0.69563  0.00971  1.0000
  C   C1579     1.0  0.74501  0.76841  0.47662  1.0000
  H   H1265     1.0  0.92829  0.94615  0.27502  1.0000
  H   H1266     1.0  0.82511  0.79100  0.29730  1.0000
  C   C1580     1.0  0.84680  0.91322  0.45508  1.0000
  C   C1581     1.0  0.88599  0.80730  0.12840  1.0000
  C   C1582     1.0  0.90812  0.79590  0.12524  1.0000
  C   C1583     1.0  0.91094  0.77607  0.10242  1.0000
  C   C1584     1.0  0.89158  0.76703  0.08331  1.0000
  C   C1585     1.0  0.86923  0.77775  0.08774  1.0000
  C   C1586     1.0  0.86651  0.79793  0.10998  1.0000
  H   H1267     1.0  0.92317  0.80273  0.13967  1.0000
  H   H1268     1.0  0.92832  0.76798  0.09904  1.0000
  H   H1269     1.0  0.85422  0.77101  0.07312  1.0000
  H   H1270     1.0  0.84931  0.80657  0.11247  1.0000
  H   H1271     1.0  0.82526  0.74846  0.20764  1.0000
  C   C1587     1.0  0.56918  0.68888  0.39428  1.0000
  C   C1588     1.0  0.55078  0.68111  0.37210  1.0000
  C   C1589     1.0  0.82835  0.72974  0.21185  1.0000
  C   C1590     1.0  0.50134  0.77082  0.04920  1.0000
  C   C1591     1.0  0.59056  0.67587  0.39495  1.0000
  H   H1272     1.0  0.53418  0.69078  0.37207  1.0000
  H   H1273     1.0  0.94953  0.74769  0.42052  1.0000
  C   C1592     1.0  0.98245  0.76965  0.23663  1.0000
  C   C1593     1.0  0.50683  0.82344  0.34384  1.0000
  C   C1594     1.0  0.51741  0.80276  0.35789  1.0000
  C   C1595     1.0  0.53664  0.80374  0.38213  1.0000
  C   C1596     1.0  0.54557  0.82556  0.39248  1.0000
  C   C1597     1.0  0.53478  0.84631  0.37883  1.0000
  C   C1598     1.0  0.51544  0.84530  0.35470  1.0000
  H   H1274     1.0  0.51085  0.78585  0.34951  1.0000
  H   H1275     1.0  0.54475  0.78763  0.39238  1.0000
  H   H1276     1.0  0.54158  0.86328  0.38667  1.0000
  C   C1599     1.0  0.98612  0.65892  0.12082  1.0000
  C   C1600     1.0  0.88087  0.79294  0.38799  1.0000
  C   C1601     1.0  0.89672  0.80741  0.40609  1.0000
  C   C1602     1.0  0.91136  0.82232  0.38666  1.0000
  C   C1603     1.0  0.91038  0.82294  0.34885  1.0000
  C   C1604     1.0  0.89487  0.80805  0.33072  1.0000
  C   C1605     1.0  0.88032  0.79308  0.35025  1.0000
  H   H1277     1.0  0.89761  0.80714  0.43507  1.0000
  H   H1278     1.0  0.92315  0.83372  0.40120  1.0000
  H   H1279     1.0  0.89392  0.80824  0.30172  1.0000
  H   H1280     1.0  0.86820  0.78188  0.33614  1.0000
  C   C1606     1.0  0.98918  0.76310  0.11692  1.0000
  C   C1607     1.0  0.77122  0.74376  0.31253  1.0000
  C   C1608     1.0  0.81497  0.75423  0.34324  1.0000
  H   H1281     1.0  0.72902  0.74953  0.01722  1.0000
  H   H1282     1.0  0.87496  0.75424  0.22774  1.0000
  H   H1283     1.0  0.76808  0.75770  0.04454  1.0000
  H   H1284     1.0  0.96749  0.86007  0.37372  1.0000
  C   C1609     1.0  0.96367  0.75397  0.23500  1.0000
  C   C1610     1.0  0.94484  0.75714  0.25900  1.0000
  C   C1611     1.0  0.94488  0.77559  0.28427  1.0000
  C   C1612     1.0  0.96363  0.79107  0.28568  1.0000
  H   H1285     1.0  0.72233  0.76506  0.42981  1.0000
  H   H1286     1.0  0.79539  0.76391  0.39072  1.0000
  H   H1287     1.0  0.49903  0.79217  0.43388  1.0000
  H   H1288     1.0  0.93013  0.74549  0.25834  1.0000
  H   H1289     1.0  0.93022  0.77820  0.30244  1.0000
  C   C1613     1.0  0.77247  0.75213  0.34795  1.0000
  H   H1290     1.0  0.73630  0.70113  0.05597  1.0000
  C   C1614     1.0  0.55584  0.71723  0.17552  1.0000
  C   C1615     1.0  0.57801  0.72003  0.16029  1.0000
  C   C1616     1.0  0.59676  0.72778  0.18151  1.0000
  C   C1617     1.0  0.59344  0.73245  0.21808  1.0000
  C   C1618     1.0  0.57131  0.72926  0.23380  1.0000
  C   C1619     1.0  0.55231  0.72221  0.21202  1.0000
  P   P54       1.0  0.56814  0.73489  0.28140  1.0000
  C   C1620     1.0  0.54089  0.72494  0.30016  1.0000
  C   C1621     1.0  0.59149  0.71883  0.30477  1.0000
  C   C1622     1.0  0.59960  0.72673  0.33840  1.0000
  C   C1623     1.0  0.61906  0.71548  0.35497  1.0000
  C   C1624     1.0  0.62976  0.69555  0.33897  1.0000
  C   C1625     1.0  0.62080  0.68666  0.30661  1.0000
  C   C1626     1.0  0.60171  0.69821  0.28955  1.0000
  C   C1627     1.0  0.52973  0.73805  0.32771  1.0000
  C   C1628     1.0  0.72287  0.76691  0.45873  1.0000
  H   H1291     1.0  0.54746  0.73418  0.07370  1.0000
  H   H1292     1.0  0.75648  0.75457  0.36356  1.0000
  C   C1629     1.0  0.53155  0.70327  0.28953  1.0000
  C   C1630     1.0  0.57026  0.76649  0.28729  1.0000
  C   C1631     1.0  0.55032  0.78126  0.28117  1.0000
  C   C1632     1.0  0.55148  0.80559  0.28725  1.0000
  C   C1633     1.0  0.57249  0.81537  0.29940  1.0000
  C   C1634     1.0  0.59266  0.80094  0.30415  1.0000
  C   C1635     1.0  0.59170  0.77665  0.29753  1.0000
  H   H1293     1.0  0.54155  0.71089  0.15892  1.0000
  H   H1294     1.0  0.58076  0.71594  0.13209  1.0000
  H   H1295     1.0  0.61398  0.72981  0.16965  1.0000
  H   H1296     1.0  0.60825  0.73821  0.23428  1.0000
  H   H1297     1.0  0.53486  0.72040  0.22297  1.0000
  H   H1298     1.0  0.59091  0.74158  0.35184  1.0000
  H   H1299     1.0  0.62535  0.72174  0.38086  1.0000
  H   H1300     1.0  0.51188  0.75477  0.09925  1.0000
  S   S225      1.0  0.67398  0.76564  0.45336  1.0000
  H   H1301     1.0  0.59488  0.69088  0.26470  1.0000
  H   H1302     1.0  0.53776  0.75365  0.33882  1.0000
  H   H1303     1.0  0.96432  0.81670  0.37268  1.0000
  C   C1636     1.0  0.97546  0.82811  0.00501  1.0000
  C   C1637     1.0  0.88705  0.97003  0.19153  1.0000
  H   H1304     1.0  0.54089  0.69179  0.27067  1.0000
  H   H1305     1.0  0.53368  0.77399  0.27252  1.0000
  H   H1306     1.0  0.53584  0.81680  0.28357  1.0000
  H   H1307     1.0  0.57304  0.83410  0.30549  1.0000
  H   H1308     1.0  0.60897  0.80855  0.31361  1.0000
  H   H1309     1.0  0.60764  0.76591  0.30103  1.0000
  H   H1310     1.0  0.50374  0.67876  0.29690  1.0000
  H   H1311     1.0  0.66034  0.67759  0.06500  1.0000
  S   S226      1.0  0.56512  0.76914  0.47530  1.0000
  C   C1638     1.0  0.95274  0.74409  0.00838  1.0000
  S   S227      1.0  0.89089  0.68985  0.99600  1.0000
  C   C1639     1.0  0.89113  0.70333  0.17104  1.0000
  H   H1312     1.0  0.87052  0.69265  0.38330  1.0000
  Fe  Fe112     1.0  0.85346  0.77573  0.47123  1.0000
  C   C1640     1.0  0.85390  0.84866  0.35770  1.0000
  C   C1641     1.0  0.83724  0.83581  0.37600  1.0000
  C   C1642     1.0  0.83537  0.83816  0.41321  1.0000
  C   C1643     1.0  0.85033  0.85314  0.43223  1.0000
  C   C1644     1.0  0.86754  0.86575  0.41416  1.0000
  C   C1645     1.0  0.86898  0.86356  0.37660  1.0000
  P   P55       1.0  0.88660  0.88524  0.43921  1.0000
  C   C1646     1.0  0.90191  0.90423  0.40894  1.0000
  H   H1313     1.0  0.83731  0.82880  0.27284  1.0000
  C   C1647     1.0  0.84932  0.76964  0.26473  1.0000
  C   C1648     1.0  0.91960  0.89447  0.38665  1.0000
  C   C1649     1.0  0.88004  0.95704  0.22102  1.0000
  C   C1650     1.0  0.97768  0.75795  0.14882  1.0000
  H   H1314     1.0  0.95331  0.67889  0.12476  1.0000
  C   C1651     1.0  0.86573  0.96772  0.24725  1.0000
  P   P56       1.0  0.98460  0.67856  0.00127  1.0000
  H   H1315     1.0  0.50029  0.74080  0.36362  1.0000
  H   H1316     1.0  0.93685  0.73314  0.13761  1.0000
  H   H1317     1.0  0.85567  0.84663  0.32892  1.0000
  H   H1318     1.0  0.82603  0.82373  0.36149  1.0000
  C   C1652     1.0  0.95666  0.72128  0.46083  1.0000
  C   C1653     1.0  0.51689  0.84428  0.47791  1.0000
  H   H1319     1.0  0.88185  0.87295  0.36154  1.0000
  H   H1320     1.0  0.84263  0.91203  0.42666  1.0000
  H   H1321     1.0  0.60474  0.68134  0.41254  1.0000
  P   P57       1.0  0.84084  0.74156  0.28240  1.0000
  H   H1322     1.0  0.83777  0.66232  0.22521  1.0000
  H   H1323     1.0  0.81833  0.72072  0.15748  1.0000
  C   C1654     1.0  0.82761  0.68978  0.18820  1.0000
  H   H1324     1.0  0.98673  0.78043  0.10510  1.0000
  C   C1655     1.0  0.93570  0.71959  0.19192  1.0000
  P   P58       1.0  0.96502  0.72873  0.20483  1.0000
  H   H1325     1.0  0.50060  0.66087  0.37634  1.0000
  C   C1656     1.0  0.90462  0.71571  0.14685  1.0000
  H   H1326     1.0  0.88906  0.72382  0.47686  1.0000
  H   H1327     1.0  0.55429  0.66103  0.05120  1.0000
  C   C1657     1.0  0.95147  0.82775  0.07062  1.0000
  C   C1658     1.0  0.83522  0.68117  0.22151  1.0000
  C   C1659     1.0  0.86322  0.81303  0.23755  1.0000
  C   C1660     1.0  0.88707  0.73738  0.31025  1.0000
  C   C1661     1.0  0.92594  0.93281  0.36101  1.0000
  C   C1662     1.0  0.93133  0.90863  0.36249  1.0000
  H   H1328     1.0  0.90468  0.96159  0.38252  1.0000
  H   H1329     1.0  0.54382  0.81873  0.20688  1.0000
  H   H1330     1.0  0.83999  0.70761  0.34106  1.0000
  H   H1331     1.0  0.96178  0.67685  0.20144  1.0000
  H   H1332     1.0  0.92391  0.87575  0.38738  1.0000
  H   H1333     1.0  0.87417  0.69677  0.16257  1.0000
  S   S228      1.0  0.85202  0.69049  0.06100  1.0000
  C   C1663     1.0  0.86744  0.90220  0.46887  1.0000
  H   H1334     1.0  0.50520  0.68498  0.13615  1.0000
  H   H1335     1.0  0.92222  0.73491  0.33296  1.0000
  C   C1664     1.0  0.85793  0.71351  0.33864  1.0000
  C   C1665     1.0  0.73575  0.69672  0.02765  1.0000
  C   C1666     1.0  0.94664  0.97967  0.20629  1.0000
  C   C1667     1.0  0.53305  0.78443  0.18853  1.0000
  H   H1336     1.0  0.55698  0.73903  0.00948  1.0000
  C   C1668     1.0  0.98404  0.66348  0.24383  1.0000
  C   C1669     1.0  0.57698  0.66559  0.09725  1.0000
  H   H1337     1.0  0.84848  0.85480  0.46109  1.0000
  H   H1338     1.0  0.69748  0.69941  0.02422  1.0000
  C   C1670     1.0  0.94198  0.73625  0.44022  1.0000
  C   C1671     1.0  0.86673  0.77037  0.23815  1.0000
  H   H1339     1.0  0.50759  0.86137  0.34390  1.0000
  H   H1340     1.0  0.88360  0.93679  0.42486  1.0000
  H   H1341     1.0  0.64437  0.68646  0.35243  1.0000
  C   C1672     1.0  0.87522  0.70492  0.36261  1.0000
  Fe  Fe113     1.0  0.63393  0.76711  0.46601  1.0000
  H   H1342     1.0  0.86864  0.82980  0.22715  1.0000
  C   C1673     1.0  0.50850  0.73066  0.34212  1.0000
  H   H1343     1.0  0.96331  0.80576  0.30455  1.0000
  H   H1344     1.0  0.82248  0.82810  0.42736  1.0000
  C   C1674     1.0  0.55376  0.66121  0.34966  1.0000
  C   C1675     1.0  0.51042  0.69582  0.30426  1.0000
  H   H1345     1.0  0.50357  0.83145  0.22644  1.0000
  C   C1676     1.0  0.86364  0.73002  0.31245  1.0000
  C   C1677     1.0  0.90851  0.86925  0.46584  1.0000
  H   H1346     1.0  0.81536  0.93401  0.46717  1.0000
  C   C1678     1.0  0.76631  0.75580  0.01567  1.0000
  H   H1347     1.0  0.98020  0.79290  0.42271  1.0000
  C   C1679     1.0  0.92678  0.72385  0.15716  1.0000
  C   C1680     1.0  0.92193  0.70718  0.21617  1.0000
  C   C1681     1.0  0.89973  0.69914  0.20575  1.0000
  C   C1682     1.0  0.98128  0.73584  0.16506  1.0000
  H   H1348     1.0  0.91168  0.70608  0.37936  1.0000
  H   H1349     1.0  0.83173  0.75852  0.35549  1.0000
  C   C1683     1.0  0.98532  0.86092  0.42516  1.0000
  H   H1350     1.0  0.89797  0.71883  0.11985  1.0000
  H   H1351     1.0  0.50150  0.66144  0.19116  1.0000
  Fe  Fe114     1.0  0.82378  0.69197  0.01698  1.0000
  H   H1352     1.0  0.88721  0.79255  0.20442  1.0000
  H   H1353     1.0  0.89200  0.75034  0.29092  1.0000
  H   H1354     1.0  0.80322  0.76063  0.00604  1.0000
  C   C1684     1.0  0.54140  0.74785  0.02065  1.0000
  S   S229      1.0  0.59784  0.68335  0.07556  1.0000
  C   C1685     1.0  0.51422  0.76916  0.18437  1.0000
  C   C1686     1.0  0.87375  0.79200  0.22486  1.0000
  H   H1355     1.0  0.94441  0.90076  0.34458  1.0000
  S   S230      1.0  0.78458  0.69430  0.03345  1.0000
  H   H1356     1.0  0.92371  0.98605  0.30338  1.0000
  C   C1687     1.0  0.90874  0.94280  0.38365  1.0000
  C   C1688     1.0  0.90789  0.72272  0.47175  1.0000
  C   C1689     1.0  0.98271  0.84253  0.03379  1.0000
  H   H1357     1.0  0.96119  0.77997  0.47346  1.0000
  Fe  Fe115     1.0  0.87062  0.66337  0.02616  1.0000
  H   H1358     1.0  0.88608  0.93880  0.22368  1.0000
  H   H1359     1.0  0.52582  0.68826  0.47018  1.0000
  H   H1360     1.0  0.51757  0.75201  0.17239  1.0000
  H   H1361     1.0  0.89844  0.96171  0.17153  1.0000
  C   C1690     1.0  0.97451  0.84978  0.39598  1.0000
  C   C1691     1.0  0.84559  0.81246  0.26341  1.0000
  H   H1362     1.0  0.79048  0.73411  0.26504  1.0000
  H   H1363     1.0  0.84509  0.68975  0.27570  1.0000
  C   C1692     1.0  0.83131  0.92563  0.47794  1.0000
  C   C1693     1.0  0.98995  0.67136  0.45283  1.0000
  C   C1694     1.0  0.79186  0.74053  0.29242  1.0000
  C   C1695     1.0  0.94436  0.81310  0.04232  1.0000
  H   H1364     1.0  0.55067  0.77880  0.18032  1.0000
  C   C1696     1.0  0.83865  0.79088  0.27704  1.0000
  H   H1365     1.0  0.92938  0.80185  0.04563  1.0000
  C   C1697     1.0  0.53603  0.74519  0.05688  1.0000
  C   C1698     1.0  0.83614  0.72124  0.24540  1.0000
  H   H1366     1.0  0.94205  0.82793  0.09582  1.0000
  H   H1367     1.0  0.93508  0.94380  0.34229  1.0000
  H   H1368     1.0  0.95306  0.75903  0.02676  1.0000
  C   C1699     1.0  0.50689  0.77384  0.01291  1.0000
  C   C1700     1.0  0.90433  0.72872  0.33423  1.0000
  H   H1369     1.0  0.97557  0.72157  0.45719  1.0000
  H   H1370     1.0  0.82434  0.67767  0.16605  1.0000
  C   C1701     1.0  0.52683  0.76203  0.99872  1.0000
  C   C1702     1.0  0.79435  0.75739  0.36326  1.0000
  S   S231      1.0  0.84174  0.72081  0.98686  1.0000
  C   C1703     1.0  0.96758  0.72438  0.01446  1.0000
  C   C1704     1.0  0.89840  0.71253  0.36044  1.0000
  C   C1705     1.0  0.74432  0.75115  0.00027  1.0000
  C   C1706     1.0  0.91758  0.73694  0.44563  1.0000
  C   C1707     1.0  0.98235  0.78814  0.26180  1.0000
  H   H1371     1.0  0.97680  0.68074  0.43690  1.0000
  C   C1708     1.0  0.52921  0.80693  0.20343  1.0000
  C   C1709     1.0  0.97277  0.82527  0.39537  1.0000
  C   C1710     1.0  0.97073  0.84229  0.06644  1.0000
  C   C1711     1.0  0.98159  0.81188  0.42405  1.0000
  H   H1372     1.0  0.50390  0.69671  0.41462  1.0000
  C   C1712     1.0  0.49472  0.67953  0.19061  1.0000
  H   H1373     1.0  0.86038  0.95761  0.27013  1.0000
  H   H1374     1.0  0.97969  0.72453  0.03714  1.0000
  C   C1713     1.0  0.85854  0.99144  0.24410  1.0000
  C   C1714     1.0  0.75714  0.69256  0.00924  1.0000
  C   C1715     1.0  0.98609  0.67269  0.04871  1.0000
  H   H1375     1.0  0.93672  0.66101  0.00008  1.0000
  C   C1716     1.0  0.97997  0.70508  0.22919  1.0000
  H   H1376     1.0  0.95301  0.97802  0.17908  1.0000
  H   H1377     1.0  0.90619  0.74883  0.43017  1.0000
  C   C1717     1.0  0.96747  0.67992  0.07136  1.0000
  H   H1378     1.0  0.97636  0.85342  0.08861  1.0000
  H   H1379     1.0  0.96603  0.77130  0.16081  1.0000
  H   H1380     1.0  0.95238  0.69003  0.06114  1.0000
  H   H1381     1.0  0.76118  0.76770  0.46142  1.0000
  S   S232      1.0  0.62577  0.71679  0.99672  1.0000
  C   C1718     1.0  0.93018  0.98438  0.27623  1.0000
  C   C1719     1.0  0.92995  0.87990  0.47476  1.0000
  C   C1720     1.0  0.96776  0.67341  0.10745  1.0000
  H   H1382     1.0  0.88668  0.83929  0.47629  1.0000
  H   H1383     1.0  0.52933  0.85078  0.45872  1.0000
  C   C1721     1.0  0.50658  0.81411  0.21439  1.0000
  H   H1384     1.0  0.93409  0.89696  0.46410  1.0000
  H   H1385     1.0  0.59516  0.66745  0.14835  1.0000
  H   H1386     1.0  0.98674  0.87995  0.42550  1.0000
  C   C1722     1.0  0.49663  0.69283  0.15952  1.0000
  C   C1723     1.0  0.96616  0.70434  0.99213  1.0000
  H   H1387     1.0  0.62833  0.67053  0.29510  1.0000
  H   H1388     1.0  0.50412  0.75841  0.47418  1.0000
  C   C1724     1.0  0.57998  0.66077  0.13405  1.0000
  C   C1725     1.0  0.95646  0.81307  0.00977  1.0000
  C   C1726     1.0  0.49863  0.70969  0.32999  1.0000
  H   H1389     1.0  0.49370  0.66366  0.04460  1.0000
  H   H1390     1.0  0.49597  0.87653  0.47922  1.0000
  H   H1391     1.0  0.49730  0.82398  0.04228  1.0000
  H   H1392     1.0  0.53623  0.80918  0.98762  1.0000
  C   C1727     1.0  0.78614  0.75731  0.99392  1.0000
  C   C1728     1.0  0.66038  0.65847  0.06350  1.0000
  H   H1393     1.0  0.53421  0.81023  0.48144  1.0000
  C   C1729     1.0  0.90334  0.84757  0.48136  1.0000
  C   C1730     1.0  0.99241  0.82288  0.45372  1.0000
  S   S233      1.0  0.95364  0.82079  0.69089  1.0000
  C   C1731     1.0  0.51246  0.71765  0.89539  1.0000
  C   C1732     1.0  0.83699  0.69019  0.78163  1.0000
  Fe  Fe116     1.0  0.86168  0.74885  0.54238  1.0000
  S   S234      1.0  0.83899  0.77503  0.57316  1.0000
  S   S235      1.0  0.88869  0.72415  0.56986  1.0000
  Fe  Fe117     1.0  0.81340  0.77364  0.52567  1.0000
  S   S236      1.0  0.77357  0.77246  0.53862  1.0000
  Fe  Fe118     1.0  0.85766  0.80260  0.54273  1.0000
  S   S237      1.0  0.87506  0.83443  0.56820  1.0000
  H   H1394     1.0  0.83862  0.72849  0.63882  1.0000
  S   S238      1.0  0.88138  0.77688  0.51384  1.0000
  Fe  Fe119     1.0  0.59263  0.76941  0.51879  1.0000
  S   S239      1.0  0.58232  0.76894  0.57782  1.0000
  C   C1733     1.0  0.95708  0.68136  0.84827  1.0000
  C   C1734     1.0  0.90732  0.70964  0.74200  1.0000
  Fe  Fe120     1.0  0.59901  0.72007  0.95166  1.0000
  S   S240      1.0  0.61943  0.69588  0.91430  1.0000
  S   S241      1.0  0.57718  0.75329  0.93897  1.0000
  H   H1395     1.0  0.82073  0.72474  0.78153  1.0000
  S   S242      1.0  0.68515  0.68902  0.94836  1.0000
  H   H1396     1.0  0.76567  0.73321  0.67238  1.0000
  Fe  Fe121     1.0  0.52098  0.85249  0.71984  1.0000
  S   S243      1.0  0.54988  0.87237  0.74730  1.0000
  S   S244      1.0  0.52097  0.84871  0.65883  1.0000
  H   H1397     1.0  0.91581  0.85341  0.90307  1.0000
  S   S245      1.0  0.52202  0.86491  0.82271  1.0000
  Fe  Fe122     1.0  0.52060  0.89142  0.77726  1.0000
  H   H1398     1.0  0.95037  0.74347  0.67942  1.0000
  Fe  Fe123     1.0  0.54875  0.84445  0.78980  1.0000
  S   S246      1.0  0.58232  0.82554  0.80980  1.0000
  H   H1399     1.0  0.50505  0.79434  0.52303  1.0000
  S   S247      1.0  0.52200  0.82335  0.75990  1.0000
  C   C1735     1.0  0.58073  0.80475  0.84480  1.0000
  C   C1736     1.0  0.59997  0.78915  0.85183  1.0000
  C   C1737     1.0  0.59906  0.77270  0.87996  1.0000
  C   C1738     1.0  0.57894  0.77198  0.90141  1.0000
  C   C1739     1.0  0.55968  0.78735  0.89397  1.0000
  C   C1740     1.0  0.56062  0.80373  0.86600  1.0000
  H   H1400     1.0  0.61563  0.78986  0.83555  1.0000
  H   H1401     1.0  0.61402  0.76097  0.88550  1.0000
  H   H1402     1.0  0.54391  0.78658  0.90992  1.0000
  H   H1403     1.0  0.54569  0.81552  0.86063  1.0000
  C   C1741     1.0  0.53998  0.72550  0.80082  1.0000
  P   P59       1.0  0.96626  0.68817  0.51449  1.0000
  C   C1742     1.0  0.89530  0.70494  0.70992  1.0000
  H   H1404     1.0  0.83760  0.68919  0.81073  1.0000
  H   H1405     1.0  0.53121  0.76392  0.97067  1.0000
  C   C1743     1.0  0.94496  0.70240  0.83955  1.0000
  C   C1744     1.0  0.84457  0.67235  0.72344  1.0000
  C   C1745     1.0  0.51908  0.95720  0.76322  1.0000
  S   S248      1.0  0.62509  0.65947  0.98203  1.0000
  C   C1746     1.0  0.49807  0.85876  0.48946  1.0000
  H   H1406     1.0  0.67586  0.72201  0.88265  1.0000
  C   C1747     1.0  0.93581  0.72457  0.95642  1.0000
  C   C1748     1.0  0.56503  0.79133  0.59946  1.0000
  C   C1749     1.0  0.56031  0.78915  0.63624  1.0000
  C   C1750     1.0  0.54739  0.80688  0.65493  1.0000
  C   C1751     1.0  0.53845  0.82669  0.63673  1.0000
  C   C1752     1.0  0.54257  0.82858  0.59973  1.0000
  C   C1753     1.0  0.55603  0.81113  0.58119  1.0000
  H   H1407     1.0  0.56720  0.77391  0.65059  1.0000
  H   H1408     1.0  0.54431  0.80516  0.68338  1.0000
  H   H1409     1.0  0.53527  0.84356  0.58529  1.0000
  H   H1410     1.0  0.55945  0.81300  0.55284  1.0000
  H   H1411     1.0  0.98119  0.66806  0.76692  1.0000
  C   C1754     1.0  0.74614  0.77073  0.51410  1.0000
  H   H1412     1.0  0.77214  0.68287  0.95834  1.0000
  C   C1755     1.0  0.97152  0.67792  0.78743  1.0000
  S   S249      1.0  0.83520  0.74525  0.49696  1.0000
  H   H1413     1.0  0.92935  0.76547  0.51054  1.0000
  C   C1756     1.0  0.88650  0.69752  0.59404  1.0000
  H   H1414     1.0  0.53598  0.85733  0.89980  1.0000
  Fe  Fe124     1.0  0.59809  0.66718  0.93816  1.0000
  H   H1415     1.0  0.90994  0.69548  0.76105  1.0000
  H   H1416     1.0  0.94940  0.68973  0.94451  1.0000
  C   C1757     1.0  0.90630  0.68938  0.61386  1.0000
  C   C1758     1.0  0.54854  0.70295  0.50996  1.0000
  H   H1417     1.0  0.72521  0.77334  0.56210  1.0000
  H   H1418     1.0  0.92237  0.69922  0.61382  1.0000
  C   C1759     1.0  0.93304  0.82485  0.65507  1.0000
  C   C1760     1.0  0.91837  0.80613  0.64574  1.0000
  C   C1761     1.0  0.90099  0.80864  0.61858  1.0000
  C   C1762     1.0  0.89789  0.83011  0.60072  1.0000
  C   C1763     1.0  0.91279  0.84878  0.60968  1.0000
  C   C1764     1.0  0.93044  0.84612  0.63653  1.0000
  H   H1419     1.0  0.92060  0.78959  0.65957  1.0000
  H   H1420     1.0  0.88976  0.79408  0.61183  1.0000
  H   H1421     1.0  0.91056  0.86544  0.59599  1.0000
  H   H1422     1.0  0.94161  0.86070  0.64346  1.0000
  H   H1423     1.0  0.55807  0.67886  0.87527  1.0000
  H   H1424     1.0  0.98179  0.74087  0.80406  1.0000
  C   C1765     1.0  0.93480  0.85127  0.90059  1.0000
  H   H1425     1.0  0.56799  0.72164  0.55077  1.0000
  C   C1766     1.0  0.90539  0.66879  0.63450  1.0000
  C   C1767     1.0  0.78821  0.72375  0.58941  1.0000
  H   H1426     1.0  0.49476  0.84666  0.88401  1.0000
  Fe  Fe125     1.0  0.64508  0.69035  0.96111  1.0000
  S   S250      1.0  0.86541  0.69154  0.89688  1.0000
  C   C1768     1.0  0.96170  0.72124  0.56923  1.0000
  C   C1769     1.0  0.50133  0.70751  0.69792  1.0000
  C   C1770     1.0  0.79400  0.80416  0.86739  1.0000
  C   C1771     1.0  0.80700  0.79722  0.83718  1.0000
  C   C1772     1.0  0.80559  0.77419  0.82376  1.0000
  C   C1773     1.0  0.79120  0.75803  0.84053  1.0000
  C   C1774     1.0  0.77833  0.76478  0.87121  1.0000
  C   C1775     1.0  0.77966  0.78804  0.88430  1.0000
  P   P60       1.0  0.75956  0.74414  0.89301  1.0000
  C   C1776     1.0  0.77046  0.71463  0.88194  1.0000
  H   H1427     1.0  0.73152  0.76832  0.78408  1.0000
  H   H1428     1.0  0.49460  0.77721  0.78694  1.0000
  H   H1429     1.0  0.85069  0.69016  0.57877  1.0000
  Fe  Fe126     1.0  0.86048  0.69079  0.95743  1.0000
  C   C1777     1.0  0.69769  0.77348  0.85269  1.0000
  C   C1778     1.0  0.98072  0.75775  0.70633  1.0000
  C   C1779     1.0  0.75955  0.70137  0.85464  1.0000
  C   C1780     1.0  0.50395  0.81052  0.95561  1.0000
  H   H1430     1.0  0.49465  0.74171  0.54014  1.0000
  C   C1781     1.0  0.80021  0.68310  0.88871  1.0000
  C   C1782     1.0  0.79104  0.70537  0.89861  1.0000
  C   C1783     1.0  0.72909  0.74867  0.87867  1.0000
  C   C1784     1.0  0.52702  0.81697  0.96487  1.0000
  C   C1785     1.0  0.77158  0.72686  0.61657  1.0000
  H   H1431     1.0  0.73378  0.78355  0.85689  1.0000
  H   H1432     1.0  0.49603  0.80943  0.68241  1.0000
  H   H1433     1.0  0.56762  0.86071  0.48390  1.0000
  H   H1434     1.0  0.79503  0.82205  0.87776  1.0000
  H   H1435     1.0  0.81810  0.80975  0.82409  1.0000
  H   H1436     1.0  0.81553  0.76893  0.80019  1.0000
  H   H1437     1.0  0.79016  0.74034  0.82952  1.0000
  H   H1438     1.0  0.76960  0.79371  0.90763  1.0000
  C   C1786     1.0  0.82634  0.71169  0.72726  1.0000
  H   H1439     1.0  0.97248  0.66847  0.58659  1.0000
  H   H1440     1.0  0.82406  0.93631  0.53255  1.0000
  H   H1441     1.0  0.86118  0.75672  0.89975  1.0000
  C   C1787     1.0  0.51954  0.82128  0.49068  1.0000
  H   H1442     1.0  0.74400  0.70819  0.84074  1.0000
  C   C1788     1.0  0.50307  0.81248  0.51452  1.0000
  C   C1789     1.0  0.51948  0.72181  0.78037  1.0000
  C   C1790     1.0  0.86462  0.78362  0.73549  1.0000
  S   S251      1.0  0.83052  0.80385  0.49780  1.0000
  C   C1791     1.0  0.85042  0.79509  0.67657  1.0000
  C   C1792     1.0  0.84921  0.76473  0.73519  1.0000
  S   S252      1.0  0.52385  0.93125  0.78964  1.0000
  H   H1443     1.0  0.85101  0.80678  0.65368  1.0000
  C   C1793     1.0  0.94042  0.84759  0.51437  1.0000
  C   C1794     1.0  0.55033  0.91669  0.67811  1.0000
  C   C1795     1.0  0.55793  0.93991  0.67810  1.0000
  C   C1796     1.0  0.57913  0.94522  0.66152  1.0000
  C   C1797     1.0  0.59288  0.92727  0.64522  1.0000
  C   C1798     1.0  0.58555  0.90379  0.64562  1.0000
  C   C1799     1.0  0.56401  0.89873  0.66178  1.0000
  P   P61       1.0  0.60302  0.88035  0.62455  1.0000
  C   C1800     1.0  0.59139  0.87368  0.58030  1.0000
  C   C1801     1.0  0.63313  0.88959  0.62007  1.0000
  C   C1802     1.0  0.63945  0.90332  0.59068  1.0000
  C   C1803     1.0  0.66280  0.91021  0.58673  1.0000
  C   C1804     1.0  0.67997  0.90358  0.61218  1.0000
  C   C1805     1.0  0.65044  0.88323  0.64575  1.0000
  C   C1806     1.0  0.60602  0.86260  0.55450  1.0000
  C   C1807     1.0  0.78195  0.77160  0.73553  1.0000
  C   C1808     1.0  0.86545  0.79861  0.70599  1.0000
  C   C1809     1.0  0.55936  0.87514  0.53632  1.0000
  C   C1810     1.0  0.56793  0.87983  0.57097  1.0000
  C   C1811     1.0  0.60339  0.85425  0.65208  1.0000
  C   C1812     1.0  0.60098  0.85631  0.68952  1.0000
  C   C1813     1.0  0.60207  0.83622  0.71097  1.0000
  C   C1814     1.0  0.60608  0.81397  0.69539  1.0000
  C   C1815     1.0  0.60909  0.81181  0.65830  1.0000
  C   C1816     1.0  0.60750  0.83180  0.63665  1.0000
  H   H1444     1.0  0.53391  0.91255  0.69106  1.0000
  H   H1445     1.0  0.54740  0.95379  0.69100  1.0000
  H   H1446     1.0  0.58488  0.96328  0.66143  1.0000
  H   H1447     1.0  0.60921  0.93184  0.63261  1.0000
  H   H1448     1.0  0.55791  0.88081  0.66203  1.0000
  H   H1449     1.0  0.62634  0.90863  0.57072  1.0000
  C   C1817     1.0  0.72471  0.77156  0.53317  1.0000
  H   H1450     1.0  0.64606  0.87281  0.66881  1.0000
  H   H1451     1.0  0.62410  0.85740  0.56108  1.0000
  C   C1818     1.0  0.89685  0.76244  0.88282  1.0000
  C   C1819     1.0  0.96124  0.79256  0.57581  1.0000
  H   H1452     1.0  0.96195  0.87773  0.50655  1.0000
  H   H1453     1.0  0.55610  0.88799  0.59037  1.0000
  H   H1454     1.0  0.59827  0.87340  0.70232  1.0000
  H   H1455     1.0  0.59971  0.83788  0.73975  1.0000
  H   H1456     1.0  0.60664  0.79841  0.71206  1.0000
  H   H1457     1.0  0.61197  0.79452  0.64605  1.0000
  H   H1458     1.0  0.60937  0.82950  0.60796  1.0000
  C   C1820     1.0  0.54417  0.74776  0.81567  1.0000
  C   C1821     1.0  0.52764  0.76622  0.81057  1.0000
  H   H1459     1.0  0.55258  0.71104  0.80540  1.0000
  H   H1460     1.0  0.56005  0.75066  0.83147  1.0000
  H   H1461     1.0  0.53055  0.78346  0.82213  1.0000
  H   H1462     1.0  0.75292  0.72713  0.60974  1.0000
  C   C1822     1.0  0.88564  0.67122  0.87641  1.0000
  C   C1823     1.0  0.97299  0.83958  0.92634  1.0000
  H   H1463     1.0  0.79255  0.78469  0.72284  1.0000
  H   H1464     1.0  0.84924  0.75313  0.75798  1.0000
  H   H1465     1.0  0.69181  0.78988  0.84036  1.0000
  H   H1466     1.0  0.92803  0.77478  0.57552  1.0000
  C   C1824     1.0  0.86502  0.66379  0.61503  1.0000
  C   C1825     1.0  0.80324  0.73100  0.66071  1.0000
  H   H1467     1.0  0.93426  0.71117  0.85987  1.0000
  C   C1826     1.0  0.50044  0.97880  0.71357  1.0000
  C   C1827     1.0  0.90784  0.74511  0.82511  1.0000
  H   H1468     1.0  0.86019  0.91643  0.55737  1.0000
  C   C1828     1.0  0.55088  0.71924  0.53806  1.0000
  H   H1469     1.0  0.66271  0.75929  0.85323  1.0000
  H   H1470     1.0  0.90160  0.77197  0.90710  1.0000
  H   H1471     1.0  0.95218  0.83965  0.53417  1.0000
  C   C1829     1.0  0.95982  0.69914  0.77879  1.0000
  P   P62       1.0  0.93019  0.73809  0.79207  1.0000
  C   C1830     1.0  0.91569  0.73234  0.74940  1.0000
  C   C1831     1.0  0.91192  0.75016  0.72386  1.0000
  C   C1832     1.0  0.89943  0.74542  0.69204  1.0000
  C   C1833     1.0  0.89097  0.72293  0.68528  1.0000
  C   C1834     1.0  0.95038  0.76227  0.79143  1.0000
  C   C1835     1.0  0.94173  0.78548  0.78622  1.0000
  C   C1836     1.0  0.50487  0.95748  0.73222  1.0000
  H   H1472     1.0  0.80011  0.71512  0.91939  1.0000
  H   H1473     1.0  0.50614  0.77410  0.71756  1.0000
  C   C1837     1.0  0.97452  0.75842  0.79935  1.0000
  H   H1474     1.0  0.92308  0.72441  0.93447  1.0000
  H   H1475     1.0  0.96098  0.70571  0.75169  1.0000
  H   H1476     1.0  0.91851  0.76767  0.72808  1.0000
  H   H1477     1.0  0.89609  0.75915  0.67251  1.0000
  H   H1478     1.0  0.88123  0.71943  0.66073  1.0000
  H   H1479     1.0  0.92313  0.78908  0.78120  1.0000
  C   C1838     1.0  0.76184  0.77908  0.75450  1.0000
  H   H1480     1.0  0.51962  0.68507  0.65953  1.0000
  C   C1839     1.0  0.71249  0.68992  0.97307  1.0000
  C   C1840     1.0  0.98013  0.79602  0.51778  1.0000
  C   C1841     1.0  0.95708  0.80439  0.78779  1.0000
  C   C1842     1.0  0.98934  0.67206  0.49056  1.0000
  C   C1843     1.0  0.74737  0.76252  0.77005  1.0000
  H   H1481     1.0  0.87947  0.68492  0.82334  1.0000
  H   H1482     1.0  0.82265  0.77474  0.65384  1.0000
  C   C1844     1.0  0.91373  0.75800  0.85624  1.0000
  C   C1845     1.0  0.53850  0.83377  0.94469  1.0000
  H   H1483     1.0  0.77690  0.71213  0.74465  1.0000
  H   H1484     1.0  0.51549  0.76614  0.62741  1.0000
  Fe  Fe127     1.0  0.98500  0.84401  0.70421  1.0000
  H   H1485     1.0  0.79967  0.75509  0.94050  1.0000
  C   C1846     1.0  0.52674  0.70050  0.49253  1.0000
  C   C1847     1.0  0.50345  0.74068  0.77380  1.0000
  H   H1486     1.0  0.93940  0.83760  0.95356  1.0000
  C   C1848     1.0  0.54911  0.66343  0.86546  1.0000
  H   H1487     1.0  0.66760  0.92057  0.56378  1.0000
  H   H1488     1.0  0.96968  0.70419  0.66829  1.0000
  C   C1849     1.0  0.83457  0.77661  0.67657  1.0000
  C   C1850     1.0  0.50727  0.76266  0.79014  1.0000
  H   H1489     1.0  0.55653  0.83824  0.95128  1.0000
  C   C1851     1.0  0.94580  0.86910  0.49897  1.0000
  C   C1852     1.0  0.77314  0.73089  0.74786  1.0000
  H   H1490     1.0  0.74142  0.72561  0.77795  1.0000
  S   S253      1.0  0.98691  0.87025  0.75012  1.0000
  C   C1853     1.0  0.83497  0.69245  0.70664  1.0000
  H   H1491     1.0  0.53356  0.74600  0.57021  1.0000
  C   C1854     1.0  0.68125  0.75625  0.85988  1.0000
  H   H1492     1.0  0.95050  0.82221  0.78267  1.0000
  H   H1493     1.0  0.95735  0.74591  0.61299  1.0000
  C   C1855     1.0  0.52691  0.84452  0.91561  1.0000
  C   C1856     1.0  0.96834  0.74007  0.68850  1.0000
  C   C1857     1.0  0.98027  0.79959  0.55523  1.0000
  S   S254      1.0  0.61406  0.79737  0.49317  1.0000
  C   C1858     1.0  0.50946  0.73051  0.53182  1.0000
  C   C1859     1.0  0.94310  0.77575  0.52281  1.0000
  C   C1860     1.0  0.97016  0.66904  0.82215  1.0000
  H   H1494     1.0  0.94281  0.71981  0.56501  1.0000
  H   H1495     1.0  0.87781  0.81290  0.70571  1.0000
  C   C1861     1.0  0.98968  0.77744  0.80169  1.0000
  C   C1862     1.0  0.59742  0.85810  0.51987  1.0000
  H   H1496     1.0  0.75722  0.79773  0.75656  1.0000
  C   C1863     1.0  0.94832  0.84220  0.92924  1.0000
  C   C1864     1.0  0.96142  0.78383  0.50188  1.0000
  C   C1865     1.0  0.68864  0.73523  0.87629  1.0000
  C   C1866     1.0  0.75599  0.68670  0.97269  1.0000
  C   C1867     1.0  0.78404  0.75395  0.95679  1.0000
  P   P63       1.0  0.81302  0.73753  0.70611  1.0000
  H   H1497     1.0  0.93149  0.76418  0.86038  1.0000
  H   H1498     1.0  0.73341  0.68024  0.92679  1.0000
  C   C1868     1.0  0.86796  0.74141  0.84758  1.0000
  H   H1499     1.0  0.53496  0.72605  0.94026  1.0000
  C   C1869     1.0  0.97772  0.70824  0.54778  1.0000
  C   C1870     1.0  0.98100  0.80038  0.79575  1.0000
  C   C1871     1.0  0.87402  0.75403  0.87858  1.0000
  H   H1500     1.0  0.51715  0.71675  0.70544  1.0000
  H   H1501     1.0  0.87986  0.72637  0.79782  1.0000
  C   C1872     1.0  0.67378  0.89017  0.64172  1.0000
  H   H1502     1.0  0.72501  0.74329  0.95242  1.0000
  C   C1873     1.0  0.78796  0.74745  0.73253  1.0000
  H   H1503     1.0  0.54021  0.97860  0.79854  1.0000
  H   H1504     1.0  0.76010  0.66882  0.82410  1.0000
  C   C1874     1.0  0.73388  0.68520  0.95489  1.0000
  C   C1875     1.0  0.53136  0.73298  0.54903  1.0000
  C   C1876     1.0  0.75299  0.73844  0.76666  1.0000
  H   H1505     1.0  0.85052  0.73413  0.84508  1.0000
  C   C1877     1.0  0.52118  0.71480  0.93031  1.0000
  H   H1506     1.0  0.56390  0.69288  0.50062  1.0000
  C   C1878     1.0  0.50383  0.83844  0.90660  1.0000
  H   H1507     1.0  0.82505  0.72245  0.57634  1.0000
  C   C1879     1.0  0.83410  0.76098  0.70563  1.0000
  C   C1880     1.0  0.81228  0.72415  0.59771  1.0000
  H   H1508     1.0  0.68709  0.88500  0.66144  1.0000
  H   H1509     1.0  0.52530  0.68314  0.83093  1.0000
  C   C1881     1.0  0.50704  0.71442  0.50308  1.0000
  H   H1510     1.0  0.83436  0.69268  0.67762  1.0000
  H   H1511     1.0  0.68639  0.77083  0.53047  1.0000
  H   H1512     1.0  0.88942  0.68726  0.70407  1.0000
  H   H1513     1.0  0.97898  0.86090  0.84162  1.0000
  C   C1882     1.0  0.76206  0.74878  0.94109  1.0000
  C   C1883     1.0  0.77900  0.73042  0.65210  1.0000
  C   C1884     1.0  0.86585  0.68456  0.59460  1.0000
  C   C1885     1.0  0.76876  0.67907  0.84486  1.0000
  C   C1886     1.0  0.84572  0.67126  0.76088  1.0000
  C   C1887     1.0  0.71242  0.73143  0.88553  1.0000
  C   C1888     1.0  0.97925  0.71804  0.68196  1.0000
  H   H1514     1.0  0.51932  0.73129  0.87858  1.0000
  C   C1889     1.0  0.82745  0.71034  0.76495  1.0000
  H   H1515     1.0  0.91463  0.69768  0.51342  1.0000
  H   H1516     1.0  0.81602  0.67606  0.90193  1.0000
  H   H1517     1.0  0.78239  0.72174  0.56172  1.0000
  C   C1890     1.0  0.95060  0.70479  0.96249  1.0000
  H   H1518     1.0  0.71764  0.71524  0.89891  1.0000
  H   H1519     1.0  0.69810  0.90877  0.60895  1.0000
  C   C1891     1.0  0.52909  0.97853  0.77475  1.0000
  C   C1892     1.0  0.94606  0.71130  0.80456  1.0000
  C   C1893     1.0  0.81984  0.72772  0.63317  1.0000
  C   C1894     1.0  0.94577  0.85788  0.86893  1.0000
  C   C1895     1.0  0.51262  0.69706  0.95204  1.0000
  H   H1520     1.0  0.96123  0.79589  0.60453  1.0000
  C   C1896     1.0  0.94259  0.78071  0.55955  1.0000
  C   C1897     1.0  0.96988  0.73600  0.59660  1.0000
  H   H1521     1.0  0.51617  0.70424  0.77003  1.0000
  H   H1522     1.0  0.87630  0.78638  0.75828  1.0000
  C   C1898     1.0  0.70257  0.77015  0.51526  1.0000
  C   C1899     1.0  0.74218  0.74751  0.96322  1.0000
  C   C1900     1.0  0.88478  0.73688  0.82096  1.0000
  H   H1523     1.0  0.91484  0.82042  0.51806  1.0000
  S   S255      1.0  0.61376  0.73887  0.49431  1.0000
  H   H1524     1.0  0.50493  0.80045  0.59000  1.0000
  H   H1525     1.0  0.54120  0.87972  0.52936  1.0000
  C   C1901     1.0  0.91935  0.83673  0.50525  1.0000
  C   C1902     1.0  0.95817  0.65957  0.57308  1.0000
  H   H1526     1.0  0.88758  0.89466  0.51765  1.0000
  C   C1903     1.0  0.57413  0.86435  0.51078  1.0000
  H   H1527     1.0  0.97220  0.77481  0.71157  1.0000
  H   H1528     1.0  0.60876  0.84967  0.49996  1.0000
  H   H1529     1.0  0.93537  0.86505  0.84680  1.0000
  C   C1904     1.0  0.97029  0.85557  0.86598  1.0000
  S   S256      1.0  0.57626  0.69156  0.97307  1.0000
  C   C1905     1.0  0.50273  0.68982  0.67143  1.0000
  C   C1906     1.0  0.94699  0.70631  0.48631  1.0000
  C   C1907     1.0  0.93672  0.74411  0.97958  1.0000
  H   H1530     1.0  0.50109  0.98611  0.83511  1.0000
  C   C1908     1.0  0.72151  0.76977  0.86213  1.0000
  C   C1909     1.0  0.98382  0.84660  0.89457  1.0000
  H   H1531     1.0  0.49693  0.94135  0.72296  1.0000
  C   C1910     1.0  0.85658  0.91582  0.52874  1.0000
  C   C1911     1.0  0.95088  0.66575  0.53817  1.0000
  C   C1912     1.0  0.53050  0.66584  0.84027  1.0000
  C   C1913     1.0  0.78907  0.66994  0.86191  1.0000
  C   C1914     1.0  0.83619  0.92693  0.51476  1.0000
  H   H1532     1.0  0.95539  0.67395  0.87478  1.0000
  H   H1533     1.0  0.51963  0.69508  0.97905  1.0000
  C   C1915     1.0  0.49496  0.70287  0.88223  1.0000
  H   H1534     1.0  0.92455  0.75901  0.97590  1.0000
  C   C1916     1.0  0.92251  0.70765  0.49224  1.0000
  C   C1917     1.0  0.87217  0.90348  0.50595  1.0000
  C   C1918     1.0  0.49575  0.68153  0.93852  1.0000
  H   H1535     1.0  0.92070  0.66297  0.64992  1.0000
  C   C1919     1.0  0.49799  0.76769  0.61541  1.0000
  C   C1920     1.0  0.88890  0.67181  0.83907  1.0000
  Fe  Fe128     1.0  0.49485  0.84488  0.79108  1.0000
  P   P64       1.0  0.99102  0.82780  0.96283  1.0000
  H   H1536     1.0  0.99173  0.97992  0.68293  1.0000
