data_image0
_chemical_formula_structural       FeSCHC2FeS2FeS2FeSFeS3FeS3FeSFeSH2C6H4C6H4C6H2C6HCHC3H5CHC2HCHCH2C3HCH3C2H2CHCHC2HC4H8C3H2C2H5CHC3PHSHC2H4CH3C3HC8H2C5H2CHC2HCH7C2HCHC3HCH3C2PC2HCHC4HC2HCH3CH2C2H2C2H3C2HSCH2C3HCHCHC4SH2CHC2H3C2HCHC7PC2H2CPC10HCPCSH3CH2CFeH2C2FeS2FeS2FeSFeS3FeCFeSFeS2HCFeS2FeS2FeSFeS3CHSC3FeC7H2CHC6H4C2H2CHCHCSC6H5PC2HC2H2C6H4C4H4C4H2C6PC18H22CPHCHC7PCH2C2H2C6H2C3H6CHCH2CH3CHCH3CH2CHC2HCHC6SC4H5C5HCPC2H6CHCHCHCHCHSC2HC2HCH2C2SHCHCHCHS2CHCHC2HCHC3HC3H2CH3CHC2H2C4H3C3H2CFe2CHCH2CH2C3HCHCH2CH2CHFeS2FeSFeSFeS2FeS2FeSFeS3FeS2C2HC3HCHC3HCH3C7H5C3HC8H7CHPC7HCH2C3HCH2SHC2H6C3H2CHPH3C2SCHC2H2CH2CHCHCHC2HCPCH2C2HCHC2H2CHCH2CH2CHCHC3H3CHC2H2C5PC3H2C9H2PCHCH6C8PC3SC9HC2H2CH5CH8CH2CH2CHCHC4PC3HCHFeCH4CHC3H4C6HC2HC2HCSH2C3HCH2C3HC3HC3HCHCH3C2HCH4CH2CH4C2HC3HCHC2HCHC6HCH2SFe2S2FeS2FeS2FeS2FeSFeS3CHC8H6C4HCH2C6H4CPC4HCPH2C6HCHC4H4CH2C3HPH2CHC3H2C5H2CH3C2H4C3HCH7C2HC4HC2HCHCH2CHCHCHC6FeHC4HC2PHCHSHCHC4HCH2CHCHC2H2CHC6HCH2C2HC4H4CH4FeH2C2H5CH2C3SCHC4H6C3HCSC2HSHC2FeS2FeS2FeSFeS3HFeS2Fe2CSHC2FeCHSHFeS2FeS2FeSFeS3C3HCHFeHC2HC4HCH2SH2C3H4C7H5C4H2CHC7H4C6H4CS2C3HC3H2CHCHCHCH2C3H2CH5CH4CHCFeC5H2CHCHC2H4CHC2HCH3C5H2CHC2H3CH5CH2CHC7HCH3CHC2H2C6HPHC3HC2H7C2HCHC6HC2HCHCH3C2H2C4HCHCH2C2HPCHCHCHC8PHSHCHC2HC2H2CHC2H2C2H2CH2C2H3CFeS2FeS2FeSFeS3CFeS3Fe2S2CHCHSCFeSHCPC3HC3HC3H2C6H2CHC4HCH4C6H4CHSHC2PC18H3CH4CH11C4H4C4H2C3HC2H3CHC2H2C5SH5CH2CPC4H5CHCHC3HC2HC4H2C3H4SC2HCHC3HC3H4C3HC2H2CH2C9PHCH3C2HC4HC2H3CH5C2H2CH3FeHCPHCHC3HPCHCHSC2HCHCHC5HCHCHCHCHCHCHCPCHC5HSH5CHC3HSHPC3H2CH4C2SCHFeSFeSFeSFeS3FeS2FeS2FeSFeS3C6H4C4HCH2CH2C5HC8HC7HCH2CHC2H2CH5C4HC2H3C2HCH2CHC2H6C6PC18HC2H18CHC3PC10PHC9HCH3C2H10CHCH2CHC8HCH2C2H2C2HCHC2H3CH2CH3CSCH4FeCH2CSH2CHCH2C2H2CH4SH2C3H3CHCHC2HC2H2PCH2CHCH4SHCFe2HSFeS2FeS2FeS2FeSFeS3C4SCHFeS2FeS2FeSFeS3C6H4C4H2CHC9HCHC6H4C6H4C6H7C4H4C2H3CHCHCPHC2HCH4C4H2CH2C2SC7HCHCH3C6PC3HC11H5CH11C6PC18H20CH2C2SC3H10C2H2C2SHCHC2HC2H4C2H3SHC3FeCHCH2C3HCHCFeC3HCH2CPH2CH2SC3SCHCPC3HFeC2PHC3H2FeSFeS2FeSFeS3FeS2FeS2FeSFeS3CFeCSC2H2C2HSHC2HC6H4C6H3CH3C3H4C2HC6PC2H7C3H3CH4CH2CHC3H2CHCSCHCHCH2C2SH2CSC2HC2H2CHC7HC2HCH6C4SHC3HC3PC3HC3HC6H2C2H3CH2CH3CHC7PC2H2CHC12H5C3H3CH8CH3CHCHC2HC3H2C4HCH2C3HCHC2HFeS2FeS2FeSFeS3HFeS2FeS2Fe2S3C5HCHC2HC6H2CHC6H6C3PH2FePC5H3C8H3CH3C4H7C5H2C2H8CPC3HCHCHCHC2SC5HCHC2HC2HCH2CHCHC3SCHCH2CHC2HC4HCH3C2H3CHCHC3H2C6PC3HCSH2CH4CHCH6C5PSC8H2C9H2CHC2H4C2H4CHCHCHCHCH2CHPHCH2CH4C2HC2HCHCHC2HCH2CH3C2HCHCHCHC7FeS2FeS2FeSFeS3FeS2Fe2HCH2FeS2FeS2FeSFeS3CSCH2C3H2C6H3C7HCH2C2HC3H4C6H4C6HCH2C3HCH3C7H5SHC3PC14HCFeC3H2CH8CPC2H2CHPC9HC3HCH2C2HCPH2SH4C2SCHCH2CHC4HC5HPHC12HCH2CSCH3C2H5CHC5HC2H3C4H8PCH2CH7C2H2C2PC2H3C7H3CH6CHSC3H5C2HCH3C6H2FeCH4C2H2C2PCHC3H3C2HC5SC2HCHCH2C2H3C4H2C2HC4HCHC3H3CHC2HC4SHCHC3H3C2HFeC2H4C2HCPH2CHCH2CFeS2FeS2FeSFeS3FeS2FeS2Fe2S2HFeHSH2SCHC2H2C5HC3H2C2HC2HCH2CH2C4HCHC6H3C6PC2HC3HC5HCH9CHCH8C2HC2H3CHC2SH2CH3C2H3CH2CPCH2C3H2CPCHCSCHCHC2H2CHC2HC3HC7H2C2H2C2HCHC3HC2HSCHCH2C2HCH2C5HCPHC3H4C4HC2H2C4H2C2SH2CH4CHCHC2H2CHCHCHCHCHC2H2C5S
_chemical_formula_sum              "Fe128 S256 C1920 H1536 P64"
_cell_length_a       40.9778
_cell_length_b       41.143
_cell_length_c       69.3353
_cell_angle_alpha    89.9832
_cell_angle_beta     89.8688
_cell_angle_gamma    90.311

_space_group_name_H-M_alt    "P 1"
_space_group_IT_number       1

loop_
  _space_group_symop_operation_xyz
  'x, y, z'

loop_
  _atom_site_type_symbol
  _atom_site_label
  _atom_site_symmetry_multiplicity
  _atom_site_fract_x
  _atom_site_fract_y
  _atom_site_fract_z
  _atom_site_occupancy
  Fe  Fe1       1.0  0.11107  0.42514  0.31978  1.0000
  S   S1        1.0  0.13177  0.43412  0.28958  1.0000
  C   C1        1.0  0.30887  0.02975  0.32546  1.0000
  H   H1        1.0  0.21090  0.37072  0.06080  1.0000
  C   C2        1.0  0.39269  0.22819  0.14357  1.0000
  C   C3        1.0  0.48371  0.08284  0.12910  1.0000
  Fe  Fe2       1.0  0.28457  0.33605  0.07937  1.0000
  S   S2        1.0  0.25537  0.33800  0.10713  1.0000
  S   S3        1.0  0.26213  0.31640  0.05122  1.0000
  Fe  Fe3       1.0  0.34838  0.35638  0.10018  1.0000
  S   S4        1.0  0.32317  0.36046  0.12875  1.0000
  S   S5        1.0  0.40348  0.36104  0.09551  1.0000
  Fe  Fe4       1.0  0.29847  0.31327  0.12096  1.0000
  S   S6        1.0  0.29597  0.27568  0.14515  1.0000
  Fe  Fe5       1.0  0.28232  0.38482  0.11256  1.0000
  S   S7        1.0  0.26192  0.43243  0.12456  1.0000
  S   S8        1.0  0.32570  0.30779  0.09310  1.0000
  S   S9        1.0  0.30961  0.38416  0.08414  1.0000
  Fe  Fe6       1.0  0.41555  0.05391  0.16453  1.0000
  S   S10       1.0  0.38427  0.09103  0.17941  1.0000
  S   S11       1.0  0.47101  0.06019  0.16612  1.0000
  S   S12       1.0  0.32049  0.04679  0.16781  1.0000
  Fe  Fe7       1.0  0.35067  0.08660  0.15408  1.0000
  S   S13       1.0  0.33105  0.12595  0.13408  1.0000
  Fe  Fe8       1.0  0.35731  0.04791  0.19211  1.0000
  S   S14       1.0  0.38363  0.05185  0.13838  1.0000
  H   H2        1.0  0.48338  0.13008  0.18461  1.0000
  H   H3        1.0  0.45823  0.07823  0.12603  1.0000
  C   C4        1.0  0.30705  0.23438  0.14193  1.0000
  C   C5        1.0  0.30922  0.22053  0.12358  1.0000
  C   C6        1.0  0.31703  0.18742  0.12152  1.0000
  C   C7        1.0  0.32349  0.16793  0.13771  1.0000
  C   C8        1.0  0.32237  0.18199  0.15608  1.0000
  C   C9        1.0  0.31367  0.21496  0.15817  1.0000
  H   H4        1.0  0.30420  0.23516  0.11097  1.0000
  H   H5        1.0  0.31785  0.17678  0.10726  1.0000
  H   H6        1.0  0.32773  0.16737  0.16861  1.0000
  H   H7        1.0  0.31227  0.22558  0.17240  1.0000
  C   C10       1.0  0.43143  0.38243  0.11050  1.0000
  C   C11       1.0  0.46510  0.37980  0.10679  1.0000
  C   C12       1.0  0.24615  0.00617  0.11975  1.0000
  C   C13       1.0  0.47776  0.41704  0.13307  1.0000
  C   C14       1.0  0.44409  0.41985  0.13669  1.0000
  C   C15       1.0  0.42106  0.40229  0.12568  1.0000
  H   H8        1.0  0.47328  0.36475  0.09497  1.0000
  H   H9        1.0  0.27924  0.34422  0.18313  1.0000
  H   H10       1.0  0.43573  0.43592  0.14799  1.0000
  H   H11       1.0  0.39525  0.40476  0.12862  1.0000
  C   C16       1.0  0.15578  0.46556  0.13453  1.0000
  C   C17       1.0  0.16205  0.43473  0.12663  1.0000
  C   C18       1.0  0.19430  0.42400  0.12356  1.0000
  C   C19       1.0  0.22068  0.44413  0.12836  1.0000
  C   C20       1.0  0.21435  0.47499  0.13620  1.0000
  C   C21       1.0  0.18214  0.48555  0.13949  1.0000
  H   H12       1.0  0.14178  0.41907  0.12294  1.0000
  H   H13       1.0  0.19873  0.40029  0.11738  1.0000
  C   C22       1.0  0.25032  0.02598  0.28739  1.0000
  C   C23       1.0  0.48497  0.23973  0.21873  1.0000
  C   C24       1.0  0.11494  0.46201  0.27277  1.0000
  C   C25       1.0  0.35134  0.42877  0.02127  1.0000
  C   C26       1.0  0.44032  0.14700  0.13665  1.0000
  C   C27       1.0  0.18659  0.33863  0.08050  1.0000
  H   H14       1.0  0.27137  0.02928  0.23273  1.0000
  C   C28       1.0  0.09769  0.48872  0.07758  1.0000
  H   H15       1.0  0.23454  0.49094  0.13964  1.0000
  C   C29       1.0  0.24575  0.36730  0.02622  1.0000
  C   C30       1.0  0.24595  0.33377  0.02967  1.0000
  C   C31       1.0  0.23295  0.31292  0.01549  1.0000
  H   H16       1.0  0.25591  0.38369  0.03686  1.0000
  H   H17       1.0  0.23302  0.28695  0.01794  1.0000
  H   H18       1.0  0.15829  0.05532  0.15086  1.0000
  H   H19       1.0  0.21663  0.40374  0.28274  1.0000
  H   H20       1.0  0.20937  0.35674  0.26080  1.0000
  C   C32       1.0  0.12681  0.46248  0.25373  1.0000
  H   H21       1.0  0.38892  0.20988  0.13258  1.0000
  C   C33       1.0  0.14336  0.44862  0.02376  1.0000
  C   C34       1.0  0.46409  0.14138  0.19296  1.0000
  H   H22       1.0  0.13055  0.05646  0.30197  1.0000
  C   C35       1.0  0.41305  0.16976  0.21378  1.0000
  H   H23       1.0  0.03230  0.05320  0.11074  1.0000
  C   C36       1.0  0.45788  0.17462  0.19114  1.0000
  H   H24       1.0  0.11822  0.35651  0.10617  1.0000
  H   H25       1.0  0.19317  0.43669  0.31566  1.0000
  C   C37       1.0  0.47502  0.32353  0.14217  1.0000
  C   C38       1.0  0.27966  0.46015  0.05392  1.0000
  C   C39       1.0  0.13181  0.44337  0.00503  1.0000
  H   H26       1.0  0.44841  0.25502  0.12010  1.0000
  C   C40       1.0  0.26423  0.02902  0.24777  1.0000
  H   H27       1.0  0.05217  0.10958  0.11180  1.0000
  H   H28       1.0  0.25367  0.43715  0.31758  1.0000
  H   H29       1.0  0.47716  0.21909  0.22733  1.0000
  C   C41       1.0  0.10273  0.09638  0.11455  1.0000
  C   C42       1.0  0.12491  0.07084  0.11593  1.0000
  H   H30       1.0  0.40001  0.29297  0.18390  1.0000
  H   H31       1.0  0.39310  0.18003  0.22195  1.0000
  C   C43       1.0  0.44502  0.12238  0.20533  1.0000
  H   H32       1.0  0.35183  0.05172  0.26571  1.0000
  C   C44       1.0  0.19045  0.36795  0.07055  1.0000
  H   H33       1.0  0.18423  0.03592  0.29167  1.0000
  C   C45       1.0  0.06940  0.08974  0.11278  1.0000
  C   C46       1.0  0.24054  0.45979  0.31606  1.0000
  H   H34       1.0  0.44948  0.09646  0.20646  1.0000
  C   C47       1.0  0.32051  0.37533  0.00412  1.0000
  C   C48       1.0  0.35133  0.02645  0.26143  1.0000
  C   C49       1.0  0.27750  0.04327  0.32501  1.0000
  C   C50       1.0  0.32689  0.37532  0.02393  1.0000
  H   H35       1.0  0.31300  0.24584  0.22265  1.0000
  H   H36       1.0  0.11137  0.12135  0.11485  1.0000
  H   H37       1.0  0.08099  0.48373  0.29254  1.0000
  H   H38       1.0  0.28175  0.45001  0.08441  1.0000
  H   H39       1.0  0.39940  0.13442  0.11866  1.0000
  H   H40       1.0  0.08362  0.39990  0.22558  1.0000
  H   H41       1.0  0.15080  0.07601  0.11718  1.0000
  H   H42       1.0  0.16297  0.48781  0.31274  1.0000
  C   C51       1.0  0.16073  0.33455  0.09344  1.0000
  C   C52       1.0  0.34771  0.26517  0.24302  1.0000
  C   C53       1.0  0.38467  0.28310  0.15495  1.0000
  H   H43       1.0  0.25140  0.32959  0.15276  1.0000
  H   H44       1.0  0.17504  0.39710  0.16535  1.0000
  C   C54       1.0  0.36244  0.23995  0.21270  1.0000
  C   C55       1.0  0.40466  0.26068  0.23391  1.0000
  H   H45       1.0  0.46119  0.28849  0.18154  1.0000
  H   H46       1.0  0.27594  0.49712  0.17053  1.0000
  H   H47       1.0  0.14387  0.36187  0.00189  1.0000
  H   H48       1.0  0.43134  0.31097  0.12670  1.0000
  H   H49       1.0  0.14387  0.47311  0.02946  1.0000
  C   C56       1.0  0.46477  0.27064  0.12803  1.0000
  H   H50       1.0  0.01179  0.00476  0.08695  1.0000
  C   C57       1.0  0.15475  0.42246  0.03487  1.0000
  C   C58       1.0  0.39566  0.24527  0.21663  1.0000
  C   C59       1.0  0.47572  0.27869  0.19313  1.0000
  P   P1        1.0  0.42595  0.23244  0.19934  1.0000
  H   H51       1.0  0.15822  0.31202  0.10141  1.0000
  S   S15       1.0  0.07677  0.38373  0.32580  1.0000
  H   H52       1.0  0.21798  0.45962  0.26960  1.0000
  C   C60       1.0  0.43229  0.18909  0.20144  1.0000
  C   C61       1.0  0.38072  0.27055  0.24705  1.0000
  H   H53       1.0  0.19952  0.35630  0.14389  1.0000
  H   H54       1.0  0.47278  0.18911  0.18157  1.0000
  H   H55       1.0  0.37520  0.30735  0.15262  1.0000
  H   H56       1.0  0.47773  0.49603  0.17029  1.0000
  C   C62       1.0  0.34506  0.42887  0.00144  1.0000
  H   H57       1.0  0.05685  0.42755  0.19805  1.0000
  H   H58       1.0  0.23270  0.40553  0.00634  1.0000
  H   H59       1.0  0.36340  0.44935  0.02798  1.0000
  C   C63       1.0  0.11645  0.05855  0.16947  1.0000
  C   C64       1.0  0.14878  0.05052  0.16514  1.0000
  C   C65       1.0  0.16885  0.03666  0.17925  1.0000
  H   H60       1.0  0.07700  0.00309  0.15321  1.0000
  C   C66       1.0  0.16503  0.48359  0.08313  1.0000
  C   C67       1.0  0.24286  0.01891  0.13834  1.0000
  C   C68       1.0  0.23359  0.06435  0.17829  1.0000
  C   C69       1.0  0.24004  0.08671  0.16341  1.0000
  C   C70       1.0  0.25862  0.11466  0.16707  1.0000
  C   C71       1.0  0.27023  0.12085  0.18564  1.0000
  C   C72       1.0  0.26275  0.09945  0.20068  1.0000
  C   C73       1.0  0.24400  0.07162  0.19709  1.0000
  H   H61       1.0  0.14547  0.44547  0.24960  1.0000
  H   H62       1.0  0.25462  0.44401  0.18070  1.0000
  C   C74       1.0  0.26665  0.45008  0.07158  1.0000
  C   C75       1.0  0.45477  0.30246  0.13188  1.0000
  C   C76       1.0  0.12434  0.04053  0.20236  1.0000
  C   C77       1.0  0.49606  0.07612  0.14744  1.0000
  C   C78       1.0  0.18028  0.04149  0.30672  1.0000
  H   H63       1.0  0.31349  0.00588  0.31954  1.0000
  H   H64       1.0  0.46708  0.34807  0.14527  1.0000
  C   C79       1.0  0.08037  0.03169  0.11339  1.0000
  H   H65       1.0  0.41281  0.17572  0.09375  1.0000
  C   C80       1.0  0.47505  0.19118  0.12520  1.0000
  C   C81       1.0  0.23264  0.37964  0.00889  1.0000
  H   H66       1.0  0.10101  0.06913  0.15849  1.0000
  C   C82       1.0  0.10415  0.05333  0.18804  1.0000
  H   H67       1.0  0.41368  0.19475  0.16352  1.0000
  H   H68       1.0  0.23123  0.08253  0.14893  1.0000
  H   H69       1.0  0.26461  0.13127  0.15540  1.0000
  H   H70       1.0  0.28506  0.14223  0.18836  1.0000
  H   H71       1.0  0.27190  0.10420  0.21507  1.0000
  H   H72       1.0  0.23805  0.05558  0.20895  1.0000
  H   H73       1.0  0.26320  0.03216  0.14446  1.0000
  C   C83       1.0  0.48943  0.49515  0.18429  1.0000
  C   C84       1.0  0.19439  0.49218  0.19893  1.0000
  H   H74       1.0  0.34756  0.40164  0.04783  1.0000
  C   C85       1.0  0.39870  0.27480  0.17262  1.0000
  H   H75       1.0  0.07915  0.05972  0.19145  1.0000
  C   C86       1.0  0.15670  0.03258  0.19806  1.0000
  C   C87       1.0  0.40671  0.21974  0.16123  1.0000
  C   C88       1.0  0.49186  0.46547  0.19394  1.0000
  H   H76       1.0  0.46076  0.21184  0.09778  1.0000
  C   C89       1.0  0.13823  0.35956  0.09608  1.0000
  H   H77       1.0  0.16419  0.37056  0.03475  1.0000
  H   H78       1.0  0.48213  0.44355  0.18739  1.0000
  H   H79       1.0  0.13128  0.01914  0.11700  1.0000
  C   C90       1.0  0.16784  0.39312  0.07297  1.0000
  C   C91       1.0  0.14149  0.38858  0.08571  1.0000
  P   P2        1.0  0.17136  0.42968  0.05864  1.0000
  C   C92       1.0  0.14919  0.46202  0.07047  1.0000
  C   C93       1.0  0.21392  0.44093  0.05654  1.0000
  H   H80       1.0  0.19078  0.48161  0.08614  1.0000
  C   C94       1.0  0.23701  0.00285  0.27470  1.0000
  H   H81       1.0  0.31958  0.35466  0.03272  1.0000
  C   C95       1.0  0.25990  0.46069  0.03753  1.0000
  C   C96       1.0  0.22702  0.45151  0.03885  1.0000
  C   C97       1.0  0.11532  0.46479  0.06780  1.0000
  C   C98       1.0  0.11439  0.48445  0.23999  1.0000
  H   H82       1.0  0.20182  0.36551  0.22587  1.0000
  C   C99       1.0  0.42815  0.17342  0.10638  1.0000
  C   C100      1.0  0.21436  0.01310  0.14911  1.0000
  H   H83       1.0  0.25537  0.38538  0.20493  1.0000
  C   C101      1.0  0.48818  0.39672  0.11812  1.0000
  H   H84       1.0  0.35496  0.22812  0.19944  1.0000
  H   H85       1.0  0.14320  0.39723  0.22738  1.0000
  H   H86       1.0  0.43002  0.26526  0.23728  1.0000
  C   C102      1.0  0.11377  0.03865  0.11567  1.0000
  H   H87       1.0  0.15047  0.45164  0.17420  1.0000
  H   H88       1.0  0.38775  0.28248  0.26035  1.0000
  C   C103      1.0  0.33858  0.24990  0.22584  1.0000
  C   C104      1.0  0.23420  0.43972  0.07279  1.0000
  H   H89       1.0  0.12362  0.40746  0.08793  1.0000
  H   H90       1.0  0.22479  0.43133  0.08653  1.0000
  C   C105      1.0  0.41012  0.24310  0.17586  1.0000
  C   C106      1.0  0.14304  0.38598  0.00818  1.0000
  H   H91       1.0  0.09049  0.45226  0.17219  1.0000
  H   H92       1.0  0.21211  0.45238  0.02603  1.0000
  H   H93       1.0  0.10239  0.44786  0.05857  1.0000
  C   C107      1.0  0.49543  0.25968  0.13426  1.0000
  C   C108      1.0  0.25756  0.48925  0.31492  1.0000
  H   H94       1.0  0.27003  0.46825  0.02382  1.0000
  S   S16       1.0  0.34445  0.05017  0.22432  1.0000
  C   C109      1.0  0.21064  0.38112  0.25493  1.0000
  H   H95       1.0  0.48315  0.16330  0.15130  1.0000
  H   H96       1.0  0.40428  0.12145  0.22498  1.0000
  C   C110      1.0  0.41948  0.13652  0.21572  1.0000
  C   C111      1.0  0.34242  0.40193  0.03249  1.0000
  C   C112      1.0  0.14974  0.05316  0.31250  1.0000
  H   H97       1.0  0.32918  0.27289  0.25320  1.0000
  C   C113      1.0  0.35222  0.00202  0.27576  1.0000
  H   H98       1.0  0.37019  0.26615  0.12688  1.0000
  C   C114      1.0  0.45525  0.19389  0.10876  1.0000
  H   H99       1.0  0.43475  0.12849  0.14734  1.0000
  C   C115      1.0  0.38189  0.25987  0.14039  1.0000
  C   C116      1.0  0.34940  0.01849  0.24170  1.0000
  C   C117      1.0  0.26951  0.05144  0.27991  1.0000
  C   C118      1.0  0.27629  0.05295  0.26016  1.0000
  S   S17       1.0  0.11470  0.47844  0.13720  1.0000
  H   H100      1.0  0.49437  0.10120  0.10061  1.0000
  H   H101      1.0  0.12335  0.48422  0.22534  1.0000
  C   C119      1.0  0.05821  0.05756  0.11215  1.0000
  H   H102      1.0  0.27388  0.01218  0.19216  1.0000
  C   C120      1.0  0.42055  0.15014  0.12040  1.0000
  C   C121      1.0  0.09054  0.48395  0.27799  1.0000
  H   H103      1.0  0.07148  0.49017  0.07590  1.0000
  H   H104      1.0  0.28017  0.06960  0.28930  1.0000
  H   H105      1.0  0.29231  0.07179  0.25454  1.0000
  C   C122      1.0  0.24246  0.37869  0.19191  1.0000
  C   C123      1.0  0.15465  0.39110  0.02688  1.0000
  H   H106      1.0  0.20394  0.31917  0.07824  1.0000
  C   C124      1.0  0.46494  0.25181  0.20397  1.0000
  H   H107      1.0  0.30505  0.46744  0.05301  1.0000
  C   C125      1.0  0.46767  0.16710  0.13894  1.0000
  C   C126      1.0  0.20524  0.03716  0.32034  1.0000
  C   C127      1.0  0.21487  0.40759  0.26731  1.0000
  C   C128      1.0  0.21566  0.43913  0.25987  1.0000
  C   C129      1.0  0.21175  0.44430  0.24007  1.0000
  C   C130      1.0  0.20693  0.41787  0.22753  1.0000
  C   C131      1.0  0.20659  0.38620  0.23513  1.0000
  P   P3        1.0  0.19572  0.42460  0.20262  1.0000
  C   C132      1.0  0.15166  0.42439  0.20091  1.0000
  C   C133      1.0  0.21148  0.46352  0.19469  1.0000
  H   H108      1.0  0.04863  0.31849  0.32603  1.0000
  H   H109      1.0  0.21121  0.46897  0.23478  1.0000
  C   C134      1.0  0.25620  0.35556  0.17957  1.0000
  P   P4        1.0  0.21082  0.02741  0.17369  1.0000
  C   C135      1.0  0.24109  0.46561  0.18450  1.0000
  C   C136      1.0  0.13624  0.43988  0.18540  1.0000
  C   C137      1.0  0.10220  0.44048  0.18426  1.0000
  C   C138      1.0  0.08322  0.42623  0.19874  1.0000
  C   C139      1.0  0.09830  0.41059  0.21417  1.0000
  C   C140      1.0  0.13234  0.40932  0.21517  1.0000
  C   C141      1.0  0.21269  0.39351  0.18718  1.0000
  C   C142      1.0  0.19735  0.38533  0.16973  1.0000
  C   C143      1.0  0.21121  0.36224  0.15744  1.0000
  C   C144      1.0  0.24055  0.34730  0.16238  1.0000
  H   H110      1.0  0.26876  0.00986  0.11185  1.0000
  C   C145      1.0  0.25340  0.49585  0.17872  1.0000
  P   P5        1.0  0.24474  0.02166  0.31316  1.0000
  C   C146      1.0  0.20649  0.45951  0.31518  1.0000
  S   S18       1.0  0.39046  0.01096  0.17863  1.0000
  H   H111      1.0  0.28398  0.48952  0.31558  1.0000
  H   H112      1.0  0.17146  0.49122  0.20668  1.0000
  H   H113      1.0  0.11499  0.03718  0.21687  1.0000
  C   C147      1.0  0.24414  0.00428  0.25497  1.0000
  H   H114      1.0  0.35347  0.00862  0.29083  1.0000
  H   H115      1.0  0.17224  0.02348  0.20945  1.0000
  C   C148      1.0  0.18938  0.48867  0.31353  1.0000
  Fe  Fe9       1.0  0.35530  0.01223  0.15356  1.0000
  H   H116      1.0  0.12047  0.00148  0.08433  1.0000
  H   H117      1.0  0.30808  0.35452  0.99797  1.0000
  C   C149      1.0  0.21973  0.32527  0.99818  1.0000
  C   C150      1.0  0.47830  0.36773  0.62243  1.0000
  Fe  Fe10      1.0  0.18754  0.09761  0.41128  1.0000
  S   S19       1.0  0.15150  0.08625  0.43503  1.0000
  S   S20       1.0  0.20592  0.05324  0.39495  1.0000
  Fe  Fe11      1.0  0.18001  0.17069  0.41667  1.0000
  S   S21       1.0  0.14438  0.16361  0.44085  1.0000
  S   S22       1.0  0.19525  0.22303  0.41005  1.0000
  Fe  Fe12      1.0  0.17811  0.12488  0.45182  1.0000
  S   S23       1.0  0.18445  0.12191  0.48463  1.0000
  Fe  Fe13      1.0  0.12087  0.12562  0.42210  1.0000
  S   S24       1.0  0.06504  0.12537  0.42229  1.0000
  S   S25       1.0  0.21586  0.13425  0.42885  1.0000
  S   S26       1.0  0.15489  0.13474  0.39712  1.0000
  Fe  Fe14      1.0  0.11349  0.44441  0.36192  1.0000
  C   C151      1.0  0.34388  0.04593  0.44205  1.0000
  Fe  Fe15      1.0  0.04982  0.41783  0.34529  1.0000
  S   S27       1.0  0.14486  0.41097  0.34415  1.0000
  Fe  Fe16      1.0  0.10777  0.37216  0.35165  1.0000
  S   S28       1.0  0.11069  0.31733  0.35691  1.0000
  S   S29       1.0  0.07885  0.40459  0.37136  1.0000
  H   H118      1.0  0.35901  0.02498  0.44493  1.0000
  C   C152      1.0  0.04185  0.46726  0.41909  1.0000
  Fe  Fe17      1.0  0.26971  0.09506  0.60883  1.0000
  S   S30       1.0  0.30639  0.06016  0.59649  1.0000
  S   S31       1.0  0.22552  0.08298  0.62751  1.0000
  Fe  Fe18      1.0  0.30677  0.15518  0.59382  1.0000
  S   S32       1.0  0.34540  0.12447  0.58015  1.0000
  S   S33       1.0  0.31227  0.20948  0.58897  1.0000
  Fe  Fe19      1.0  0.30382  0.09278  0.57006  1.0000
  S   S34       1.0  0.30290  0.07739  0.53838  1.0000
  Fe  Fe20      1.0  0.34471  0.09534  0.60754  1.0000
  S   S35       1.0  0.38924  0.09258  0.62723  1.0000
  S   S36       1.0  0.26516  0.12551  0.58197  1.0000
  S   S37       1.0  0.30785  0.12800  0.62170  1.0000
  C   C153      1.0  0.12856  0.04100  0.58669  1.0000
  H   H119      1.0  0.47430  0.26077  0.63581  1.0000
  S   S38       1.0  0.37424  0.38756  0.63660  1.0000
  C   C154      1.0  0.18891  0.45895  0.42408  1.0000
  C   C155      1.0  0.27209  0.49165  0.64322  1.0000
  C   C156      1.0  0.17769  0.03995  0.63886  1.0000
  Fe  Fe21      1.0  0.34712  0.43077  0.64892  1.0000
  C   C157      1.0  0.17004  0.07422  0.57126  1.0000
  C   C158      1.0  0.42505  0.06862  0.62705  1.0000
  C   C159      1.0  0.42660  0.03861  0.61764  1.0000
  C   C160      1.0  0.04411  0.50021  0.41441  1.0000
  C   C161      1.0  0.13501  0.03155  0.52972  1.0000
  C   C162      1.0  0.14387  0.06055  0.33187  1.0000
  C   C163      1.0  0.45218  0.07942  0.63771  1.0000
  H   H120      1.0  0.40579  0.02989  0.60954  1.0000
  H   H121      1.0  0.34958  0.09037  0.34865  1.0000
  C   C164      1.0  0.02529  0.27991  0.34182  1.0000
  H   H122      1.0  0.45131  0.10261  0.64502  1.0000
  C   C165      1.0  0.31813  0.23623  0.60868  1.0000
  C   C166      1.0  0.31380  0.22579  0.62771  1.0000
  C   C167      1.0  0.48202  0.03027  0.62985  1.0000
  C   C168      1.0  0.32493  0.28077  0.63948  1.0000
  C   C169      1.0  0.33013  0.29107  0.62049  1.0000
  C   C170      1.0  0.32660  0.26886  0.60515  1.0000
  H   H123      1.0  0.30714  0.20082  0.63061  1.0000
  H   H124      1.0  0.04657  0.32889  0.37377  1.0000
  H   H125      1.0  0.33630  0.31622  0.61764  1.0000
  H   H126      1.0  0.33014  0.27708  0.59048  1.0000
  C   C171      1.0  0.49885  0.35520  0.60792  1.0000
  C   C172      1.0  0.01884  0.20415  0.38609  1.0000
  H   H127      1.0  0.10664  0.44754  0.52538  1.0000
  H   H128      1.0  0.25458  0.03070  0.48555  1.0000
  C   C173      1.0  0.20543  0.04475  0.62722  1.0000
  H   H129      1.0  0.24087  0.49863  0.35771  1.0000
  C   C174      1.0  0.03416  0.30206  0.42692  1.0000
  H   H130      1.0  0.16882  0.05966  0.64771  1.0000
  C   C175      1.0  0.04280  0.28826  0.39333  1.0000
  S   S39       1.0  0.08175  0.46047  0.33727  1.0000
  C   C176      1.0  0.21839  0.10995  0.49892  1.0000
  C   C177      1.0  0.21397  0.10689  0.51894  1.0000
  C   C178      1.0  0.23988  0.09792  0.53108  1.0000
  C   C179      1.0  0.27057  0.09116  0.52336  1.0000
  C   C180      1.0  0.27520  0.09433  0.50332  1.0000
  C   C181      1.0  0.24930  0.10379  0.49113  1.0000
  H   H131      1.0  0.19029  0.11146  0.52513  1.0000
  H   H132      1.0  0.23607  0.09569  0.54642  1.0000
  H   H133      1.0  0.29908  0.09020  0.49727  1.0000
  H   H134      1.0  0.25325  0.10631  0.47577  1.0000
  H   H135      1.0  0.05544  0.15252  0.35454  1.0000
  P   P6        1.0  0.15344  0.01711  0.55180  1.0000
  C   C182      1.0  0.05174  0.09306  0.38786  1.0000
  C   C183      1.0  0.03928  0.10958  0.40387  1.0000
  H   H136      1.0  0.31931  0.04468  0.48320  1.0000
  C   C184      1.0  0.09549  0.22105  0.46736  1.0000
  C   C185      1.0  0.21667  0.01911  0.61585  1.0000
  H   H137      1.0  0.07781  0.08993  0.38637  1.0000
  H   H138      1.0  0.38489  0.07638  0.43449  1.0000
  C   C186      1.0  0.17192  0.24918  0.39515  1.0000
  C   C187      1.0  0.17942  0.28259  0.39439  1.0000
  C   C188      1.0  0.16114  0.30391  0.38272  1.0000
  C   C189      1.0  0.13490  0.29203  0.37186  1.0000
  C   C190      1.0  0.12755  0.25862  0.37261  1.0000
  C   C191      1.0  0.14612  0.23731  0.38403  1.0000
  H   H139      1.0  0.19966  0.29197  0.40273  1.0000
  H   H140      1.0  0.16756  0.32940  0.38198  1.0000
  H   H141      1.0  0.10760  0.24904  0.36409  1.0000
  H   H142      1.0  0.14090  0.21158  0.38401  1.0000
  C   C192      1.0  0.30978  0.04368  0.44378  1.0000
  C   C193      1.0  0.30510  0.05663  0.38940  1.0000
  C   C194      1.0  0.27265  0.06541  0.39361  1.0000
  C   C195      1.0  0.24711  0.04380  0.38968  1.0000
  H   H143      1.0  0.15645  0.03149  0.46452  1.0000
  H   H144      1.0  0.18683  0.11556  0.58761  1.0000
  H   H145      1.0  0.32480  0.07327  0.39273  1.0000
  H   H146      1.0  0.26738  0.08882  0.39992  1.0000
  C   C196      1.0  0.02263  0.18350  0.37024  1.0000
  C   C197      1.0  0.30571  0.10069  0.43485  1.0000
  C   C198      1.0  0.33958  0.10249  0.43275  1.0000
  C   C199      1.0  0.48816  0.06051  0.58376  1.0000
  H   H147      1.0  0.29086  0.12181  0.43189  1.0000
  H   H148      1.0  0.35098  0.12500  0.42811  1.0000
  C   C200      1.0  0.21857  0.21769  0.46352  1.0000
  C   C201      1.0  0.21860  0.25084  0.45922  1.0000
  C   C202      1.0  0.22824  0.27340  0.47317  1.0000
  C   C203      1.0  0.23840  0.26281  0.49136  1.0000
  C   C204      1.0  0.23892  0.22945  0.49574  1.0000
  C   C205      1.0  0.22872  0.20698  0.48167  1.0000
  P   P7        1.0  0.25477  0.21523  0.51860  1.0000
  C   C206      1.0  0.28851  0.18783  0.51445  1.0000
  C   C207      1.0  0.26960  0.24915  0.53276  1.0000
  C   C208      1.0  0.24735  0.26883  0.54278  1.0000
  C   C209      1.0  0.25855  0.29420  0.55449  1.0000
  C   C210      1.0  0.29200  0.30023  0.55621  1.0000
  C   C211      1.0  0.31428  0.28106  0.54609  1.0000
  C   C212      1.0  0.30318  0.25568  0.53434  1.0000
  C   C213      1.0  0.30284  0.17146  0.53002  1.0000
  C   C214      1.0  0.33023  0.15195  0.52710  1.0000
  C   C215      1.0  0.34320  0.14802  0.50863  1.0000
  C   C216      1.0  0.32931  0.16436  0.49306  1.0000
  C   C217      1.0  0.30240  0.18454  0.49597  1.0000
  C   C218      1.0  0.22330  0.19572  0.53300  1.0000
  C   C219      1.0  0.22770  0.19220  0.55300  1.0000
  C   C220      1.0  0.20298  0.17882  0.56449  1.0000
  C   C221      1.0  0.17360  0.16878  0.55617  1.0000
  C   C222      1.0  0.16889  0.17230  0.53634  1.0000
  C   C223      1.0  0.19356  0.18568  0.52479  1.0000
  H   H149      1.0  0.21115  0.20025  0.45263  1.0000
  H   H150      1.0  0.21154  0.25895  0.44495  1.0000
  H   H151      1.0  0.22839  0.29908  0.46973  1.0000
  H   H152      1.0  0.24640  0.28073  0.50176  1.0000
  H   H153      1.0  0.22935  0.18107  0.48457  1.0000
  H   H154      1.0  0.22136  0.26420  0.54180  1.0000
  H   H155      1.0  0.24136  0.30887  0.56253  1.0000
  H   H156      1.0  0.30068  0.31949  0.56560  1.0000
  H   H157      1.0  0.34022  0.28550  0.54766  1.0000
  H   H158      1.0  0.32093  0.24096  0.52683  1.0000
  H   H159      1.0  0.29329  0.17392  0.54450  1.0000
  H   H160      1.0  0.34093  0.13915  0.53912  1.0000
  H   H161      1.0  0.36386  0.13214  0.50643  1.0000
  H   H162      1.0  0.33942  0.16142  0.47872  1.0000
  H   H163      1.0  0.29291  0.19762  0.48372  1.0000
  H   H164      1.0  0.25007  0.20027  0.55988  1.0000
  H   H165      1.0  0.20671  0.17636  0.57990  1.0000
  H   H166      1.0  0.15450  0.15830  0.56507  1.0000
  H   H167      1.0  0.14629  0.16421  0.52977  1.0000
  H   H168      1.0  0.18910  0.18780  0.50952  1.0000
  H   H169      1.0  0.10607  0.25870  0.41644  1.0000
  H   H170      1.0  0.39754  0.26059  0.62184  1.0000
  C   C224      1.0  0.07281  0.23408  0.43594  1.0000
  P   P8        1.0  0.29117  0.00616  0.45199  1.0000
  H   H171      1.0  0.23931  0.03791  0.66139  1.0000
  C   C225      1.0  0.42013  0.29869  0.63844  1.0000
  H   H172      1.0  0.03363  0.48663  0.46199  1.0000
  C   C226      1.0  0.40578  0.46132  0.45731  1.0000
  C   C227      1.0  0.12485  0.36782  0.41011  1.0000
  C   C228      1.0  0.12861  0.34240  0.42324  1.0000
  C   C229      1.0  0.13428  0.34917  0.44269  1.0000
  C   C230      1.0  0.13571  0.38143  0.44908  1.0000
  C   C231      1.0  0.13113  0.40717  0.43602  1.0000
  C   C232      1.0  0.12624  0.40010  0.41642  1.0000
  P   P9        1.0  0.13037  0.44888  0.44430  1.0000
  C   C233      1.0  0.12294  0.44875  0.47004  1.0000
  H   H173      1.0  0.23831  0.02237  0.60710  1.0000
  H   H174      1.0  0.04652  0.20961  0.45897  1.0000
  C   C234      1.0  0.25421  0.01371  0.38110  1.0000
  C   C235      1.0  0.48055  0.06045  0.63903  1.0000
  H   H175      1.0  0.03107  0.29488  0.44185  1.0000
  H   H176      1.0  0.17557  0.01191  0.43260  1.0000
  C   C236      1.0  0.09116  0.44414  0.47721  1.0000
  C   C237      1.0  0.08529  0.44393  0.49709  1.0000
  C   C238      1.0  0.11118  0.44774  0.50997  1.0000
  C   C239      1.0  0.14298  0.45147  0.50301  1.0000
  C   C240      1.0  0.14894  0.45161  0.48314  1.0000
  C   C241      1.0  0.09647  0.46913  0.43278  1.0000
  H   H177      1.0  0.46754  0.04618  0.57886  1.0000
  H   H178      1.0  0.03179  0.35326  0.43334  1.0000
  C   C242      1.0  0.14974  0.04660  0.57104  1.0000
  C   C243      1.0  0.32961  0.07769  0.34167  1.0000
  C   C244      1.0  0.06786  0.45174  0.42822  1.0000
  H   H179      1.0  0.12080  0.36237  0.39499  1.0000
  H   H180      1.0  0.12731  0.31746  0.41825  1.0000
  H   H181      1.0  0.13751  0.32936  0.45279  1.0000
  H   H182      1.0  0.14007  0.38609  0.46421  1.0000
  H   H183      1.0  0.12320  0.41957  0.40604  1.0000
  H   H184      1.0  0.28632  0.06950  0.64954  1.0000
  C   C245      1.0  0.41406  0.44046  0.48961  1.0000
  H   H185      1.0  0.38943  0.22452  0.64941  1.0000
  C   C246      1.0  0.20439  0.03157  0.47712  1.0000
  H   H186      1.0  0.18251  0.43790  0.41552  1.0000
  H   H187      1.0  0.07087  0.44052  0.46751  1.0000
  C   C247      1.0  0.29856  0.09149  0.34112  1.0000
  H   H188      1.0  0.13184  0.49457  0.55789  1.0000
  H   H189      1.0  0.16308  0.45423  0.51304  1.0000
  H   H190      1.0  0.17389  0.45373  0.47810  1.0000
  C   C248      1.0  0.40144  0.24752  0.65184  1.0000
  H   H191      1.0  0.03857  0.37025  0.39928  1.0000
  C   C249      1.0  0.27268  0.07461  0.33255  1.0000
  H   H192      1.0  0.19621  0.04184  0.49068  1.0000
  H   H193      1.0  0.06576  0.42606  0.43145  1.0000
  H   H194      1.0  0.16408  0.06201  0.36055  1.0000
  C   C250      1.0  0.31220  0.02653  0.38081  1.0000
  H   H195      1.0  0.09291  0.20994  0.48144  1.0000
  H   H196      1.0  0.34061  0.47838  0.44578  1.0000
  C   C251      1.0  0.03777  0.27840  0.41248  1.0000
  H   H197      1.0  0.42292  0.31493  0.62622  1.0000
  C   C252      1.0  0.41210  0.43529  0.46972  1.0000
  C   C253      1.0  0.13336  0.06498  0.52578  1.0000
  H   H198      1.0  0.15212  0.25887  0.43910  1.0000
  C   C254      1.0  0.06928  0.22058  0.45444  1.0000
  H   H199      1.0  0.09543  0.19829  0.40472  1.0000
  C   C255      1.0  0.46648  0.16966  0.59422  1.0000
  C   C256      1.0  0.43768  0.16001  0.60373  1.0000
  C   C257      1.0  0.40790  0.17451  0.59921  1.0000
  C   C258      1.0  0.40647  0.19849  0.58500  1.0000
  C   C259      1.0  0.43494  0.20817  0.57538  1.0000
  C   C260      1.0  0.46490  0.19397  0.58001  1.0000
  S   S40       1.0  0.46733  0.39763  0.65781  1.0000
  C   C261      1.0  0.07518  0.19533  0.39492  1.0000
  C   C262      1.0  0.03875  0.34470  0.40301  1.0000
  C   C263      1.0  0.33573  0.01122  0.50470  1.0000
  C   C264      1.0  0.03034  0.08012  0.37388  1.0000
  H   H200      1.0  0.10202  0.16326  0.37621  1.0000
  H   H201      1.0  0.43833  0.14167  0.61494  1.0000
  H   H202      1.0  0.38587  0.16715  0.60679  1.0000
  H   H203      1.0  0.38326  0.20962  0.58151  1.0000
  H   H204      1.0  0.43379  0.22699  0.56447  1.0000
  C   C265      1.0  0.12799  0.06253  0.60229  1.0000
  C   C266      1.0  0.03474  0.33509  0.42219  1.0000
  C   C267      1.0  0.25257  0.01083  0.55785  1.0000
  C   C268      1.0  0.07897  0.17508  0.37886  1.0000
  C   C269      1.0  0.04516  0.21041  0.39848  1.0000
  H   H205      1.0  0.27714  0.47614  0.65541  1.0000
  C   C270      1.0  0.05271  0.16907  0.36658  1.0000
  P   P10       1.0  0.03908  0.23608  0.41927  1.0000
  C   C271      1.0  0.19270  0.01480  0.44439  1.0000
  C   C272      1.0  0.00525  0.11326  0.40557  1.0000
  H   H206      1.0  0.11243  0.05745  0.61460  1.0000
  H   H207      1.0  0.45963  0.10342  0.58749  1.0000
  H   H208      1.0  0.00810  0.42169  0.38468  1.0000
  H   H209      1.0  0.11315  0.01959  0.58729  1.0000
  H   H210      1.0  0.26444  0.07059  0.44138  1.0000
  H   H211      1.0  0.04020  0.06700  0.36169  1.0000
  C   C273      1.0  0.31696  0.24803  0.64302  1.0000
  H   H212      1.0  0.34357  0.03032  0.51447  1.0000
  C   C274      1.0  0.16978  0.09538  0.58702  1.0000
  H   H213      1.0  0.50109  0.06887  0.64742  1.0000
  C   C275      1.0  0.16853  0.05631  0.34549  1.0000
  H   H214      1.0  0.14949  0.10532  0.61504  1.0000
  C   C276      1.0  0.49950  0.26809  0.63723  1.0000
  H   H215      1.0  0.12106  0.10176  0.50489  1.0000
  C   C277      1.0  0.12526  0.23518  0.46196  1.0000
  H   H216      1.0  0.44133  0.33238  0.65852  1.0000
  S   S41       1.0  0.13044  0.48172  0.38401  1.0000
  C   C278      1.0  0.40603  0.26803  0.63597  1.0000
  C   C279      1.0  0.48373  0.09309  0.58883  1.0000
  H   H217      1.0  0.14578  0.23479  0.47179  1.0000
  C   C280      1.0  0.16816  0.47010  0.43877  1.0000
  C   C281      1.0  0.11162  0.02043  0.49814  1.0000
  H   H218      1.0  0.21777  0.04151  0.35059  1.0000
  C   C282      1.0  0.29079  0.07140  0.44025  1.0000
  H   H219      1.0  0.45212  0.36755  0.62054  1.0000
  H   H220      1.0  0.47649  0.20248  0.62760  1.0000
  C   C283      1.0  0.35866  0.07511  0.43634  1.0000
  C   C284      1.0  0.12887  0.24874  0.44360  1.0000
  S   S42       1.0  0.32894  0.46733  0.62668  1.0000
  H   H221      1.0  0.14186  0.08271  0.53610  1.0000
  C   C285      1.0  0.19624  0.01026  0.54695  1.0000
  H   H222      1.0  0.18699  0.07867  0.55958  1.0000
  C   C286      1.0  0.11037  0.05375  0.49431  1.0000
  H   H223      1.0  0.41565  0.41112  0.46390  1.0000
  C   C287      1.0  0.12128  0.07596  0.50810  1.0000
  H   H224      1.0  0.10137  0.06244  0.48053  1.0000
  S   S43       1.0  0.35346  0.01590  0.37645  1.0000
  S   S44       1.0  0.32733  0.30769  0.65930  1.0000
  C   C288      1.0  0.04295  0.32134  0.38862  1.0000
  H   H225      1.0  0.35884  0.03629  0.33424  1.0000
  C   C289      1.0  0.19903  0.04464  0.33977  1.0000
  H   H226      1.0  0.40478  0.45705  0.44190  1.0000
  C   C290      1.0  0.14874  0.08957  0.60251  1.0000
  C   C291      1.0  0.10278  0.24828  0.43068  1.0000
  H   H227      1.0  0.41900  0.42030  0.49923  1.0000
  C   C292      1.0  0.19195  0.49165  0.36848  1.0000
  H   H228      1.0  0.04721  0.27067  0.38204  1.0000
  C   C293      1.0  0.32173  0.01933  0.48700  1.0000
  C   C294      1.0  0.18197  0.02595  0.46234  1.0000
  C   C295      1.0  0.28918  0.05369  0.66194  1.0000
  H   H229      1.0  0.21179  0.02186  0.57596  1.0000
  C   C296      1.0  0.40997  0.47172  0.49710  1.0000
  C   C297      1.0  0.48893  0.18497  0.63656  1.0000
  C   C298      1.0  0.22581  0.00883  0.44126  1.0000
  H   H230      1.0  0.29449  0.11517  0.34749  1.0000
  H   H231      1.0  0.23322  0.46757  0.40800  1.0000
  C   C299      1.0  0.32093  0.48301  0.41729  1.0000
  H   H232      1.0  0.01764  0.17396  0.43471  1.0000
  H   H233      1.0  0.30234  0.46458  0.41954  1.0000
  H   H234      1.0  0.48667  0.20252  0.57272  1.0000
  C   C300      1.0  0.12408  0.00933  0.51571  1.0000
  H   H235      1.0  0.06068  0.44069  0.50254  1.0000
  C   C301      1.0  0.23751  0.02529  0.47411  1.0000
  C   C302      1.0  0.45492  0.01942  0.61916  1.0000
  H   H236      1.0  0.02013  0.45363  0.41525  1.0000
  H   H237      1.0  0.44412  0.00603  0.66199  1.0000
  C   C303      1.0  0.21936  0.01483  0.56163  1.0000
  C   C304      1.0  0.24837  0.01332  0.45625  1.0000
  C   C305      1.0  0.43043  0.30853  0.65671  1.0000
  C   C306      1.0  0.29318  0.49152  0.62734  1.0000
  H   H238      1.0  0.18705  0.47087  0.35937  1.0000
  H   H239      1.0  0.13927  0.00663  0.64752  1.0000
  H   H240      1.0  0.12022  0.06953  0.33638  1.0000
  C   C307      1.0  0.33481  0.04708  0.33359  1.0000
  C   C308      1.0  0.02613  0.31002  0.33260  1.0000
  C   C309      1.0  0.21788  0.47566  0.41980  1.0000
  H   H241      1.0  0.41182  0.47577  0.51251  1.0000
  H   H242      1.0  0.48827  0.34524  0.59491  1.0000
  C   C310      1.0  0.49181  0.38130  0.63910  1.0000
  Fe  Fe22      1.0  0.34785  0.35915  0.65957  1.0000
  Fe  Fe23      1.0  0.41173  0.39865  0.65928  1.0000
  C   C311      1.0  0.17665  0.49861  0.44885  1.0000
  H   H243      1.0  0.04724  0.26533  0.34245  1.0000
  C   C312      1.0  0.32258  0.49951  0.39970  1.0000
  H   H244      1.0  0.35645  0.13532  0.65910  1.0000
  H   H245      1.0  0.30526  0.49397  0.38835  1.0000
  C   C313      1.0  0.16106  0.00988  0.63895  1.0000
  H   H246      1.0  0.27033  0.01532  0.56909  1.0000
  H   H247      1.0  0.31284  0.23997  0.65768  1.0000
  C   C314      1.0  0.28652  0.00525  0.37648  1.0000
  C   C315      1.0  0.34281  0.49078  0.43207  1.0000
  C   C316      1.0  0.40094  0.49265  0.46477  1.0000
  H   H248      1.0  0.10338  0.00321  0.48735  1.0000
  C   C317      1.0  0.48770  0.18860  0.65655  1.0000
  H   H249      1.0  0.23377  0.00150  0.42699  1.0000
  C   C318      1.0  0.40370  0.49780  0.48472  1.0000
  H   H250      1.0  0.47419  0.20860  0.66261  1.0000
  H   H251      1.0  0.24909  0.08618  0.33187  1.0000
  C   C319      1.0  0.26300  0.00173  0.53947  1.0000
  H   H252      1.0  0.10440  0.15242  0.81193  1.0000
  H   H253      1.0  0.26827  0.03061  0.95491  1.0000
  C   C320      1.0  0.28438  0.31262  0.95380  1.0000
  H   H254      1.0  0.05578  0.13856  0.79232  1.0000
  Fe  Fe24      1.0  0.05490  0.04590  0.84554  1.0000
  S   S45       1.0  0.08185  0.07765  0.82429  1.0000
  S   S46       1.0  0.14951  0.04613  0.83993  1.0000
  Fe  Fe25      1.0  0.11703  0.08795  0.84843  1.0000
  S   S47       1.0  0.13450  0.14091  0.85073  1.0000
  Fe  Fe26      1.0  0.11196  0.03360  0.81731  1.0000
  S   S48       1.0  0.08835  0.05880  0.87004  1.0000
  Fe  Fe27      1.0  0.18568  0.36260  0.90212  1.0000
  S   S49       1.0  0.15953  0.38962  0.92556  1.0000
  S   S50       1.0  0.20588  0.39315  0.87725  1.0000
  Fe  Fe28      1.0  0.16487  0.29629  0.91856  1.0000
  S   S51       1.0  0.13783  0.31982  0.94324  1.0000
  S   S52       1.0  0.16158  0.24063  0.91971  1.0000
  Fe  Fe29      1.0  0.11854  0.35418  0.92078  1.0000
  S   S53       1.0  0.06495  0.36868  0.92225  1.0000
  Fe  Fe30      1.0  0.18133  0.35299  0.94598  1.0000
  S   S54       1.0  0.20277  0.37595  0.97338  1.0000
  S   S55       1.0  0.14303  0.32896  0.89603  1.0000
  S   S56       1.0  0.21013  0.32770  0.92263  1.0000
  Fe  Fe31      1.0  0.35973  0.41126  0.69093  1.0000
  S   S57       1.0  0.35631  0.41249  0.72390  1.0000
  S   S58       1.0  0.38734  0.36711  0.68143  1.0000
  C   C321      1.0  0.36378  0.44241  0.75905  1.0000
  C   C322      1.0  0.35211  0.49915  0.76585  1.0000
  H   H255      1.0  0.12131  0.21210  0.95125  1.0000
  C   C323      1.0  0.42700  0.16940  0.69052  1.0000
  C   C324      1.0  0.01387  0.16331  0.91022  1.0000
  C   C325      1.0  0.09341  0.18538  0.97245  1.0000
  H   H256      1.0  0.30473  0.04586  0.91997  1.0000
  C   C326      1.0  0.36161  0.46840  0.77223  1.0000
  H   H257      1.0  0.34245  0.48152  0.71784  1.0000
  C   C327      1.0  0.03992  0.37623  0.90189  1.0000
  C   C328      1.0  0.05218  0.37463  0.88308  1.0000
  C   C329      1.0  0.35083  0.02574  0.95992  1.0000
  H   H258      1.0  0.02323  0.25807  0.94411  1.0000
  C   C330      1.0  0.34512  0.34359  0.95076  1.0000
  H   H259      1.0  0.07784  0.37000  0.88072  1.0000
  H   H260      1.0  0.07587  0.21602  0.92832  1.0000
  H   H261      1.0  0.02570  0.10358  0.86740  1.0000
  C   C331      1.0  0.06603  0.09583  0.93630  1.0000
  C   C332      1.0  0.14129  0.16823  0.87024  1.0000
  C   C333      1.0  0.13631  0.15933  0.88951  1.0000
  C   C334      1.0  0.14242  0.18184  0.90443  1.0000
  C   C335      1.0  0.15332  0.21361  0.90030  1.0000
  C   C336      1.0  0.15783  0.22270  0.88104  1.0000
  C   C337      1.0  0.15200  0.20007  0.86613  1.0000
  H   H262      1.0  0.12776  0.13519  0.89294  1.0000
  H   H263      1.0  0.13836  0.17469  0.91925  1.0000
  H   H264      1.0  0.16611  0.24705  0.87763  1.0000
  H   H265      1.0  0.15598  0.20730  0.85131  1.0000
  H   H266      1.0  0.41346  0.06605  0.74813  1.0000
  C   C338      1.0  0.35655  0.44683  0.73939  1.0000
  C   C339      1.0  0.21936  0.35877  0.99482  1.0000
  C   C340      1.0  0.24124  0.43452  0.93920  1.0000
  H   H267      1.0  0.46606  0.35811  0.72883  1.0000
  C   C341      1.0  0.48137  0.34889  0.69967  1.0000
  C   C342      1.0  0.30135  0.45253  0.87765  1.0000
  C   C343      1.0  0.27603  0.46065  0.86507  1.0000
  C   C344      1.0  0.24659  0.44277  0.86542  1.0000
  C   C345      1.0  0.24219  0.41667  0.87830  1.0000
  C   C346      1.0  0.26735  0.40884  0.89100  1.0000
  C   C347      1.0  0.29677  0.42667  0.89065  1.0000
  C   C348      1.0  0.34125  0.31153  0.94438  1.0000
  H   H268      1.0  0.22718  0.44915  0.85561  1.0000
  H   H269      1.0  0.26451  0.38830  0.90060  1.0000
  H   H270      1.0  0.11172  0.05963  0.68948  1.0000
  H   H271      1.0  0.44708  0.17827  0.69909  1.0000
  H   H272      1.0  0.32367  0.43589  0.80604  1.0000
  H   H273      1.0  0.02580  0.17659  0.84967  1.0000
  H   H274      1.0  0.07109  0.31241  0.89314  1.0000
  C   C349      1.0  0.34794  0.47779  0.73291  1.0000
  H   H275      1.0  0.43144  0.45644  0.92637  1.0000
  P   P11       1.0  0.40180  0.23275  0.69141  1.0000
  C   C350      1.0  0.16528  0.38334  0.79192  1.0000
  C   C351      1.0  0.36210  0.24379  0.70064  1.0000
  C   C352      1.0  0.35209  0.27631  0.70018  1.0000
  C   C353      1.0  0.32104  0.28492  0.70672  1.0000
  C   C354      1.0  0.29991  0.26121  0.71408  1.0000
  C   C355      1.0  0.31015  0.22893  0.71533  1.0000
  C   C356      1.0  0.34122  0.22023  0.70876  1.0000
  H   H276      1.0  0.46174  0.36296  0.69341  1.0000
  C   C357      1.0  0.25586  0.47901  0.69697  1.0000
  H   H277      1.0  0.29710  0.06125  0.88602  1.0000
  H   H278      1.0  0.19863  0.01528  0.80808  1.0000
  C   C358      1.0  0.31851  0.36044  0.95864  1.0000
  C   C359      1.0  0.43179  0.24076  0.70998  1.0000
  C   C360      1.0  0.42217  0.24692  0.72910  1.0000
  H   H279      1.0  0.12025  0.02716  0.91546  1.0000
  C   C361      1.0  0.03708  0.17402  0.96406  1.0000
  H   H280      1.0  0.18335  0.44838  0.90372  1.0000
  H   H281      1.0  0.47315  0.23677  0.69075  1.0000
  S   S59       1.0  0.31804  0.40129  0.67048  1.0000
  H   H282      1.0  0.22797  0.02064  0.99090  1.0000
  C   C362      1.0  0.46838  0.04709  0.71055  1.0000
  C   C363      1.0  0.41073  0.44670  0.93430  1.0000
  H   H283      1.0  0.36707  0.46464  0.78730  1.0000
  H   H284      1.0  0.36766  0.29505  0.69410  1.0000
  H   H285      1.0  0.31305  0.30993  0.70532  1.0000
  H   H286      1.0  0.27551  0.26789  0.71858  1.0000
  H   H287      1.0  0.29373  0.21054  0.72102  1.0000
  H   H288      1.0  0.34862  0.19509  0.70980  1.0000
  C   C364      1.0  0.44563  0.25262  0.74336  1.0000
  C   C365      1.0  0.33257  0.39703  0.84885  1.0000
  C   C366      1.0  0.19283  0.17214  0.95919  1.0000
  H   H289      1.0  0.31652  0.41969  0.90005  1.0000
  H   H290      1.0  0.39663  0.24761  0.73308  1.0000
  C   C367      1.0  0.13459  0.04653  0.68966  1.0000
  H   H291      1.0  0.24531  0.33162  0.79236  1.0000
  P   P12       1.0  0.32285  0.40193  0.96689  1.0000
  H   H292      1.0  0.20567  0.46489  0.70119  1.0000
  H   H293      1.0  0.37168  0.01125  0.95576  1.0000
  H   H294      1.0  0.37469  0.11034  0.75514  1.0000
  C   C368      1.0  0.21381  0.03516  0.88304  1.0000
  C   C369      1.0  0.43699  0.05152  0.70282  1.0000
  S   S60       1.0  0.38684  0.44376  0.67019  1.0000
  C   C370      1.0  0.09782  0.20135  0.95485  1.0000
  H   H295      1.0  0.38035  0.05968  0.97601  1.0000
  C   C371      1.0  0.04533  0.15376  0.90456  1.0000
  C   C372      1.0  0.31794  0.41947  0.81779  1.0000
  H   H296      1.0  0.15928  0.10201  0.97611  1.0000
  H   H297      1.0  0.26661  0.28772  0.77159  1.0000
  C   C373      1.0  0.42560  0.28825  0.67267  1.0000
  H   H298      1.0  0.20750  0.01470  0.93029  1.0000
  H   H299      1.0  0.10934  0.11466  0.94942  1.0000
  C   C374      1.0  0.29892  0.03582  0.88990  1.0000
  H   H300      1.0  0.06145  0.02807  0.90831  1.0000
  C   C375      1.0  0.00946  0.33712  0.80892  1.0000
  H   H301      1.0  0.39316  0.40323  0.97474  1.0000
  C   C376      1.0  0.07199  0.04684  0.91739  1.0000
  H   H302      1.0  0.05073  0.11500  0.94191  1.0000
  C   C377      1.0  0.31088  0.29606  0.94588  1.0000
  C   C378      1.0  0.28819  0.34464  0.96012  1.0000
  H   H303      1.0  0.30784  0.27125  0.94093  1.0000
  C   C379      1.0  0.33887  0.41846  0.83366  1.0000
  P   P13       1.0  0.00814  0.19275  0.92921  1.0000
  C   C380      1.0  0.03182  0.28802  0.82303  1.0000
  H   H304      1.0  0.19479  0.12550  0.91899  1.0000
  H   H305      1.0  0.34839  0.39700  0.86136  1.0000
  C   C381      1.0  0.03116  0.37881  0.86724  1.0000
  C   C382      1.0  0.20543  0.01926  0.98278  1.0000
  H   H306      1.0  0.06680  0.16253  0.91195  1.0000
  C   C383      1.0  0.19855  0.16292  0.94011  1.0000
  H   H307      1.0  0.49697  0.25628  0.74976  1.0000
  C   C384      1.0  0.05235  0.07162  0.92469  1.0000
  C   C385      1.0  0.19038  0.13157  0.93389  1.0000
  H   H308      1.0  0.05960  0.15948  0.99075  1.0000
  H   H309      1.0  0.21650  0.06129  0.96555  1.0000
  C   C386      1.0  0.19884  0.04222  0.96844  1.0000
  H   H310      1.0  0.35982  0.43462  0.83434  1.0000
  C   C387      1.0  0.17602  0.10919  0.94673  1.0000
  H   H311      1.0  0.32837  0.44122  0.93122  1.0000
  H   H312      1.0  0.26468  0.45424  0.69610  1.0000
  C   C388      1.0  0.09939  0.09547  0.94052  1.0000
  H   H313      1.0  0.18988  0.07570  0.86950  1.0000
  H   H314      1.0  0.02659  0.07219  0.92120  1.0000
  C   C389      1.0  0.22662  0.45472  0.95287  1.0000
  H   H315      1.0  0.36182  0.29865  0.93828  1.0000
  C   C390      1.0  0.00650  0.23275  0.91851  1.0000
  H   H316      1.0  0.20973  0.30887  0.98751  1.0000
  C   C391      1.0  0.27073  0.44368  0.97516  1.0000
  C   C392      1.0  0.07157  0.28988  0.88509  1.0000
  C   C393      1.0  0.39899  0.11610  0.74990  1.0000
  H   H317      1.0  0.33347  0.09379  0.98587  1.0000
  H   H318      1.0  0.07366  0.12508  0.88468  1.0000
  H   H319      1.0  0.20856  0.18046  0.92997  1.0000
  C   C394      1.0  0.32946  0.07250  0.97694  1.0000
  H   H320      1.0  0.28131  0.44694  0.98929  1.0000
  C   C395      1.0  0.03432  0.21487  0.80650  1.0000
  C   C396      1.0  0.10539  0.04645  0.92147  1.0000
  H   H321      1.0  0.44006  0.42680  0.95712  1.0000
  H   H322      1.0  0.16157  0.09274  0.89898  1.0000
  C   C397      1.0  0.04129  0.19012  0.94634  1.0000
  C   C398      1.0  0.07188  0.20375  0.94189  1.0000
  C   C399      1.0  0.30554  0.37622  0.84807  1.0000
  C   C400      1.0  0.28995  0.39961  0.81725  1.0000
  C   C401      1.0  0.28460  0.37709  0.83218  1.0000
  P   P14       1.0  0.26339  0.40032  0.79649  1.0000
  C   C402      1.0  0.22086  0.39422  0.80244  1.0000
  C   C403      1.0  0.17063  0.11864  0.96596  1.0000
  C   C404      1.0  0.04947  0.13239  0.88912  1.0000
  H   H323      1.0  0.26549  0.47421  0.74007  1.0000
  H   H324      1.0  0.04083  0.37736  0.85273  1.0000
  C   C405      1.0  0.15408  0.38725  0.81084  1.0000
  C   C406      1.0  0.17609  0.39500  0.82551  1.0000
  C   C407      1.0  0.20927  0.39887  0.82131  1.0000
  C   C408      1.0  0.27794  0.36841  0.78091  1.0000
  C   C409      1.0  0.30412  0.37427  0.76828  1.0000
  C   C410      1.0  0.31609  0.34939  0.75657  1.0000
  C   C411      1.0  0.30252  0.31824  0.75772  1.0000
  C   C412      1.0  0.27688  0.31197  0.77056  1.0000
  C   C413      1.0  0.26470  0.33694  0.78220  1.0000
  H   H325      1.0  0.30052  0.35982  0.85994  1.0000
  H   H326      1.0  0.26403  0.36049  0.83174  1.0000
  P   P15       1.0  0.48021  0.06566  0.73320  1.0000
  C   C414      1.0  0.24136  0.45931  0.97084  1.0000
  H   H327      1.0  0.11344  0.18391  0.98257  1.0000
  C   C415      1.0  0.26692  0.46799  0.79592  1.0000
  H   H328      1.0  0.12833  0.38454  0.81414  1.0000
  H   H329      1.0  0.16748  0.39834  0.84020  1.0000
  H   H330      1.0  0.22559  0.40577  0.83282  1.0000
  H   H331      1.0  0.31527  0.39811  0.76740  1.0000
  H   H332      1.0  0.33597  0.35444  0.74661  1.0000
  H   H333      1.0  0.31212  0.29899  0.74875  1.0000
  C   C416      1.0  0.27037  0.41868  0.94355  1.0000
  C   C417      1.0  0.35588  0.05328  0.97139  1.0000
  C   C418      1.0  0.19855  0.38679  0.78772  1.0000
  C   C419      1.0  0.07826  0.26094  0.89467  1.0000
  C   C420      1.0  0.07811  0.23163  0.88453  1.0000
  C   C421      1.0  0.07319  0.23141  0.86460  1.0000
  C   C422      1.0  0.06752  0.26066  0.85477  1.0000
  C   C423      1.0  0.06583  0.28980  0.86527  1.0000
  P   P16       1.0  0.06609  0.26242  0.82880  1.0000
  C   C424      1.0  0.10408  0.27912  0.81978  1.0000
  C   C425      1.0  0.06169  0.22276  0.81781  1.0000
  C   C426      1.0  0.35243  0.43784  0.93718  1.0000
  S   S61       1.0  0.33947  0.47306  0.87725  1.0000
  C   C427      1.0  0.05747  0.16213  0.79928  1.0000
  C   C428      1.0  0.08484  0.16991  0.81033  1.0000
  C   C429      1.0  0.08714  0.20018  0.81939  1.0000
  C   C430      1.0  0.12823  0.29102  0.83237  1.0000
  C   C431      1.0  0.15757  0.30346  0.82505  1.0000
  C   C432      1.0  0.16323  0.30376  0.80517  1.0000
  C   C433      1.0  0.13947  0.29180  0.79256  1.0000
  C   C434      1.0  0.11003  0.27944  0.79983  1.0000
  C   C435      1.0  0.40147  0.19006  0.68497  1.0000
  H   H334      1.0  0.12937  0.46951  0.91370  1.0000
  C   C436      1.0  0.43964  0.15590  0.74041  1.0000
  C   C437      1.0  0.46519  0.24074  0.70539  1.0000
  H   H335      1.0  0.22952  0.43028  0.92543  1.0000
  H   H336      1.0  0.21582  0.05939  0.69576  1.0000
  C   C438      1.0  0.47882  0.25183  0.73871  1.0000
  H   H337      1.0  0.26058  0.42066  0.75564  1.0000
  H   H338      1.0  0.08330  0.20919  0.89194  1.0000
  H   H339      1.0  0.07492  0.20853  0.85706  1.0000
  H   H340      1.0  0.06136  0.31272  0.85804  1.0000
  H   H341      1.0  0.01279  0.35982  0.80121  1.0000
  C   C439      1.0  0.40151  0.12455  0.67359  1.0000
  H   H342      1.0  0.26077  0.30076  0.95506  1.0000
  H   H343      1.0  0.46611  0.06932  0.77479  1.0000
  H   H344      1.0  0.10884  0.20585  0.82767  1.0000
  H   H345      1.0  0.12489  0.29062  0.84784  1.0000
  H   H346      1.0  0.17595  0.31282  0.83486  1.0000
  H   H347      1.0  0.18601  0.31336  0.79957  1.0000
  H   H348      1.0  0.14389  0.29199  0.77715  1.0000
  H   H349      1.0  0.09189  0.27007  0.78990  1.0000
  C   C440      1.0  0.48390  0.34627  0.71967  1.0000
  H   H350      1.0  0.22949  0.47416  0.98163  1.0000
  H   H351      1.0  0.26747  0.35706  0.96625  1.0000
  C   C441      1.0  0.38885  0.41689  0.96163  1.0000
  H   H352      1.0  0.05989  0.32430  0.80732  1.0000
  H   H353      1.0  0.39124  0.16788  0.75020  1.0000
  C   C442      1.0  0.17984  0.47432  0.90545  1.0000
  H   H354      1.0  0.37101  0.41868  0.76415  1.0000
  C   C443      1.0  0.19386  0.06253  0.88282  1.0000
  H   H355      1.0  0.20685  0.38414  0.77296  1.0000
  C   C444      1.0  0.21858  0.01814  0.90023  1.0000
  C   C445      1.0  0.20377  0.02871  0.91729  1.0000
  C   C446      1.0  0.18348  0.05618  0.91714  1.0000
  C   C447      1.0  0.17815  0.07249  0.89967  1.0000
  P   P17       1.0  0.16245  0.06942  0.93870  1.0000
  C   C448      1.0  0.11935  0.07064  0.93319  1.0000
  C   C449      1.0  0.26919  0.49832  0.78693  1.0000
  C   C450      1.0  0.41554  0.43000  0.95161  1.0000
  H   H356      1.0  0.14812  0.37783  0.78049  1.0000
  C   C451      1.0  0.35701  0.42080  0.95452  1.0000
  H   H357      1.0  0.20343  0.46602  0.94969  1.0000
  Fe  Fe32      1.0  0.11839  0.01605  0.85989  1.0000
  C   C452      1.0  0.28538  0.42310  0.96154  1.0000
  H   H358      1.0  0.43238  0.29714  0.68681  1.0000
  H   H359      1.0  0.28092  0.40244  0.93300  1.0000
  H   H360      1.0  0.00907  0.04169  0.88663  1.0000
  H   H361      1.0  0.22484  0.02659  0.86979  1.0000
  C   C453      1.0  0.29276  0.03671  0.95955  1.0000
  H   H362      1.0  0.08383  0.26157  0.90992  1.0000
  C   C454      1.0  0.26530  0.47246  0.75567  1.0000
  C   C455      1.0  0.06308  0.17169  0.97704  1.0000
  C   C456      1.0  0.31916  0.01712  0.95408  1.0000
  H   H363      1.0  0.12357  0.40796  0.98256  1.0000
  H   H364      1.0  0.27750  0.07933  0.97523  1.0000
  H   H365      1.0  0.16388  0.08927  0.69473  1.0000
  H   H366      1.0  0.41914  0.06640  0.71004  1.0000
  C   C457      1.0  0.26481  0.43953  0.78479  1.0000
  C   C458      1.0  0.42102  0.09109  0.74597  1.0000
  C   C459      1.0  0.26304  0.44206  0.76460  1.0000
  C   C460      1.0  0.16395  0.06318  0.69263  1.0000
  C   C461      1.0  0.03225  0.18463  0.79732  1.0000
  C   C462      1.0  0.20566  0.49577  0.90179  1.0000
  H   H367      1.0  0.43806  0.25780  0.75803  1.0000
  C   C463      1.0  0.29791  0.06428  0.97098  1.0000
  C   C464      1.0  0.37921  0.45048  0.92707  1.0000
  H   H368      1.0  0.40430  0.04035  0.67927  1.0000
  C   C465      1.0  0.03608  0.31687  0.81247  1.0000
  C   C466      1.0  0.48858  0.24577  0.71974  1.0000
  H   H369      1.0  0.36885  0.35502  0.94950  1.0000
  C   C467      1.0  0.00657  0.38288  0.90467  1.0000
  S   S62       1.0  0.13134  0.02452  0.78674  1.0000
  H   H370      1.0  0.44708  0.12108  0.68871  1.0000
  H   H371      1.0  0.37551  0.46297  0.91345  1.0000
  C   C468      1.0  0.42832  0.03674  0.68537  1.0000
  C   C469      1.0  0.17916  0.14991  0.97216  1.0000
  C   C470      1.0  0.32996  0.40194  0.99265  1.0000
  H   H372      1.0  0.27936  0.48033  0.85490  1.0000
  C   C471      1.0  0.02239  0.12033  0.87928  1.0000
  H   H373      1.0  0.02572  0.12510  0.83116  1.0000
  H   H374      1.0  0.19877  0.19666  0.96380  1.0000
  C   C472      1.0  0.16979  0.04037  0.95776  1.0000
  C   C473      1.0  0.42701  0.13679  0.68481  1.0000
  C   C474      1.0  0.40829  0.14850  0.74710  1.0000
  H   H375      1.0  0.17484  0.15710  0.98698  1.0000
  C   C475      1.0  0.45254  0.09830  0.73914  1.0000
  C   C476      1.0  0.48043  0.03560  0.75230  1.0000
  C   C477      1.0  0.37568  0.17731  0.67392  1.0000
  H   H376      1.0  0.44696  0.18099  0.73838  1.0000
  C   C478      1.0  0.14761  0.01497  0.96151  1.0000
  C   C479      1.0  0.46166  0.13095  0.73634  1.0000
  C   C480      1.0  0.47295  0.04462  0.77136  1.0000
  H   H377      1.0  0.48574  0.13736  0.73114  1.0000
  C   C481      1.0  0.47545  0.02200  0.78636  1.0000
  H   H378      1.0  0.47014  0.02916  0.80108  1.0000
  C   C482      1.0  0.22268  0.48501  0.69985  1.0000
  H   H379      1.0  0.49607  0.27610  0.66769  1.0000
  H   H380      1.0  0.26774  0.46674  0.81152  1.0000
  H   H381      1.0  0.01467  0.23194  0.80450  1.0000
  C   C483      1.0  0.30308  0.02691  0.90922  1.0000
  C   C484      1.0  0.29698  0.01195  0.87559  1.0000
  H   H382      1.0  0.01799  0.31284  0.92977  1.0000
  C   C485      1.0  0.01470  0.26039  0.92940  1.0000
  H   H383      1.0  0.40189  0.09956  0.66869  1.0000
  H   H384      1.0  0.14664  0.01808  0.74658  1.0000
  H   H385      1.0  0.01103  0.17851  0.78873  1.0000
  H   H386      1.0  0.12532  0.01248  0.95331  1.0000
  C   C486      1.0  0.14939  0.48628  0.91094  1.0000
  H   H387      1.0  0.25804  0.01195  0.81497  1.0000
  H   H388      1.0  0.22913  0.48596  0.89755  1.0000
  C   C487      1.0  0.01145  0.29146  0.92143  1.0000
  H   H389      1.0  0.01383  0.16326  0.96796  1.0000
  H   H390      1.0  0.30316  0.49953  0.69211  1.0000
  H   H391      1.0  0.35217  0.44984  0.99294  1.0000
  H   H392      1.0  0.29362  0.01881  0.86064  1.0000
  C   C488      1.0  0.45075  0.01737  0.67556  1.0000
  C   C489      1.0  0.37585  0.14476  0.66818  1.0000
  H   H393      1.0  0.35560  0.19264  0.66947  1.0000
  C   C490      1.0  0.41084  0.25756  0.67042  1.0000
  C   C491      1.0  0.49097  0.00374  0.74862  1.0000
  C   C492      1.0  0.49086  0.02799  0.70036  1.0000
  H   H394      1.0  0.34651  0.02816  0.69378  1.0000
  C   C493      1.0  0.48205  0.01315  0.68300  1.0000
  H   H395      1.0  0.34022  0.06461  0.66537  1.0000
  C   C494      1.0  0.19340  0.04617  0.69301  1.0000
  C   C495      1.0  0.32300  0.03040  0.68684  1.0000
  H   H396      1.0  0.50306  0.16925  0.68396  1.0000
  C   C496      1.0  0.29627  0.01234  0.69365  1.0000
  H   H397      1.0  0.50285  0.33786  0.67227  1.0000
  C   C497      1.0  0.19372  0.01238  0.69008  1.0000
  C   C498      1.0  0.26861  0.50052  0.76683  1.0000
  C   C499      1.0  0.13468  0.01290  0.68697  1.0000
  C   C500      1.0  0.31950  0.05096  0.67092  1.0000
  C   C501      1.0  0.26247  0.03571  0.66872  1.0000
  C   C502      1.0  0.26575  0.01471  0.68456  1.0000
  H   H398      1.0  0.19869  0.00955  0.72850  1.0000
  C   C503      1.0  0.13175  0.41206  0.99723  1.0000
  H   H399      1.0  0.12323  0.46358  0.99645  1.0000
  H   H400      1.0  0.27714  0.74161  0.02751  1.0000
  S   S63       1.0  0.34815  0.93733  0.28802  1.0000
  Fe  Fe33      1.0  0.08051  0.54222  0.19632  1.0000
  Fe  Fe34      1.0  0.10232  0.59274  0.16562  1.0000
  S   S64       1.0  0.07610  0.56694  0.14147  1.0000
  S   S65       1.0  0.12883  0.64176  0.16584  1.0000
  Fe  Fe35      1.0  0.03420  0.56023  0.16240  1.0000
  S   S66       1.0  0.05937  0.58908  0.18557  1.0000
  S   S67       1.0  0.12575  0.54772  0.17803  1.0000
  Fe  Fe36      1.0  0.16868  0.84933  0.06594  1.0000
  S   S68       1.0  0.20101  0.82552  0.08816  1.0000
  S   S69       1.0  0.17423  0.85476  0.03310  1.0000
  Fe  Fe37      1.0  0.11066  0.85476  0.09494  1.0000
  S   S70       1.0  0.13877  0.83138  0.11880  1.0000
  S   S71       1.0  0.05646  0.86672  0.09532  1.0000
  Fe  Fe38      1.0  0.18067  0.86334  0.10864  1.0000
  S   S72       1.0  0.20430  0.89253  0.13297  1.0000
  Fe  Fe39      1.0  0.15654  0.79593  0.09665  1.0000
  S   S73       1.0  0.15289  0.74069  0.09662  1.0000
  S   S74       1.0  0.15094  0.88896  0.08593  1.0000
  S   S75       1.0  0.12580  0.81740  0.07330  1.0000
  C   C504      1.0  0.26622  0.86195  0.01005  1.0000
  H   H401      1.0  0.10003  0.52783  0.09828  1.0000
  C   C505      1.0  0.49356  0.94657  0.13613  1.0000
  C   C506      1.0  0.12361  0.93591  0.15971  1.0000
  C   C507      1.0  0.24209  0.91386  0.13292  1.0000
  C   C508      1.0  0.24964  0.93411  0.14865  1.0000
  C   C509      1.0  0.27946  0.95132  0.14942  1.0000
  C   C510      1.0  0.30218  0.94832  0.13447  1.0000
  C   C511      1.0  0.29474  0.92786  0.11880  1.0000
  C   C512      1.0  0.26476  0.91089  0.11793  1.0000
  H   H402      1.0  0.23234  0.93640  0.16032  1.0000
  H   H403      1.0  0.28506  0.96667  0.16162  1.0000
  H   H404      1.0  0.31229  0.92517  0.10724  1.0000
  H   H405      1.0  0.25939  0.89527  0.10579  1.0000
  H   H406      1.0  0.17467  0.96418  0.11692  1.0000
  H   H407      1.0  0.20311  0.68373  0.01042  1.0000
  C   C513      1.0  0.10447  0.93899  0.12673  1.0000
  C   C514      1.0  0.03338  0.87862  0.11573  1.0000
  C   C515      1.0  0.04710  0.88034  0.13414  1.0000
  C   C516      1.0  0.02772  0.88928  0.15005  1.0000
  H   H408      1.0  0.02924  0.72723  0.10846  1.0000
  C   C517      1.0  0.12679  0.78264  0.18101  1.0000
  H   H409      1.0  0.07253  0.87444  0.13615  1.0000
  H   H410      1.0  0.03855  0.89071  0.16424  1.0000
  C   C518      1.0  0.13224  0.66948  0.14636  1.0000
  C   C519      1.0  0.14011  0.70209  0.15032  1.0000
  C   C520      1.0  0.14519  0.72461  0.13528  1.0000
  C   C521      1.0  0.14275  0.71455  0.11608  1.0000
  C   C522      1.0  0.13415  0.68209  0.11211  1.0000
  C   C523      1.0  0.12871  0.65967  0.12717  1.0000
  H   H411      1.0  0.14294  0.70971  0.16512  1.0000
  H   H412      1.0  0.15230  0.74936  0.13852  1.0000
  H   H413      1.0  0.13221  0.67411  0.09729  1.0000
  H   H414      1.0  0.12269  0.63462  0.12394  1.0000
  C   C524      1.0  0.17943  0.54159  0.25075  1.0000
  P   P18       1.0  0.06664  0.98982  0.11228  1.0000
  C   C525      1.0  0.14685  0.55214  0.32344  1.0000
  C   C526      1.0  0.35057  0.96917  0.27055  1.0000
  C   C527      1.0  0.34894  0.96122  0.25081  1.0000
  C   C528      1.0  0.34890  0.98564  0.23647  1.0000
  H   H415      1.0  0.22574  0.79281  0.13043  1.0000
  C   C529      1.0  0.22133  0.98692  0.11191  1.0000
  P   P19       1.0  0.18392  0.55574  0.30932  1.0000
  H   H416      1.0  0.34777  0.93594  0.24658  1.0000
  H   H417      1.0  0.34785  0.97906  0.22139  1.0000
  C   C530      1.0  0.16003  0.77507  0.18065  1.0000
  C   C531      1.0  0.05809  0.94652  0.08179  1.0000
  C   C532      1.0  0.08260  0.73303  0.07107  1.0000
  C   C533      1.0  0.20833  0.85500  0.01711  1.0000
  C   C534      1.0  0.24034  0.85983  0.02350  1.0000
  C   C535      1.0  0.08808  0.96801  0.13092  1.0000
  H   H418      1.0  0.24508  0.86280  0.03874  1.0000
  C   C536      1.0  0.09568  0.94030  0.05505  1.0000
  H   H419      1.0  0.13667  0.97315  0.05469  1.0000
  C   C537      1.0  0.15443  0.56251  0.24518  1.0000
  C   C538      1.0  0.13934  0.58231  0.25886  1.0000
  C   C539      1.0  0.14910  0.58111  0.27817  1.0000
  C   C540      1.0  0.17365  0.55954  0.28402  1.0000
  H   H420      1.0  0.47665  0.67259  0.19336  1.0000
  H   H421      1.0  0.05040  0.65801  0.06339  1.0000
  H   H422      1.0  0.14605  0.56279  0.23035  1.0000
  H   H423      1.0  0.11936  0.59783  0.25452  1.0000
  C   C541      1.0  0.20677  0.52238  0.19310  1.0000
  H   H424      1.0  0.13520  0.90105  0.13758  1.0000
  H   H425      1.0  0.10343  0.92821  0.11249  1.0000
  C   C542      1.0  0.05431  0.68123  0.07033  1.0000
  C   C543      1.0  0.02283  0.98781  0.11577  1.0000
  C   C544      1.0  0.22427  0.70073  0.14250  1.0000
  H   H426      1.0  0.27255  0.73457  0.24310  1.0000
  P   P20       1.0  0.22543  0.78660  0.17240  1.0000
  H   H427      1.0  0.04257  0.54885  0.10132  1.0000
  H   H428      1.0  0.16778  0.75113  0.18520  1.0000
  C   C545      1.0  0.24742  0.97900  0.31936  1.0000
  H   H429      1.0  0.46429  0.65145  0.22610  1.0000
  C   C546      1.0  0.03671  0.68982  0.08694  1.0000
  C   C547      1.0  0.27290  0.87411  0.17655  1.0000
  C   C548      1.0  0.28986  0.75601  0.01676  1.0000
  H   H430      1.0  0.25339  0.92191  0.22053  1.0000
  H   H431      1.0  0.30265  0.72480  0.21258  1.0000
  C   C549      1.0  0.01113  0.62199  0.08790  1.0000
  C   C550      1.0  0.49660  0.61051  0.22354  1.0000
  C   C551      1.0  0.04848  0.74496  0.14950  1.0000
  C   C552      1.0  0.06697  0.76868  0.14000  1.0000
  C   C553      1.0  0.05147  0.79478  0.13116  1.0000
  H   H432      1.0  0.06016  0.52367  0.26868  1.0000
  H   H433      1.0  0.10050  0.74966  0.06508  1.0000
  C   C554      1.0  0.03078  0.56685  0.09235  1.0000
  H   H434      1.0  0.02438  0.96928  0.14512  1.0000
  H   H435      1.0  0.07013  0.76493  0.09446  1.0000
  H   H436      1.0  0.06089  0.67003  0.12326  1.0000
  C   C555      1.0  0.23475  0.76261  0.22950  1.0000
  C   C556      1.0  0.25653  0.99315  0.19563  1.0000
  H   H437      1.0  0.17887  0.96740  0.18662  1.0000
  H   H438      1.0  0.11653  0.53629  0.29956  1.0000
  H   H439      1.0  0.19348  0.62275  0.29464  1.0000
  H   H440      1.0  0.10784  0.97442  0.17856  1.0000
  C   C557      1.0  0.22504  0.72352  0.15746  1.0000
  C   C558      1.0  0.26854  0.75138  0.19507  1.0000
  C   C559      1.0  0.10708  0.96463  0.16407  1.0000
  H   H441      1.0  0.28241  0.96747  0.29682  1.0000
  C   C560      1.0  0.07723  0.70280  0.06246  1.0000
  H   H442      1.0  0.22320  0.71497  0.17219  1.0000
  H   H443      1.0  0.06078  0.72500  0.15653  1.0000
  H   H444      1.0  0.09330  0.76693  0.13950  1.0000
  H   H445      1.0  0.06577  0.81322  0.12379  1.0000
  H   H446      1.0  0.19069  0.52594  0.24015  1.0000
  H   H447      1.0  0.09050  0.81898  0.17494  1.0000
  H   H448      1.0  0.48797  0.53612  0.24709  1.0000
  C   C561      1.0  0.01435  0.74700  0.14987  1.0000
  C   C562      1.0  0.07669  0.97254  0.08901  1.0000
  H   H449      1.0  0.22147  0.78655  0.01763  1.0000
  C   C563      1.0  0.24054  0.51845  0.31297  1.0000
  C   C564      1.0  0.13907  0.83614  0.16840  1.0000
  C   C565      1.0  0.31792  0.77318  0.02216  1.0000
  C   C566      1.0  0.06744  0.93067  0.06484  1.0000
  H   H450      1.0  0.23494  0.98565  0.24538  1.0000
  C   C567      1.0  0.22474  0.64682  0.31487  1.0000
  C   C568      1.0  0.25299  0.82026  0.16798  1.0000
  H   H451      1.0  0.10915  0.76463  0.18580  1.0000
  C   C569      1.0  0.09042  0.50681  0.24531  1.0000
  H   H452      1.0  0.09094  0.69610  0.04971  1.0000
  C   C570      1.0  0.04254  0.72013  0.09564  1.0000
  H   H453      1.0  0.19718  0.92194  0.20713  1.0000
  H   H454      1.0  0.44427  0.84042  0.32810  1.0000
  C   C571      1.0  0.26677  0.96731  0.20719  1.0000
  H   H455      1.0  0.17774  0.50936  0.14554  1.0000
  C   C572      1.0  0.23952  0.76934  0.19478  1.0000
  H   H456      1.0  0.06646  0.53152  0.31882  1.0000
  C   C573      1.0  0.04190  0.66133  0.15161  1.0000
  H   H457      1.0  0.13667  0.59615  0.28867  1.0000
  C   C574      1.0  0.02758  0.59875  0.09902  1.0000
  C   C575      1.0  0.26335  0.74426  0.22964  1.0000
  C   C576      1.0  0.18908  0.54010  0.27007  1.0000
  C   C577      1.0  0.21361  0.94202  0.20410  1.0000
  C   C578      1.0  0.24527  0.94189  0.21156  1.0000
  C   C579      1.0  0.11630  0.81321  0.17490  1.0000
  Fe  Fe40      1.0  0.09690  0.52148  0.15513  1.0000
  H   H458      1.0  0.49082  0.60180  0.23787  1.0000
  C   C580      1.0  0.22696  0.75691  0.15329  1.0000
  C   C581      1.0  0.22642  0.76716  0.13398  1.0000
  C   C582      1.0  0.17231  0.82850  0.16781  1.0000
  C   C583      1.0  0.00923  0.97761  0.13340  1.0000
  H   H459      1.0  0.27069  0.89625  0.18484  1.0000
  C   C584      1.0  0.10505  0.98217  0.07901  1.0000
  C   C585      1.0  0.28028  0.73873  0.21243  1.0000
  P   P21       1.0  0.00584  0.66300  0.09670  1.0000
  H   H460      1.0  0.28628  0.90973  0.30529  1.0000
  C   C586      1.0  0.23620  0.52421  0.18295  1.0000
  H   H461      1.0  0.35632  0.80555  0.01275  1.0000
  S   S76       1.0  0.07514  0.53641  0.22901  1.0000
  H   H462      1.0  0.10348  0.92715  0.04231  1.0000
  C   C587      1.0  0.20327  0.96790  0.19256  1.0000
  H   H463      1.0  0.28215  0.74730  0.18188  1.0000
  C   C588      1.0  0.30089  0.84307  0.15205  1.0000
  C   C589      1.0  0.22616  0.74431  0.11907  1.0000
  C   C590      1.0  0.19310  0.98052  0.12262  1.0000
  C   C591      1.0  0.25291  0.91300  0.32930  1.0000
  H   H464      1.0  0.48962  0.61446  0.31400  1.0000
  C   C592      1.0  0.22294  0.77531  0.21216  1.0000
  H   H465      1.0  0.28236  0.79534  0.14653  1.0000
  H   H466      1.0  0.32639  0.77229  0.03694  1.0000
  C   C593      1.0  0.29792  0.87140  0.16295  1.0000
  H   H467      1.0  0.13088  0.85957  0.16330  1.0000
  C   C594      1.0  0.20747  0.59031  0.31781  1.0000
  H   H468      1.0  0.29151  0.96698  0.21269  1.0000
  C   C595      1.0  0.21471  0.73524  0.01164  1.0000
  C   C596      1.0  0.27010  0.92535  0.31347  1.0000
  H   H469      1.0  0.19333  0.54436  0.19628  1.0000
  H   H470      1.0  0.01968  0.53307  0.06954  1.0000
  C   C597      1.0  0.01751  0.79728  0.13181  1.0000
  H   H471      1.0  0.25422  0.54093  0.31174  1.0000
  C   C598      1.0  0.00854  0.66218  0.12268  1.0000
  C   C599      1.0  0.19929  0.70647  0.01785  1.0000
  C   C600      1.0  0.17885  0.70676  0.03404  1.0000
  C   C601      1.0  0.17367  0.73568  0.04410  1.0000
  C   C602      1.0  0.18904  0.76432  0.03811  1.0000
  C   C603      1.0  0.20959  0.76411  0.02201  1.0000
  H   H472      1.0  0.24550  0.54757  0.17817  1.0000
  C   C604      1.0  0.11746  0.54236  0.31472  1.0000
  H   H473      1.0  0.18935  0.84612  0.16200  1.0000
  H   H474      1.0  0.29075  0.86661  0.01511  1.0000
  C   C605      1.0  0.11441  0.96614  0.06210  1.0000
  C   C606      1.0  0.06540  0.74164  0.08769  1.0000
  H   H475      1.0  0.23140  0.85108  0.18980  1.0000
  C   C607      1.0  0.20721  0.62003  0.30781  1.0000
  C   C608      1.0  0.12237  0.92324  0.14104  1.0000
  C   C609      1.0  0.25054  0.84865  0.17912  1.0000
  C   C610      1.0  0.18305  0.79801  0.17415  1.0000
  H   H476      1.0  0.22466  0.97574  0.09789  1.0000
  H   H477      1.0  0.13746  0.92343  0.17072  1.0000
  H   H478      1.0  0.03700  0.93750  0.08963  1.0000
  H   H479      1.0  0.32032  0.84112  0.14149  1.0000
  C   C611      1.0  0.07870  0.50649  0.26440  1.0000
  H   H480      1.0  0.48522  0.53451  0.28272  1.0000
  H   H481      1.0  0.16714  0.68456  0.03892  1.0000
  H   H482      1.0  0.15789  0.73589  0.05662  1.0000
  H   H483      1.0  0.18505  0.78675  0.04596  1.0000
  Fe  Fe41      1.0  0.36462  0.93761  0.31970  1.0000
  H   H484      1.0  0.20111  0.79001  0.21244  1.0000
  H   H485      1.0  0.31489  0.89142  0.16073  1.0000
  C   C612      1.0  0.26779  0.95826  0.30869  1.0000
  C   C613      1.0  0.27885  0.81738  0.15473  1.0000
  H   H486      1.0  0.48097  0.99272  0.14881  1.0000
  H   H487      1.0  0.22327  0.69355  0.11172  1.0000
  H   H488      1.0  0.06552  0.66302  0.15846  1.0000
  H   H489      1.0  0.22181  0.67506  0.14575  1.0000
  H   H490      1.0  0.03726  0.60490  0.11305  1.0000
  C   C614      1.0  0.22505  0.71112  0.12331  1.0000
  H   H491      1.0  0.22185  0.76721  0.24289  1.0000
  H   H492      1.0  0.20800  0.52320  0.27409  1.0000
  C   C615      1.0  0.50054  0.97745  0.14344  1.0000
  C   C616      1.0  0.48145  0.63877  0.21691  1.0000
  C   C617      1.0  0.20625  0.51841  0.31261  1.0000
  S   S77       1.0  0.34064  0.96839  0.13513  1.0000
  C   C618      1.0  0.08961  0.98079  0.14968  1.0000
  H   H493      1.0  0.22526  0.75233  0.10419  1.0000
  C   C619      1.0  0.01779  0.55796  0.07449  1.0000
  C   C620      1.0  0.18965  0.99351  0.14115  1.0000
  C   C621      1.0  0.48841  0.65069  0.19847  1.0000
  C   C622      1.0  0.03907  0.66541  0.13167  1.0000
  H   H494      1.0  0.22435  0.66974  0.30719  1.0000
  H   H495      1.0  0.15949  0.52336  0.10306  1.0000
  H   H496      1.0  0.16822  0.98731  0.14949  1.0000
  H   H497      1.0  0.46855  0.93782  0.13593  1.0000
  H   H498      1.0  0.22207  0.98308  0.28016  1.0000
  H   H499      1.0  0.05349  0.90989  0.05978  1.0000
  C   C623      1.0  0.11371  0.51007  0.09009  1.0000
  C   C624      1.0  0.33485  0.79182  0.00856  1.0000
  C   C625      1.0  0.08890  0.53943  0.32565  1.0000
  H   H500      1.0  0.00615  0.81822  0.12527  1.0000
  C   C626      1.0  0.14734  0.50758  0.09278  1.0000
  S   S78       1.0  0.05286  0.51301  0.17431  1.0000
  C   C627      1.0  0.01443  0.65420  0.16274  1.0000
  C   C628      1.0  0.22446  0.99402  0.18856  1.0000
  H   H501      1.0  0.01684  0.64995  0.17810  1.0000
  S   S79       1.0  0.39333  0.89448  0.33053  1.0000
  H   H502      1.0  0.50148  0.54574  0.18431  1.0000
  C   C629      1.0  0.50309  0.52329  0.19230  1.0000
  C   C630      1.0  0.47772  0.84012  0.35194  1.0000
  Fe  Fe42      1.0  0.35317  0.62440  0.40716  1.0000
  S   S80       1.0  0.32683  0.62446  0.37898  1.0000
  S   S81       1.0  0.40867  0.62139  0.41005  1.0000
  Fe  Fe43      1.0  0.29011  0.64005  0.42995  1.0000
  S   S82       1.0  0.25956  0.64162  0.40280  1.0000
  S   S83       1.0  0.27119  0.65667  0.45950  1.0000
  Fe  Fe44      1.0  0.28718  0.59661  0.39449  1.0000
  S   S84       1.0  0.26856  0.55238  0.37800  1.0000
  Fe  Fe45      1.0  0.30167  0.66950  0.38957  1.0000
  S   S85       1.0  0.29637  0.71041  0.36753  1.0000
  S   S86       1.0  0.31545  0.59327  0.42237  1.0000
  S   S87       1.0  0.33024  0.67113  0.41702  1.0000
  H   H503      1.0  0.07198  0.76221  0.59715  1.0000
  Fe  Fe46      1.0  0.36236  0.89663  0.35729  1.0000
  S   S88       1.0  0.39634  0.93154  0.37228  1.0000
  S   S89       1.0  0.34832  0.85596  0.37831  1.0000
  Fe  Fe47      1.0  0.36659  0.97112  0.35878  1.0000
  Fe  Fe48      1.0  0.42556  0.93141  0.34508  1.0000
  C   C631      1.0  0.17219  0.98429  0.62752  1.0000
  S   S90       1.0  0.33051  0.93661  0.34551  1.0000
  H   H504      1.0  0.21545  0.98183  0.34428  1.0000
  C   C632      1.0  0.46093  0.89573  0.44424  1.0000
  C   C633      1.0  0.40267  0.73482  0.41392  1.0000
  Fe  Fe49      1.0  0.11585  0.92435  0.64860  1.0000
  C   C634      1.0  0.19983  0.98918  0.61579  1.0000
  H   H505      1.0  0.01910  0.70498  0.57034  1.0000
  S   S91       1.0  0.08529  0.88344  0.63620  1.0000
  H   H506      1.0  0.49736  0.85117  0.34370  1.0000
  Fe  Fe50      1.0  0.18283  0.58856  0.60369  1.0000
  S   S92       1.0  0.15731  0.56508  0.57863  1.0000
  S   S93       1.0  0.20308  0.55823  0.62853  1.0000
  Fe  Fe51      1.0  0.16394  0.65701  0.59042  1.0000
  S   S94       1.0  0.13779  0.63758  0.56422  1.0000
  S   S95       1.0  0.16433  0.71253  0.59307  1.0000
  Fe  Fe52      1.0  0.11657  0.60016  0.58446  1.0000
  S   S96       1.0  0.06247  0.58692  0.58124  1.0000
  Fe  Fe53      1.0  0.18080  0.60442  0.56037  1.0000
  S   S97       1.0  0.20156  0.58658  0.53133  1.0000
  S   S98       1.0  0.14028  0.62141  0.61080  1.0000
  S   S99       1.0  0.20877  0.62606  0.58536  1.0000
  C   C635      1.0  0.22245  0.50743  0.36758  1.0000
  C   C636      1.0  0.23754  0.53224  0.62746  1.0000
  C   C637      1.0  0.25857  0.53200  0.61155  1.0000
  H   H507      1.0  0.30888  0.57228  0.49118  1.0000
  C   C638      1.0  0.36399  0.61676  0.46552  1.0000
  H   H508      1.0  0.22131  0.87853  0.64374  1.0000
  Fe  Fe54      1.0  0.10258  0.85501  0.66174  1.0000
  H   H509      1.0  0.25363  0.54753  0.59932  1.0000
  C   C639      1.0  0.16803  0.60764  0.45519  1.0000
  C   C640      1.0  0.13488  0.97943  0.55963  1.0000
  H   H510      1.0  0.24395  0.97951  0.65085  1.0000
  C   C641      1.0  0.14898  0.73632  0.61246  1.0000
  C   C642      1.0  0.14510  0.77000  0.60984  1.0000
  C   C643      1.0  0.13372  0.78994  0.62496  1.0000
  C   C644      1.0  0.12648  0.77641  0.64299  1.0000
  H   H511      1.0  0.05421  0.69188  0.49950  1.0000
  C   C645      1.0  0.14129  0.72272  0.63042  1.0000
  H   H512      1.0  0.15108  0.78077  0.59603  1.0000
  H   H513      1.0  0.13085  0.81579  0.62273  1.0000
  S   S100      1.0  0.39905  0.97436  0.33246  1.0000
  H   H514      1.0  0.14441  0.69692  0.63271  1.0000
  H   H515      1.0  0.39777  0.81929  0.34751  1.0000
  C   C646      1.0  0.02821  0.57081  0.63583  1.0000
  C   C647      1.0  0.04879  0.57903  0.62024  1.0000
  C   C648      1.0  0.03718  0.57721  0.60132  1.0000
  H   H516      1.0  0.03762  0.57195  0.65038  1.0000
  H   H517      1.0  0.45460  0.65970  0.37342  1.0000
  H   H518      1.0  0.45581  0.99603  0.61207  1.0000
  H   H519      1.0  0.07376  0.58642  0.62286  1.0000
  C   C649      1.0  0.23685  0.95661  0.65729  1.0000
  C   C650      1.0  0.25282  0.63623  0.47947  1.0000
  C   C651      1.0  0.24402  0.65451  0.49583  1.0000
  C   C652      1.0  0.22854  0.63979  0.51185  1.0000
  C   C653      1.0  0.22181  0.60643  0.51178  1.0000
  C   C654      1.0  0.23098  0.58802  0.49551  1.0000
  C   C655      1.0  0.24633  0.60278  0.47943  1.0000
  H   H520      1.0  0.24893  0.68037  0.49606  1.0000
  H   H521      1.0  0.22173  0.65428  0.52423  1.0000
  H   H522      1.0  0.22588  0.56221  0.49528  1.0000
  H   H523      1.0  0.25297  0.58839  0.46699  1.0000
  H   H524      1.0  0.18720  0.61544  0.44536  1.0000
  C   C656      1.0  0.42160  0.82230  0.35406  1.0000
  C   C657      1.0  0.40838  0.68208  0.36872  1.0000
  C   C658      1.0  0.22935  0.53433  0.37941  1.0000
  C   C659      1.0  0.20524  0.54573  0.39196  1.0000
  H   H525      1.0  0.34653  0.54566  0.62905  1.0000
  H   H526      1.0  0.44632  0.56569  0.46523  1.0000
  C   C660      1.0  0.33809  0.60978  0.47800  1.0000
  H   H527      1.0  0.21025  0.56651  0.40107  1.0000
  C   C661      1.0  0.00467  0.56728  0.59823  1.0000
  C   C662      1.0  0.33550  0.81513  0.37453  1.0000
  C   C663      1.0  0.33546  0.79357  0.39029  1.0000
  C   C664      1.0  0.32425  0.76129  0.38829  1.0000
  C   C665      1.0  0.31240  0.75035  0.37052  1.0000
  C   C666      1.0  0.31300  0.77173  0.35466  1.0000
  C   C667      1.0  0.32471  0.80389  0.35660  1.0000
  H   H528      1.0  0.34389  0.80196  0.40421  1.0000
  H   H529      1.0  0.32403  0.74514  0.40059  1.0000
  H   H530      1.0  0.30403  0.76344  0.34084  1.0000
  H   H531      1.0  0.32461  0.82019  0.34435  1.0000
  C   C668      1.0  0.48173  0.57531  0.36750  1.0000
  C   C669      1.0  0.33908  0.97862  0.50992  1.0000
  C   C670      1.0  0.46982  0.60698  0.39627  1.0000
  C   C671      1.0  0.43605  0.60336  0.39334  1.0000
  C   C672      1.0  0.42518  0.58585  0.37729  1.0000
  C   C673      1.0  0.44793  0.57166  0.36456  1.0000
  H   H532      1.0  0.43071  0.93845  0.44299  1.0000
  H   H533      1.0  0.47838  0.62015  0.40875  1.0000
  H   H534      1.0  0.39928  0.58294  0.37478  1.0000
  H   H535      1.0  0.43928  0.55768  0.35237  1.0000
  C   C674      1.0  0.32481  0.55818  0.65636  1.0000
  S   S101      1.0  0.15213  0.94607  0.62703  1.0000
  S   S102      1.0  0.11295  0.80047  0.66272  1.0000
  C   C675      1.0  0.15289  0.95729  0.57069  1.0000
  C   C676      1.0  0.27872  0.92012  0.42301  1.0000
  C   C677      1.0  0.27531  0.94582  0.43606  1.0000
  H   H536      1.0  0.07801  0.59435  0.53896  1.0000
  C   C678      1.0  0.44767  0.83430  0.34316  1.0000
  C   C679      1.0  0.23053  0.96643  0.33539  1.0000
  C   C680      1.0  0.47738  0.53274  0.41613  1.0000
  H   H537      1.0  0.12040  0.51607  0.43082  1.0000
  H   H538      1.0  0.47463  0.90406  0.45664  1.0000
  C   C681      1.0  0.32169  0.94961  0.40660  1.0000
  H   H539      1.0  0.15160  0.91325  0.58752  1.0000
  C   C682      1.0  0.42996  0.78722  0.41697  1.0000
  H   H540      1.0  0.39468  0.66139  0.37417  1.0000
  C   C683      1.0  0.16819  0.50236  0.38145  1.0000
  H   H541      1.0  0.10511  0.68211  0.60238  1.0000
  C   C684      1.0  0.37643  0.53037  0.65281  1.0000
  H   H542      1.0  0.07447  0.54306  0.41486  1.0000
  H   H543      1.0  0.07865  0.51237  0.48037  1.0000
  C   C685      1.0  0.49257  0.59345  0.38331  1.0000
  C   C686      1.0  0.23328  0.93357  0.34031  1.0000
  C   C687      1.0  0.24315  0.65725  0.66250  1.0000
  H   H544      1.0  0.20850  0.96955  0.60681  1.0000
  H   H545      1.0  0.41292  0.81690  0.44079  1.0000
  C   C688      1.0  0.20567  0.51521  0.44456  1.0000
  H   H546      1.0  0.26331  0.89873  0.42422  1.0000
  H   H547      1.0  0.25711  0.94397  0.44736  1.0000
  H   H548      1.0  0.17146  0.51955  0.53514  1.0000
  H   H549      1.0  0.06982  0.64080  0.48326  1.0000
  H   H550      1.0  0.47516  0.64635  0.34250  1.0000
  C   C689      1.0  0.02082  0.81869  0.63004  1.0000
  H   H551      1.0  0.44024  0.75184  0.39474  1.0000
  H   H552      1.0  0.30349  0.56844  0.64956  1.0000
  H   H553      1.0  0.40477  0.80765  0.38197  1.0000
  H   H554      1.0  0.34626  0.53760  0.38352  1.0000
  C   C690      1.0  0.34587  0.52400  0.39692  1.0000
  H   H555      1.0  0.06249  0.64490  0.55465  1.0000
  C   C691      1.0  0.08627  0.94626  0.56473  1.0000
  Fe  Fe55      1.0  0.04516  0.90238  0.65528  1.0000
  C   C692      1.0  0.49296  0.92151  0.38272  1.0000
  C   C693      1.0  0.11885  0.55412  0.35438  1.0000
  C   C694      1.0  0.31059  0.99498  0.47442  1.0000
  C   C695      1.0  0.45126  0.85526  0.41931  1.0000
  C   C696      1.0  0.37349  0.55899  0.46100  1.0000
  H   H556      1.0  0.30247  0.51192  0.59920  1.0000
  H   H557      1.0  0.40124  0.52193  0.49078  1.0000
  C   C697      1.0  0.06327  0.64391  0.53902  1.0000
  H   H558      1.0  0.34983  0.97239  0.52370  1.0000
  C   C698      1.0  0.17486  0.52958  0.39310  1.0000
  H   H559      1.0  0.23938  0.93129  0.63013  1.0000
  C   C699      1.0  0.02266  0.78545  0.63438  1.0000
  C   C700      1.0  0.24267  0.64418  0.33193  1.0000
  H   H560      1.0  0.16976  0.56382  0.35079  1.0000
  H   H561      1.0  0.25710  0.61260  0.35512  1.0000
  H   H562      1.0  0.24836  0.51706  0.42633  1.0000
  H   H563      1.0  0.48741  0.75326  0.42120  1.0000
  C   C701      1.0  0.16586  0.62163  0.47348  1.0000
  H   H564      1.0  0.43093  0.50919  0.41354  1.0000
  C   C702      1.0  0.45596  0.82118  0.38261  1.0000
  C   C703      1.0  0.02592  0.66661  0.61374  1.0000
  H   H565      1.0  0.33917  0.95141  0.39492  1.0000
  C   C704      1.0  0.05496  0.81095  0.60187  1.0000
  H   H566      1.0  0.06411  0.74228  0.65987  1.0000
  H   H567      1.0  0.41225  0.86699  0.39940  1.0000
  H   H568      1.0  0.00493  0.64225  0.56526  1.0000
  C   C705      1.0  0.07405  0.61325  0.50974  1.0000
  C   C706      1.0  0.05880  0.67027  0.50798  1.0000
  C   C707      1.0  0.12314  0.50827  0.54559  1.0000
  C   C708      1.0  0.10130  0.97395  0.55694  1.0000
  C   C709      1.0  0.41052  0.79408  0.43317  1.0000
  H   H569      1.0  0.48910  0.80742  0.52562  1.0000
  H   H570      1.0  0.06777  0.54159  0.35409  1.0000
  C   C710      1.0  0.06411  0.69563  0.58497  1.0000
  H   H571      1.0  0.39659  0.75742  0.35022  1.0000
  C   C711      1.0  0.13776  0.92972  0.57850  1.0000
  C   C712      1.0  0.05706  0.77786  0.60608  1.0000
  H   H572      1.0  0.17838  0.96169  0.57385  1.0000
  H   H573      1.0  0.22835  0.51198  0.65565  1.0000
  H   H574      1.0  0.11966  0.55741  0.36987  1.0000
  C   C713      1.0  0.38344  0.74190  0.43003  1.0000
  H   H575      1.0  0.07926  0.70650  0.57384  1.0000
  H   H576      1.0  0.06802  0.82093  0.58962  1.0000
  H   H577      1.0  0.39468  0.51932  0.64360  1.0000
  H   H578      1.0  0.03430  0.85685  0.61033  1.0000
  H   H579      1.0  0.25614  0.66495  0.33752  1.0000
  C   C714      1.0  0.10103  0.54727  0.51512  1.0000
  H   H580      1.0  0.12574  0.98340  0.51821  1.0000
  H   H581      1.0  0.36987  0.64179  0.46203  1.0000
  C   C715      1.0  0.05661  0.67157  0.52808  1.0000
  H   H582      1.0  0.05274  0.53680  0.52636  1.0000
  C   C716      1.0  0.31399  0.96224  0.47979  1.0000
  C   C717      1.0  0.13042  0.74274  0.64562  1.0000
  C   C718      1.0  0.50196  0.68989  0.39946  1.0000
  C   C719      1.0  0.08971  0.51306  0.54299  1.0000
  C   C720      1.0  0.39200  0.70950  0.36211  1.0000
  C   C721      1.0  0.44383  0.73548  0.35478  1.0000
  C   C722      1.0  0.45464  0.55660  0.45142  1.0000
  H   H583      1.0  0.37200  0.77706  0.45193  1.0000
  C   C723      1.0  0.22411  0.89949  0.65309  1.0000
  H   H584      1.0  0.18313  0.64031  0.47772  1.0000
  H   H585      1.0  0.46764  0.92779  0.38487  1.0000
  H   H586      1.0  0.25554  0.88768  0.33332  1.0000
  C   C724      1.0  0.42569  0.81572  0.37368  1.0000
  H   H587      1.0  0.07157  0.65602  0.62769  1.0000
  C   C725      1.0  0.03015  0.69483  0.58315  1.0000
  C   C726      1.0  0.13450  0.54175  0.51758  1.0000
  H   H588      1.0  0.48596  0.52406  0.40224  1.0000
  H   H589      1.0  0.39938  0.71188  0.40646  1.0000
  C   C727      1.0  0.29520  0.97368  0.43451  1.0000
  C   C728      1.0  0.43625  0.91512  0.43656  1.0000
  C   C729      1.0  0.11888  0.58759  0.48100  1.0000
  C   C730      1.0  0.14185  0.61129  0.48647  1.0000
  C   C731      1.0  0.14563  0.58368  0.44969  1.0000
  C   C732      1.0  0.12095  0.57384  0.46247  1.0000
  H   H590      1.0  0.33360  0.99659  0.41757  1.0000
  P   P22       1.0  0.08662  0.57636  0.49765  1.0000
  H   H591      1.0  0.01207  0.65475  0.62496  1.0000
  C   C733      1.0  0.34930  0.54533  0.64459  1.0000
  C   C734      1.0  0.40964  0.73621  0.35522  1.0000
  C   C735      1.0  0.44241  0.68125  0.36830  1.0000
  H   H592      1.0  0.06032  0.94228  0.56279  1.0000
  C   C736      1.0  0.42575  0.75745  0.40735  1.0000
  C   C737      1.0  0.34681  0.55219  0.47315  1.0000
  H   H593      1.0  0.47929  0.70321  0.39990  1.0000
  H   H594      1.0  0.18972  0.99618  0.51705  1.0000
  H   H595      1.0  0.15240  0.55347  0.50838  1.0000
  H   H596      1.0  0.05034  0.69412  0.53521  1.0000
  H   H597      1.0  0.14137  0.62182  0.50081  1.0000
  H   H598      1.0  0.14737  0.57297  0.43544  1.0000
  H   H599      1.0  0.10360  0.55575  0.45773  1.0000
  C   C738      1.0  0.06762  0.64129  0.49883  1.0000
  C   C739      1.0  0.30195  0.92201  0.40828  1.0000
  H   H600      1.0  0.33914  0.52735  0.47577  1.0000
  C   C740      1.0  0.07864  0.53222  0.52770  1.0000
  H   H601      1.0  0.22054  0.92417  0.35285  1.0000
  C   C741      1.0  0.23569  0.62543  0.65702  1.0000
  C   C742      1.0  0.04038  0.76497  0.62197  1.0000
  C   C743      1.0  0.46822  0.86575  0.43579  1.0000
  C   C744      1.0  0.10449  0.92421  0.57555  1.0000
  C   C745      1.0  0.36680  0.51484  0.42922  1.0000
  C   C746      1.0  0.08962  0.54514  0.34550  1.0000
  H   H602      1.0  0.04159  0.73907  0.62441  1.0000
  C   C747      1.0  0.43399  0.53735  0.43995  1.0000
  C   C748      1.0  0.44589  0.52486  0.42244  1.0000
  H   H603      1.0  0.45681  0.75662  0.34955  1.0000
  C   C749      1.0  0.32823  0.95415  0.49747  1.0000
  H   H604      1.0  0.38488  0.55170  0.40951  1.0000
  C   C750      1.0  0.05317  0.55764  0.48475  1.0000
  H   H605      1.0  0.29156  0.98199  0.36993  1.0000
  H   H606      1.0  0.32415  0.62941  0.48436  1.0000
  H   H607      1.0  0.02048  0.59881  0.48686  1.0000
  C   C751      1.0  0.24448  0.51199  0.64329  1.0000
  C   C752      1.0  0.23435  0.92923  0.64543  1.0000
  H   H608      1.0  0.15659  0.53801  0.40314  1.0000
  H   H609      1.0  0.30456  0.90221  0.39806  1.0000
  C   C753      1.0  0.07234  0.51774  0.41898  1.0000
  C   C754      1.0  0.32947  0.57752  0.48181  1.0000
  C   C755      1.0  0.31841  0.97534  0.41962  1.0000
  C   C756      1.0  0.42620  0.87471  0.41186  1.0000
  H   H610      1.0  0.36560  0.70997  0.36233  1.0000
  C   C757      1.0  0.07886  0.68189  0.60110  1.0000
  H   H611      1.0  0.50171  0.57989  0.45377  1.0000
  C   C758      1.0  0.05986  0.66734  0.61543  1.0000
  H   H612      1.0  0.09275  0.90322  0.58207  1.0000
  H   H613      1.0  0.22651  0.56535  0.34286  1.0000
  C   C759      1.0  0.24319  0.61470  0.34188  1.0000
  C   C760      1.0  0.07206  0.61492  0.52995  1.0000
  H   H614      1.0  0.21796  0.62093  0.64571  1.0000
  P   P23       1.0  0.39382  0.52621  0.44861  1.0000
  C   C761      1.0  0.46053  0.70775  0.36118  1.0000
  H   H615      1.0  0.30571  0.94287  0.47047  1.0000
  C   C762      1.0  0.05632  0.52570  0.47789  1.0000
  H   H616      1.0  0.39934  0.91929  0.41462  1.0000
  C   C763      1.0  0.38161  0.59148  0.45703  1.0000
  H   H617      1.0  0.40103  0.59741  0.44707  1.0000
  C   C764      1.0  0.38729  0.77152  0.43961  1.0000
  C   C765      1.0  0.41871  0.90445  0.42050  1.0000
  C   C766      1.0  0.03631  0.83121  0.61364  1.0000
  C   C767      1.0  0.48194  0.83361  0.37155  1.0000
  C   C768      1.0  0.14735  0.55764  0.34343  1.0000
  C   C769      1.0  0.22573  0.58793  0.33488  1.0000
  C   C770      1.0  0.02392  0.57442  0.48149  1.0000
  C   C771      1.0  0.01068  0.68041  0.59757  1.0000
  P   P24       1.0  0.45992  0.81632  0.40842  1.0000
  H   H618      1.0  0.36532  0.72458  0.43503  1.0000
  S   S103      1.0  0.48060  0.92426  0.34336  1.0000
  H   H619      1.0  0.48715  0.85096  0.44210  1.0000
  C   C772      1.0  0.48615  0.56444  0.44506  1.0000
  H   H620      1.0  0.16073  0.50823  0.45993  1.0000
  C   C773      1.0  0.14546  0.52229  0.53276  1.0000
  C   C774      1.0  0.04671  0.72249  0.66151  1.0000
  H   H621      1.0  0.23461  0.99679  0.37807  1.0000
  C   C775      1.0  0.36777  0.53184  0.41166  1.0000
  C   C776      1.0  0.28626  0.51180  0.61154  1.0000
  H   H622      1.0  0.33070  0.92885  0.50155  1.0000
  H   H623      1.0  0.21196  0.53730  0.45228  1.0000
  C   C777      1.0  0.49745  0.55266  0.42737  1.0000
  H   H624      1.0  0.00700  0.83491  0.63913  1.0000
  C   C778      1.0  0.03096  0.51106  0.46752  1.0000
  C   C779      1.0  0.20690  0.00041  0.52859  1.0000
  H   H625      1.0  0.07247  0.50312  0.55333  1.0000
  H   H626      1.0  0.28882  0.99950  0.53653  1.0000
  C   C780      1.0  0.22633  0.50369  0.43007  1.0000
  C   C781      1.0  0.09841  0.50230  0.42811  1.0000
  H   H627      1.0  0.08655  0.99145  0.54927  1.0000
  H   H628      1.0  0.24840  0.98878  0.51072  1.0000
  C   C782      1.0  0.24019  0.99613  0.52490  1.0000
  H   H629      1.0  0.12541  0.73214  0.65958  1.0000
  H   H630      1.0  0.23110  0.67743  0.65545  1.0000
  C   C783      1.0  0.49633  0.65359  0.33424  1.0000
  C   C784      1.0  0.01309  0.72833  0.65973  1.0000
  H   H631      1.0  0.02424  0.51195  0.40689  1.0000
  H   H632      1.0  0.24522  0.57482  0.66138  1.0000
  H   H633      1.0  0.50005  0.67867  0.42977  1.0000
  C   C785      1.0  0.50074  0.80313  0.41456  1.0000
  Fe  Fe56      1.0  0.30195  0.79239  0.91330  1.0000
  S   S104      1.0  0.33621  0.81141  0.93578  1.0000
  S   S105      1.0  0.29784  0.73698  0.91495  1.0000
  Fe  Fe57      1.0  0.28746  0.86133  0.89918  1.0000
  S   S106      1.0  0.32148  0.88405  0.92073  1.0000
  S   S107      1.0  0.26567  0.89473  0.87622  1.0000
  Fe  Fe58      1.0  0.35627  0.84429  0.91276  1.0000
  S   S108      1.0  0.41197  0.84547  0.91213  1.0000
  Fe  Fe59      1.0  0.29874  0.84944  0.94212  1.0000
  S   S109      1.0  0.29355  0.86473  0.97374  1.0000
  S   S110      1.0  0.32398  0.82315  0.88978  1.0000
  S   S111      1.0  0.26247  0.82871  0.92101  1.0000
  C   C786      1.0  0.29211  0.57820  0.73184  1.0000
  Fe  Fe60      1.0  0.41425  0.55018  0.84323  1.0000
  S   S112      1.0  0.38526  0.58014  0.82244  1.0000
  S   S113      1.0  0.46893  0.56006  0.84337  1.0000
  S   S114      1.0  0.32033  0.54110  0.83655  1.0000
  Fe  Fe61      1.0  0.35942  0.53423  0.81404  1.0000
  Fe  Fe62      1.0  0.34852  0.58550  0.84619  1.0000
  S   S115      1.0  0.32695  0.63657  0.84729  1.0000
  S   S116      1.0  0.37921  0.55844  0.86764  1.0000
  C   C787      1.0  0.22270  0.75458  0.97052  1.0000
  H   H634      1.0  0.47317  0.84204  0.84876  1.0000
  C   C788      1.0  0.03619  0.66531  0.66721  1.0000
  H   H635      1.0  0.26937  0.60056  0.92391  1.0000
  S   S117      1.0  0.06110  0.87171  0.68015  1.0000
  C   C789      1.0  0.15426  0.99208  0.97589  1.0000
  Fe  Fe63      1.0  0.09192  0.91378  0.68994  1.0000
  S   S118      1.0  0.08673  0.92127  0.72274  1.0000
  H   H636      1.0  0.36206  0.77733  0.86428  1.0000
  C   C790      1.0  0.44411  0.78039  0.87172  1.0000
  P   P25       1.0  0.29469  0.57070  0.69178  1.0000
  C   C791      1.0  0.09804  0.95145  0.73998  1.0000
  C   C792      1.0  0.08567  0.94911  0.75891  1.0000
  C   C793      1.0  0.40762  0.57826  0.92766  1.0000
  H   H637      1.0  0.21881  0.51586  0.83018  1.0000
  C   C794      1.0  0.39858  0.77159  0.84214  1.0000
  C   C795      1.0  0.30360  0.97022  0.89985  1.0000
  C   C796      1.0  0.31060  0.58294  0.71498  1.0000
  H   H638      1.0  0.18212  0.66422  0.89224  1.0000
  C   C797      1.0  0.50151  0.56223  0.89897  1.0000
  C   C798      1.0  0.22875  0.85250  0.98379  1.0000
  C   C799      1.0  0.22925  0.95439  0.67701  1.0000
  H   H639      1.0  0.22402  0.84999  0.96852  1.0000
  H   H640      1.0  0.34624  0.60671  0.76504  1.0000
  C   C800      1.0  0.23005  0.91879  0.87851  1.0000
  C   C801      1.0  0.20865  0.91534  0.89409  1.0000
  C   C802      1.0  0.18024  0.93448  0.89514  1.0000
  C   C803      1.0  0.17274  0.95693  0.88052  1.0000
  C   C804      1.0  0.19414  0.96030  0.86489  1.0000
  C   C805      1.0  0.22274  0.94149  0.86400  1.0000
  H   H641      1.0  0.21379  0.89760  0.90518  1.0000
  H   H642      1.0  0.16373  0.93160  0.90722  1.0000
  C   C806      1.0  0.34569  0.50376  0.74610  1.0000
  H   H643      1.0  0.23921  0.94439  0.85194  1.0000
  C   C807      1.0  0.43777  0.86768  0.89624  1.0000
  C   C808      1.0  0.42552  0.88919  0.88243  1.0000
  C   C809      1.0  0.44717  0.90698  0.87052  1.0000
  C   C810      1.0  0.48118  0.90331  0.87222  1.0000
  H   H644      1.0  0.48693  0.66180  0.82416  1.0000
  C   C811      1.0  0.47174  0.86403  0.89791  1.0000
  H   H645      1.0  0.39944  0.89230  0.88104  1.0000
  H   H646      1.0  0.43754  0.92368  0.85995  1.0000
  H   H647      1.0  0.26819  0.56704  0.73123  1.0000
  H   H648      1.0  0.48149  0.84759  0.90860  1.0000
  C   C812      1.0  0.30977  0.71018  0.89620  1.0000
  C   C813      1.0  0.30971  0.71997  0.87690  1.0000
  C   C814      1.0  0.31561  0.69714  0.86219  1.0000
  C   C815      1.0  0.32231  0.66447  0.86658  1.0000
  C   C816      1.0  0.32343  0.65485  0.88591  1.0000
  C   C817      1.0  0.31713  0.67764  0.90065  1.0000
  H   H649      1.0  0.30389  0.74484  0.87327  1.0000
  H   H650      1.0  0.31449  0.70473  0.84727  1.0000
  H   H651      1.0  0.32825  0.62974  0.88945  1.0000
  H   H652      1.0  0.31755  0.66993  0.91554  1.0000
  C   C818      1.0  0.48105  0.55832  0.88280  1.0000
  H   H653      1.0  0.17811  0.84755  0.99207  1.0000
  S   S119      1.0  0.39124  0.50336  0.83302  1.0000
  H   H654      1.0  0.20742  0.87417  0.67839  1.0000
  C   C819      1.0  0.20739  0.93295  0.80670  1.0000
  C   C820      1.0  0.24116  0.93122  0.80990  1.0000
  P   P26       1.0  0.18411  0.89680  0.80127  1.0000
  C   C821      1.0  0.19721  0.86160  0.81471  1.0000
  C   C822      1.0  0.14259  0.90283  0.80910  1.0000
  C   C823      1.0  0.13676  0.91545  0.82759  1.0000
  C   C824      1.0  0.10485  0.92002  0.83413  1.0000
  C   C825      1.0  0.07850  0.91203  0.82225  1.0000
  C   C826      1.0  0.08409  0.89877  0.80398  1.0000
  C   C827      1.0  0.11602  0.89383  0.79747  1.0000
  C   C828      1.0  0.18897  0.83032  0.80814  1.0000
  C   C829      1.0  0.19838  0.80285  0.81861  1.0000
  C   C830      1.0  0.21549  0.80644  0.83590  1.0000
  C   C831      1.0  0.22279  0.83749  0.84285  1.0000
  C   C832      1.0  0.21343  0.86499  0.83242  1.0000
  C   C833      1.0  0.18823  0.89075  0.77556  1.0000
  C   C834      1.0  0.21103  0.86846  0.76828  1.0000
  C   C835      1.0  0.21376  0.86333  0.74840  1.0000
  C   C836      1.0  0.19423  0.88084  0.73564  1.0000
  C   C837      1.0  0.17271  0.90420  0.74272  1.0000
  C   C838      1.0  0.16995  0.90946  0.76259  1.0000
  H   H655      1.0  0.16661  0.96566  0.80249  1.0000
  H   H656      1.0  0.38009  0.89335  0.96593  1.0000
  H   H657      1.0  0.49851  0.99636  0.73434  1.0000
  C   C839      1.0  0.09506  0.97152  0.77333  1.0000
  H   H658      1.0  0.25346  0.90799  0.81000  1.0000
  H   H659      1.0  0.15687  0.92188  0.83699  1.0000
  H   H660      1.0  0.10063  0.93014  0.84837  1.0000
  H   H661      1.0  0.05377  0.91621  0.82720  1.0000
  C   C840      1.0  0.22822  0.53536  0.83912  1.0000
  H   H662      1.0  0.11971  0.88312  0.78339  1.0000
  H   H663      1.0  0.17510  0.82715  0.79498  1.0000
  H   H664      1.0  0.19220  0.77878  0.81339  1.0000
  H   H665      1.0  0.22279  0.78520  0.84405  1.0000
  H   H666      1.0  0.23554  0.84033  0.85644  1.0000
  H   H667      1.0  0.21863  0.88873  0.83836  1.0000
  H   H668      1.0  0.22663  0.85488  0.77790  1.0000
  H   H669      1.0  0.23075  0.84552  0.74286  1.0000
  H   H670      1.0  0.19563  0.87627  0.72027  1.0000
  H   H671      1.0  0.15780  0.91793  0.73276  1.0000
  H   H672      1.0  0.15330  0.92788  0.76779  1.0000
  C   C841      1.0  0.44616  0.64311  0.86311  1.0000
  C   C842      1.0  0.23936  0.55772  0.87097  1.0000
  C   C843      1.0  0.34125  0.59828  0.71627  1.0000
  C   C844      1.0  0.21627  0.89709  0.67264  1.0000
  H   H673      1.0  0.30370  0.55051  0.88545  1.0000
  H   H674      1.0  0.18723  0.78195  0.98710  1.0000
  H   H675      1.0  0.35678  0.53797  0.70014  1.0000
  H   H676      1.0  0.20547  0.68443  0.97118  1.0000
  C   C845      1.0  0.38793  0.77667  0.86105  1.0000
  C   C846      1.0  0.30532  0.99394  0.91437  1.0000
  C   C847      1.0  0.02506  0.78730  0.69007  1.0000
  C   C848      1.0  0.26654  0.53715  0.69516  1.0000
  H   H677      1.0  0.23308  0.99621  0.90016  1.0000
  H   H678      1.0  0.42309  0.89888  0.94085  1.0000
  C   C849      1.0  0.49107  0.71165  0.83359  1.0000
  C   C850      1.0  0.29555  0.77630  0.98410  1.0000
  C   C851      1.0  0.35097  0.93244  0.95472  1.0000
  H   H679      1.0  0.22825  0.75690  0.92144  1.0000
  C   C852      1.0  0.25356  0.58518  0.86216  1.0000
  C   C853      1.0  0.21893  0.97992  0.75074  1.0000
  H   H680      1.0  0.24352  0.52805  0.93498  1.0000
  H   H681      1.0  0.08541  0.96929  0.78781  1.0000
  H   H682      1.0  0.21934  0.62827  0.96177  1.0000
  C   C854      1.0  0.21635  0.99088  0.73171  1.0000
  H   H683      1.0  0.45364  0.57255  0.94225  1.0000
  C   C855      1.0  0.21816  0.92455  0.68448  1.0000
  C   C856      1.0  0.49330  0.88182  0.88603  1.0000
  H   H684      1.0  0.27208  0.68766  0.68111  1.0000
  H   H685      1.0  0.30179  0.69640  0.99540  1.0000
  C   C857      1.0  0.22235  0.92918  0.96537  1.0000
  C   C858      1.0  0.20276  0.85125  0.99719  1.0000
  C   C859      1.0  0.23593  0.97738  0.71712  1.0000
  C   C860      1.0  0.19240  0.96352  0.80574  1.0000
  C   C861      1.0  0.44650  0.76122  0.92259  1.0000
  S   S120      1.0  0.13682  0.98057  0.88262  1.0000
  H   H686      1.0  0.33233  0.92874  0.96555  1.0000
  H   H687      1.0  0.27766  0.92276  0.74458  1.0000
  H   H688      1.0  0.35554  0.60303  0.70340  1.0000
  H   H689      1.0  0.16173  0.80715  0.95887  1.0000
  H   H690      1.0  0.43995  0.76700  0.82328  1.0000
  C   C862      1.0  0.25411  0.58805  0.84206  1.0000
  H   H691      1.0  0.29769  0.96050  0.86958  1.0000
  H   H692      1.0  0.26400  0.60467  0.87071  1.0000
  C   C863      1.0  0.21061  0.99185  0.80879  1.0000
  P   P27       1.0  0.49786  0.77585  0.84686  1.0000
  C   C864      1.0  0.18166  0.79026  0.95687  1.0000
  C   C865      1.0  0.22947  0.67500  0.97449  1.0000
  C   C866      1.0  0.20097  0.52955  0.90295  1.0000
  C   C867      1.0  0.32382  0.79312  0.98954  1.0000
  H   H693      1.0  0.22400  0.56758  0.69899  1.0000
  H   H694      1.0  0.30545  0.94468  0.90335  1.0000
  H   H695      1.0  0.04435  0.80136  0.71773  1.0000
  H   H696      1.0  0.27285  0.52005  0.79549  1.0000
  H   H697      1.0  0.06873  0.92975  0.76244  1.0000
  C   C868      1.0  0.11721  0.99649  0.76901  1.0000
  H   H698      1.0  0.06366  0.89254  0.79477  1.0000
  C   C869      1.0  0.26074  0.94197  0.74099  1.0000
  H   H699      1.0  0.28721  0.77836  0.96936  1.0000
  C   C870      1.0  0.45500  0.77443  0.85285  1.0000
  C   C871      1.0  0.24722  0.94080  0.97728  1.0000
  C   C872      1.0  0.30078  0.54169  0.90009  1.0000
  H   H700      1.0  0.49881  0.67657  0.93196  1.0000
  C   C873      1.0  0.37824  0.91216  0.95504  1.0000
  C   C874      1.0  0.25156  0.94923  0.93732  1.0000
  H   H701      1.0  0.20512  0.92441  0.93627  1.0000
  C   C875      1.0  0.26705  0.52883  0.92786  1.0000
  C   C876      1.0  0.25814  0.95278  0.72193  1.0000
  C   C877      1.0  0.50307  0.68251  0.82602  1.0000
  C   C878      1.0  0.29130  0.65013  0.98258  1.0000
  H   H702      1.0  0.35180  0.53037  0.90305  1.0000
  H   H703      1.0  0.43837  0.62035  0.83561  1.0000
  C   C879      1.0  0.16412  0.99584  0.68708  1.0000
  C   C880      1.0  0.23393  0.74773  0.95181  1.0000
  C   C881      1.0  0.35401  0.60692  0.73425  1.0000
  H   H704      1.0  0.20180  0.91617  0.97158  1.0000
  H   H705      1.0  0.45629  0.54959  0.88461  1.0000
  H   H706      1.0  0.29120  0.58240  0.76290  1.0000
  H   H707      1.0  0.29199  0.50796  0.95219  1.0000
  S   S121      1.0  0.34637  0.53206  0.78206  1.0000
  C   C882      1.0  0.26623  0.66295  0.67694  1.0000
  C   C883      1.0  0.41067  0.78127  0.87578  1.0000
  H   H708      1.0  0.18869  0.97746  0.85353  1.0000
  C   C884      1.0  0.28189  0.63681  0.68589  1.0000
  H   H709      1.0  0.46236  0.62414  0.86798  1.0000
  C   C885      1.0  0.19637  0.77593  0.97292  1.0000
  C   C886      1.0  0.12962  0.99880  0.75010  1.0000
  C   C887      1.0  0.33596  0.60105  0.75102  1.0000
  H   H710      1.0  0.39708  0.66036  0.82503  1.0000
  C   C888      1.0  0.12009  0.97650  0.73569  1.0000
  C   C889      1.0  0.19294  0.78324  0.93831  1.0000
  C   C890      1.0  0.29929  0.97918  0.88059  1.0000
  H   H711      1.0  0.16609  0.56721  0.91001  1.0000
  H   H712      1.0  0.47600  0.88846  0.82645  1.0000
  H   H713      1.0  0.20327  0.99006  0.76185  1.0000
  H   H714      1.0  0.24286  0.94690  0.77006  1.0000
  C   C891      1.0  0.24141  0.56321  0.83055  1.0000
  C   C892      1.0  0.40921  0.66334  0.83880  1.0000
  C   C893      1.0  0.30487  0.58714  0.74979  1.0000
  H   H715      1.0  0.08420  0.68688  0.66626  1.0000
  C   C894      1.0  0.00683  0.83411  0.70830  1.0000
  C   C895      1.0  0.35475  0.54106  0.68467  1.0000
  H   H716      1.0  0.18561  0.52165  0.70264  1.0000
  H   H717      1.0  0.04505  0.64093  0.66988  1.0000
  C   C896      1.0  0.34751  0.95588  0.94011  1.0000
  H   H718      1.0  0.13713  0.97244  0.97866  1.0000
  H   H719      1.0  0.24242  0.56536  0.81498  1.0000
  C   C897      1.0  0.32509  0.51876  0.92889  1.0000
  C   C898      1.0  0.29449  0.51767  0.93774  1.0000
  C   C899      1.0  0.43199  0.77050  0.83804  1.0000
  C   C900      1.0  0.24403  0.98993  0.81256  1.0000
  C   C901      1.0  0.41429  0.76218  0.92916  1.0000
  C   C902      1.0  0.39403  0.73503  0.92699  1.0000
  C   C903      1.0  0.40614  0.70667  0.91854  1.0000
  C   C904      1.0  0.43869  0.70527  0.91212  1.0000
  C   C905      1.0  0.45860  0.73302  0.91395  1.0000
  P   P28       1.0  0.45365  0.66965  0.89964  1.0000
  H   H720      1.0  0.33867  0.52748  0.74098  1.0000
  C   C906      1.0  0.43612  0.63377  0.91081  1.0000
  H   H721      1.0  0.22070  0.69103  0.91485  1.0000
  H   H722      1.0  0.18751  0.60575  0.88491  1.0000
  H   H723      1.0  0.46123  0.78523  0.88324  1.0000
  C   C907      1.0  0.38991  0.59683  0.91451  1.0000
  C   C908      1.0  0.40415  0.62425  0.90602  1.0000
  H   H724      1.0  0.27311  0.94167  0.71087  1.0000
  C   C909      1.0  0.26059  0.85851  0.99012  1.0000
  C   C910      1.0  0.41574  0.69239  0.86893  1.0000
  C   C911      1.0  0.40094  0.68914  0.85088  1.0000
  C   C912      1.0  0.23724  0.64318  0.96916  1.0000
  H   H725      1.0  0.48333  0.73315  0.90852  1.0000
  C   C913      1.0  0.40241  0.91523  0.94091  1.0000
  C   C914      1.0  0.27406  0.95706  0.96927  1.0000
  H   H726      1.0  0.25272  0.95165  0.92183  1.0000
  H   H727      1.0  0.36870  0.73618  0.93153  1.0000
  H   H728      1.0  0.38971  0.68629  0.91665  1.0000
  C   C915      1.0  0.25252  0.69457  0.98405  1.0000
  H   H729      1.0  0.46177  0.78275  0.92377  1.0000
  H   H730      1.0  0.40231  0.78607  0.89033  1.0000
  H   H731      1.0  0.26385  0.65907  0.93060  1.0000
  H   H732      1.0  0.36529  0.58988  0.91063  1.0000
  H   H733      1.0  0.39017  0.63791  0.89557  1.0000
  C   C916      1.0  0.20355  0.61678  0.89549  1.0000
  C   C917      1.0  0.43210  0.64057  0.84486  1.0000
  H   H734      1.0  0.40819  0.71211  0.87817  1.0000
  H   H735      1.0  0.38211  0.70589  0.84650  1.0000
  C   C918      1.0  0.25934  0.95963  0.81302  1.0000
  H   H736      1.0  0.27433  0.60624  0.96883  1.0000
  H   H737      1.0  0.37813  0.61767  0.73525  1.0000
  H   H738      1.0  0.24610  0.93637  0.99268  1.0000
  Fe  Fe64      1.0  0.35374  0.51335  0.85618  1.0000
  H   H739      1.0  0.16355  0.96976  0.68497  1.0000
  C   C919      1.0  0.26820  0.63079  0.97313  1.0000
  P   P29       1.0  0.23131  0.99002  0.69225  1.0000
  H   H740      1.0  0.25458  0.73182  0.94955  1.0000
  C   C920      1.0  0.32820  0.53064  0.91010  1.0000
  H   H741      1.0  0.40001  0.51623  0.67918  1.0000
  C   C921      1.0  0.14472  0.51980  0.91267  1.0000
  C   C922      1.0  0.27772  0.50492  0.69467  1.0000
  C   C923      1.0  0.26997  0.54068  0.90890  1.0000
  H   H742      1.0  0.04124  0.76678  0.68904  1.0000
  P   P30       1.0  0.23444  0.55665  0.89695  1.0000
  C   C924      1.0  0.22699  0.53267  0.85922  1.0000
  H   H743      1.0  0.28529  0.95810  0.81584  1.0000
  C   C925      1.0  0.37231  0.95917  0.92616  1.0000
  H   H744      1.0  0.21613  0.51107  0.86536  1.0000
  S   S122      1.0  0.08260  0.00089  0.83684  1.0000
  C   C926      1.0  0.02680  0.80684  0.70656  1.0000
  C   C927      1.0  0.27677  0.96098  0.94918  1.0000
  H   H745      1.0  0.48849  0.97305  0.79422  1.0000
  C   C928      1.0  0.28350  0.68186  0.98812  1.0000
  H   H746      1.0  0.40487  0.78432  0.93549  1.0000
  C   C929      1.0  0.22439  0.93364  0.94544  1.0000
  H   H747      1.0  0.33671  0.80803  0.97910  1.0000
  C   C930      1.0  0.22793  0.59828  0.90445  1.0000
  C   C931      1.0  0.24951  0.61369  0.91733  1.0000
  C   C932      1.0  0.24659  0.64696  0.92116  1.0000
  C   C933      1.0  0.22223  0.66509  0.91223  1.0000
  C   C934      1.0  0.20059  0.64998  0.89947  1.0000
  H   H748      1.0  0.26502  0.60936  0.83541  1.0000
  C   C935      1.0  0.45382  0.61480  0.92395  1.0000
  H   H749      1.0  0.38092  0.76854  0.83068  1.0000
  C   C936      1.0  0.43860  0.66934  0.87518  1.0000
  H   H750      1.0  0.39683  0.55666  0.93397  1.0000
  C   C937      1.0  0.43953  0.58727  0.93238  1.0000
  H   H751      1.0  0.29980  0.64183  0.69692  1.0000
  C   C938      1.0  0.37927  0.52845  0.67284  1.0000
  H   H752      1.0  0.18187  0.79474  0.92590  1.0000
  C   C939      1.0  0.21898  0.76187  0.93579  1.0000
  H   H753      1.0  0.27173  0.52387  0.75988  1.0000
  C   C940      1.0  0.23323  0.54298  0.69843  1.0000
  H   H754      1.0  0.46572  0.71279  0.83783  1.0000
  C   C941      1.0  0.17038  0.54143  0.90867  1.0000
  P   P31       1.0  0.24184  0.73547  0.99104  1.0000
  C   C942      1.0  0.48576  0.99034  0.78252  1.0000
  H   H755      1.0  0.12102  0.52899  0.91689  1.0000
  C   C943      1.0  0.05819  0.69114  0.66517  1.0000
  C   C944      1.0  0.32741  0.55632  0.67652  1.0000
  C   C945      1.0  0.27443  0.60470  0.68047  1.0000
  C   C946      1.0  0.49303  0.56511  0.86432  1.0000
  C   C947      1.0  0.49348  0.98124  0.76366  1.0000
  H   H756      1.0  0.21028  0.92257  0.69932  1.0000
  S   S123      1.0  0.13523  0.89456  0.67342  1.0000
  H   H757      1.0  0.41812  0.94068  0.91542  1.0000
  H   H758      1.0  0.47890  0.62040  0.92744  1.0000
  H   H759      1.0  0.29973  0.99642  0.70584  1.0000
  H   H760      1.0  0.13018  0.97830  0.72136  1.0000
  H   H761      1.0  0.34639  0.51006  0.93647  1.0000
  C   C948      1.0  0.48622  0.83939  0.83523  1.0000
  H   H762      1.0  0.37058  0.97717  0.91483  1.0000
  C   C949      1.0  0.18308  0.99427  0.98655  1.0000
  C   C950      1.0  0.24116  0.95554  0.75537  1.0000
  C   C951      1.0  0.49789  0.66873  0.90107  1.0000
  H   H763      1.0  0.29313  0.96578  0.97877  1.0000
  S   S124      1.0  0.07406  0.94595  0.66576  1.0000
  H   H764      1.0  0.49253  0.55607  0.91316  1.0000
  P   P32       1.0  0.31199  0.98186  0.93917  1.0000
  C   C952      1.0  0.39950  0.93877  0.92652  1.0000
  C   C953      1.0  0.21140  0.51698  0.70066  1.0000
  C   C954      1.0  0.48750  0.86574  0.82252  1.0000
  H   H765      1.0  0.31536  0.64060  0.98561  1.0000
  H   H766      1.0  0.00909  0.84990  0.72075  1.0000
  C   C955      1.0  0.50188  0.81009  0.83062  1.0000
  H   H767      1.0  0.50257  0.95701  0.76075  1.0000
  H   H768      1.0  0.11189  0.99995  0.68482  1.0000
  H   H769      1.0  0.49968  0.99862  0.67514  1.0000
  H   H770      1.0  0.18824  0.97635  0.99760  1.0000
  C   C956      1.0  0.27825  0.75771  0.99772  1.0000
  C   C957      1.0  0.25122  0.59928  0.66595  1.0000
  S   S125      1.0  0.85995  0.06299  0.28726  1.0000
  C   C958      1.0  0.50773  0.46391  0.21171  1.0000
  H   H771      1.0  0.72822  0.08387  0.04157  1.0000
  Fe  Fe65      1.0  0.62898  0.43632  0.15855  1.0000
  S   S126      1.0  0.63582  0.40227  0.18383  1.0000
  Fe  Fe66      1.0  0.55486  0.42715  0.15813  1.0000
  S   S127      1.0  0.55663  0.39386  0.18360  1.0000
  Fe  Fe67      1.0  0.59294  0.42876  0.19676  1.0000
  S   S128      1.0  0.58432  0.43923  0.22892  1.0000
  Fe  Fe68      1.0  0.59914  0.37023  0.16869  1.0000
  S   S129      1.0  0.59486  0.31497  0.16707  1.0000
  S   S130      1.0  0.58797  0.46437  0.17219  1.0000
  S   S131      1.0  0.59545  0.40195  0.14241  1.0000
  Fe  Fe69      1.0  0.68440  0.09715  0.11090  1.0000
  S   S132      1.0  0.65116  0.08794  0.08560  1.0000
  S   S133      1.0  0.70208  0.05389  0.12836  1.0000
  Fe  Fe70      1.0  0.67379  0.17048  0.10969  1.0000
  S   S134      1.0  0.63976  0.16613  0.08462  1.0000
  S   S135      1.0  0.68966  0.21995  0.12113  1.0000
  Fe  Fe71      1.0  0.61770  0.12348  0.10021  1.0000
  S   S136      1.0  0.56244  0.11728  0.09952  1.0000
  Fe  Fe72      1.0  0.67612  0.13116  0.07201  1.0000
  S   S137      1.0  0.68550  0.14074  0.03997  1.0000
  S   S138      1.0  0.64921  0.13036  0.12630  1.0000
  S   S139      1.0  0.71192  0.13791  0.09635  1.0000
  C   C959      1.0  0.62153  0.28931  0.15395  1.0000
  C   C960      1.0  0.65190  0.30013  0.14718  1.0000
  C   C961      1.0  0.67242  0.27872  0.13698  1.0000
  C   C962      1.0  0.66267  0.24647  0.13332  1.0000
  C   C963      1.0  0.63219  0.23582  0.13988  1.0000
  C   C964      1.0  0.61200  0.25700  0.15039  1.0000
  H   H772      1.0  0.65969  0.32484  0.14998  1.0000
  H   H773      1.0  0.69605  0.28714  0.13203  1.0000
  H   H774      1.0  0.62450  0.21105  0.13721  1.0000
  H   H775      1.0  0.58901  0.24815  0.15593  1.0000
  C   C965      1.0  0.68523  0.47256  0.31904  1.0000
  C   C966      1.0  0.52937  0.08186  0.15107  1.0000
  C   C967      1.0  0.55010  0.09423  0.13654  1.0000
  C   C968      1.0  0.53758  0.10142  0.11829  1.0000
  H   H776      1.0  0.54615  0.20966  0.19652  1.0000
  C   C969      1.0  0.52126  0.49200  0.21981  1.0000
  H   H777      1.0  0.53924  0.07651  0.16517  1.0000
  H   H778      1.0  0.57570  0.09823  0.13943  1.0000
  C   C970      1.0  0.68617  0.02630  0.02833  1.0000
  H   H779      1.0  0.68686  0.37834  0.31774  1.0000
  H   H780      1.0  0.66137  0.43848  0.02128  1.0000
  C   C971      1.0  0.76787  0.05158  0.11860  1.0000
  C   C972      1.0  0.74217  0.03837  0.12938  1.0000
  C   C973      1.0  0.69321  0.46594  0.08082  1.0000
  C   C974      1.0  0.50576  0.31320  0.14809  1.0000
  C   C975      1.0  0.73238  0.09411  0.23544  1.0000
  H   H781      1.0  0.76361  0.07227  0.10933  1.0000
  C   C976      1.0  0.65759  0.07592  0.28367  1.0000
  C   C977      1.0  0.75197  0.46480  0.08444  1.0000
  C   C978      1.0  0.73433  0.49813  0.27759  1.0000
  C   C979      1.0  0.60475  0.01766  0.15291  1.0000
  C   C980      1.0  0.86279  0.49130  0.13324  1.0000
  C   C981      1.0  0.60061  0.46714  0.24614  1.0000
  C   C982      1.0  0.59905  0.47630  0.11100  1.0000
  C   C983      1.0  0.77129  0.50088  0.17507  1.0000
  H   H782      1.0  0.51964  0.33114  0.10737  1.0000
  C   C984      1.0  0.58388  0.02596  0.10490  1.0000
  C   C985      1.0  0.71405  0.12367  0.02352  1.0000
  C   C986      1.0  0.73155  0.09548  0.02775  1.0000
  C   C987      1.0  0.71231  0.03231  0.19051  1.0000
  C   C988      1.0  0.61847  0.06437  0.18131  1.0000
  C   C989      1.0  0.79920  0.03777  0.11972  1.0000
  C   C990      1.0  0.60494  0.02041  0.07240  1.0000
  H   H783      1.0  0.63393  0.40730  0.31970  1.0000
  C   C991      1.0  0.64248  0.10512  0.28866  1.0000
  H   H784      1.0  0.86085  0.03510  0.16498  1.0000
  H   H785      1.0  0.88199  0.09368  0.21473  1.0000
  C   C992      1.0  0.72787  0.09822  0.25533  1.0000
  H   H786      1.0  0.53047  0.24498  0.23405  1.0000
  C   C993      1.0  0.71532  0.45641  0.31818  1.0000
  C   C994      1.0  0.68643  0.40465  0.31815  1.0000
  H   H787      1.0  0.70839  0.11352  0.26064  1.0000
  H   H788      1.0  0.85668  0.49690  0.10254  1.0000
  C   C995      1.0  0.56956  0.47221  0.10124  1.0000
  H   H789      1.0  0.54921  0.29228  0.21460  1.0000
  H   H790      1.0  0.69059  0.48977  0.03837  1.0000
  H   H791      1.0  0.53715  0.01345  0.14875  1.0000
  H   H792      1.0  0.99906  0.35294  0.32521  1.0000
  H   H793      1.0  0.62370  0.08249  0.19221  1.0000
  C   C996      1.0  0.64576  0.11748  0.30734  1.0000
  C   C997      1.0  0.59329  0.49780  0.07290  1.0000
  C   C998      1.0  0.57772  0.22119  0.07590  1.0000
  C   C999      1.0  0.76152  0.48107  0.24824  1.0000
  H   H794      1.0  0.64831  0.49370  0.10952  1.0000
  C   C1000     1.0  0.73148  0.03721  0.07663  1.0000
  C   C1001     1.0  0.55434  0.19651  0.07764  1.0000
  H   H795      1.0  0.65479  0.06611  0.26926  1.0000
  H   H796      1.0  0.69513  0.01122  0.09299  1.0000
  H   H797      1.0  0.74565  0.08641  0.28376  1.0000
  C   C1002     1.0  0.62839  0.48609  0.24246  1.0000
  C   C1003     1.0  0.86023  0.00829  0.23840  1.0000
  H   H798      1.0  0.95201  0.00416  0.09182  1.0000
  C   C1004     1.0  0.50430  0.09576  0.11468  1.0000
  H   H799      1.0  0.56776  0.03818  0.11492  1.0000
  H   H800      1.0  0.80724  0.02207  0.30296  1.0000
  C   C1005     1.0  0.78400  0.46352  0.25916  1.0000
  H   H801      1.0  0.59912  0.26343  0.08922  1.0000
  C   C1006     1.0  0.78315  0.01318  0.30677  1.0000
  C   C1007     1.0  0.58513  0.47005  0.26422  1.0000
  H   H802      1.0  0.73848  0.40939  0.31583  1.0000
  H   H803      1.0  0.77410  0.45161  0.08767  1.0000
  H   H804      1.0  0.59464  0.22113  0.06387  1.0000
  H   H805      1.0  0.51632  0.17566  0.09493  1.0000
  H   H806      1.0  0.56943  0.05601  0.08100  1.0000
  H   H807      1.0  0.67016  0.45304  0.08111  1.0000
  C   C1008     1.0  0.57088  0.32955  0.11402  1.0000
  C   C1009     1.0  0.54424  0.33288  0.10168  1.0000
  C   C1010     1.0  0.54937  0.33815  0.08200  1.0000
  C   C1011     1.0  0.58119  0.34023  0.07469  1.0000
  C   C1012     1.0  0.60808  0.33733  0.08711  1.0000
  C   C1013     1.0  0.60262  0.33097  0.10671  1.0000
  P   P33       1.0  0.64897  0.33812  0.07741  1.0000
  C   C1014     1.0  0.65283  0.36997  0.05966  1.0000
  C   C1015     1.0  0.67951  0.34772  0.09533  1.0000
  C   C1016     1.0  0.71099  0.33451  0.09392  1.0000
  C   C1017     1.0  0.73443  0.34140  0.10799  1.0000
  C   C1018     1.0  0.72683  0.36197  0.12336  1.0000
  C   C1019     1.0  0.69601  0.37615  0.12445  1.0000
  C   C1020     1.0  0.67261  0.36961  0.11031  1.0000
  C   C1021     1.0  0.67582  0.36731  0.04471  1.0000
  C   C1022     1.0  0.67884  0.39196  0.03091  1.0000
  C   C1023     1.0  0.59718  0.49152  0.27844  1.0000
  C   C1024     1.0  0.63709  0.42293  0.04733  1.0000
  C   C1025     1.0  0.63403  0.39833  0.06117  1.0000
  C   C1026     1.0  0.65526  0.29835  0.06705  1.0000
  C   C1027     1.0  0.64589  0.29185  0.04794  1.0000
  C   C1028     1.0  0.65079  0.26097  0.03998  1.0000
  C   C1029     1.0  0.66482  0.23636  0.05107  1.0000
  C   C1030     1.0  0.67336  0.24246  0.07021  1.0000
  C   C1031     1.0  0.66804  0.27308  0.07831  1.0000
  H   H808      1.0  0.56709  0.32543  0.12927  1.0000
  C   C1032     1.0  0.65604  0.45486  0.31959  1.0000
  C   C1033     1.0  0.74822  0.01187  0.14158  1.0000
  H   H809      1.0  0.58478  0.34393  0.05937  1.0000
  H   H810      1.0  0.62273  0.32696  0.11642  1.0000
  H   H811      1.0  0.71746  0.31861  0.08210  1.0000
  H   H812      1.0  0.75838  0.33044  0.10711  1.0000
  H   H813      1.0  0.74477  0.36698  0.13444  1.0000
  H   H814      1.0  0.69014  0.39202  0.13640  1.0000
  H   H815      1.0  0.64908  0.38136  0.11131  1.0000
  H   H816      1.0  0.69141  0.34618  0.04371  1.0000
  H   H817      1.0  0.55341  0.17704  0.06712  1.0000
  H   H818      1.0  0.78400  0.48951  0.16317  1.0000
  H   H819      1.0  0.62232  0.44463  0.04842  1.0000
  H   H820      1.0  0.61708  0.40154  0.07304  1.0000
  H   H821      1.0  0.63473  0.31054  0.03921  1.0000
  H   H822      1.0  0.64375  0.25600  0.02522  1.0000
  H   H823      1.0  0.66884  0.21242  0.04492  1.0000
  H   H824      1.0  0.68405  0.22334  0.07887  1.0000
  H   H825      1.0  0.67399  0.27685  0.09337  1.0000
  H   H826      1.0  0.82257  0.49065  0.31054  1.0000
  C   C1034     1.0  0.86197  0.03436  0.25156  1.0000
  H   H827      1.0  0.53429  0.49005  0.23333  1.0000
  C   C1035     1.0  0.57320  0.17803  0.17774  1.0000
  C   C1036     1.0  0.75727  0.48116  0.28870  1.0000
  C   C1037     1.0  0.81893  0.47301  0.32195  1.0000
  P   P34       1.0  0.76513  0.07009  0.20295  1.0000
  C   C1038     1.0  0.75825  0.07511  0.22852  1.0000
  C   C1039     1.0  0.80823  0.06783  0.19771  1.0000
  C   C1040     1.0  0.81918  0.05080  0.18143  1.0000
  C   C1041     1.0  0.85255  0.04868  0.17743  1.0000
  C   C1042     1.0  0.87520  0.06390  0.18949  1.0000
  C   C1043     1.0  0.86444  0.08181  0.20538  1.0000
  C   C1044     1.0  0.83106  0.08404  0.20940  1.0000
  C   C1045     1.0  0.77819  0.05873  0.24174  1.0000
  C   C1046     1.0  0.77376  0.06302  0.26156  1.0000
  C   C1047     1.0  0.74874  0.08290  0.26838  1.0000
  P   P35       1.0  0.75246  0.47934  0.31457  1.0000
  H   H828      1.0  0.67139  0.00308  0.18134  1.0000
  C   C1048     1.0  0.75076  0.10373  0.18855  1.0000
  C   C1049     1.0  0.75166  0.13563  0.19576  1.0000
  C   C1050     1.0  0.74107  0.16159  0.18433  1.0000
  C   C1051     1.0  0.73027  0.15599  0.16550  1.0000
  C   C1052     1.0  0.73048  0.12448  0.15801  1.0000
  C   C1053     1.0  0.74094  0.09853  0.16942  1.0000
  C   C1054     1.0  0.54938  0.20118  0.18188  1.0000
  C   C1055     1.0  0.75271  0.08192  0.01385  1.0000
  C   C1056     1.0  0.74076  0.48853  0.18052  1.0000
  H   H829      1.0  0.76563  0.05975  0.01712  1.0000
  C   C1057     1.0  0.53493  0.22028  0.10761  1.0000
  H   H830      1.0  0.80198  0.03909  0.17184  1.0000
  H   H831      1.0  0.76296  0.48076  0.23263  1.0000
  H   H832      1.0  0.90106  0.06181  0.18650  1.0000
  C   C1058     1.0  0.58022  0.24503  0.09015  1.0000
  C   C1059     1.0  0.74502  0.03244  0.19657  1.0000
  H   H833      1.0  0.79746  0.04286  0.23677  1.0000
  H   H834      1.0  0.79013  0.05121  0.27160  1.0000
  H   H835      1.0  0.56164  0.17058  0.12947  1.0000
  H   H836      1.0  0.69947  0.49359  0.19947  1.0000
  H   H837      1.0  0.62798  0.11803  0.27812  1.0000
  H   H838      1.0  0.76089  0.14055  0.21010  1.0000
  H   H839      1.0  0.74162  0.18617  0.18995  1.0000
  H   H840      1.0  0.72223  0.17611  0.15656  1.0000
  H   H841      1.0  0.72291  0.12015  0.14326  1.0000
  H   H842      1.0  0.74167  0.07445  0.16320  1.0000
  C   C1060     1.0  0.51594  0.28149  0.14416  1.0000
  H   H843      1.0  0.60571  0.02863  0.05755  1.0000
  C   C1061     1.0  0.59299  0.01363  0.17181  1.0000
  H   H844      1.0  0.86086  0.01283  0.22304  1.0000
  H   H845      1.0  0.60134  0.46843  0.12584  1.0000
  C   C1062     1.0  0.73044  0.02238  0.32185  1.0000
  H   H846      1.0  0.68410  0.49887  0.31889  1.0000
  C   C1063     1.0  0.78170  0.46325  0.27931  1.0000
  C   C1064     1.0  0.55905  0.24449  0.10598  1.0000
  C   C1065     1.0  0.53311  0.19592  0.09346  1.0000
  C   C1066     1.0  0.66418  0.10069  0.32103  1.0000
  C   C1067     1.0  0.67613  0.05913  0.29731  1.0000
  C   C1068     1.0  0.80516  0.01114  0.13190  1.0000
  C   C1069     1.0  0.86071  0.02892  0.27158  1.0000
  C   C1070     1.0  0.69636  0.00295  0.18646  1.0000
  H   H847      1.0  0.71580  0.10583  0.22554  1.0000
  C   C1071     1.0  0.55806  0.17953  0.14401  1.0000
  H   H848      1.0  0.64667  0.08854  0.15931  1.0000
  H   H849      1.0  0.64088  0.48377  0.22881  1.0000
  C   C1072     1.0  0.57743  0.16713  0.15883  1.0000
  C   C1073     1.0  0.66686  0.04344  0.01528  1.0000
  H   H850      1.0  0.80279  0.44952  0.25200  1.0000
  H   H851      1.0  0.86400  0.05898  0.24624  1.0000
  C   C1074     1.0  0.52993  0.21362  0.16709  1.0000
  C   C1075     1.0  0.71567  0.42232  0.31730  1.0000
  H   H852      1.0  0.79850  0.44838  0.28740  1.0000
  C   C1076     1.0  0.78733  0.46233  0.32680  1.0000
  H   H853      1.0  0.65234  0.06376  0.02027  1.0000
  C   C1077     1.0  0.59934  0.03721  0.18586  1.0000
  C   C1078     1.0  0.62565  0.49088  0.10174  1.0000
  H   H854      1.0  0.87040  0.46959  0.32819  1.0000
  H   H855      1.0  0.59582  0.14915  0.15559  1.0000
  H   H856      1.0  0.54887  0.46102  0.10855  1.0000
  C   C1079     1.0  0.65926  0.41960  0.03211  1.0000
  H   H857      1.0  0.68735  0.03641  0.29316  1.0000
  H   H858      1.0  0.78580  0.00201  0.20483  1.0000
  C   C1080     1.0  0.69452  0.49945  0.07688  1.0000
  H   H859      1.0  0.58844  0.16858  0.18916  1.0000
  H   H860      1.0  0.82324  0.09815  0.22174  1.0000
  H   H861      1.0  0.69910  0.05484  0.18881  1.0000
  C   C1081     1.0  0.71801  0.00945  0.08519  1.0000
  S   S140      1.0  0.67374  0.45657  0.14286  1.0000
  C   C1082     1.0  0.56673  0.48285  0.08216  1.0000
  H   H862      1.0  0.86458  0.49156  0.16407  1.0000
  H   H863      1.0  0.56368  0.45548  0.26728  1.0000
  H   H864      1.0  0.81893  0.04790  0.11120  1.0000
  H   H865      1.0  0.54376  0.47978  0.07465  1.0000
  Fe  Fe73      1.0  0.86643  0.06599  0.31998  1.0000
  C   C1083     1.0  0.73664  0.49824  0.25746  1.0000
  H   H866      1.0  0.71908  0.06033  0.07781  1.0000
  H   H867      1.0  0.77180  0.05696  0.06037  1.0000
  C   C1084     1.0  0.72180  0.44879  0.08477  1.0000
  S   S141      1.0  0.89950  0.10629  0.32998  1.0000
  H   H868      1.0  0.83527  0.26521  0.31940  1.0000
  H   H869      1.0  0.72048  0.42315  0.08832  1.0000
  C   C1085     1.0  0.65662  0.42093  0.31929  1.0000
  H   H870      1.0  0.80073  0.00476  0.05807  1.0000
  C   C1086     1.0  0.67986  0.07159  0.31604  1.0000
  H   H871      1.0  0.53999  0.27425  0.14880  1.0000
  H   H872      1.0  0.76901  0.05828  0.31944  1.0000
  C   C1087     1.0  0.63108  0.06800  0.16270  1.0000
  C   C1088     1.0  0.53440  0.20318  0.14800  1.0000
  H   H873      1.0  0.58501  0.49334  0.29225  1.0000
  H   H874      1.0  0.56227  0.26239  0.11720  1.0000
  C   C1089     1.0  0.62396  0.04494  0.14847  1.0000
  H   H875      1.0  0.87994  0.47149  0.13190  1.0000
  H   H876      1.0  0.52197  0.32994  0.15552  1.0000
  H   H877      1.0  0.70499  0.16022  0.00193  1.0000
  H   H878      1.0  0.58957  0.03427  0.20029  1.0000
  S   S142      1.0  0.50558  0.44226  0.14588  1.0000
  H   H879      1.0  0.51053  0.44075  0.21897  1.0000
  H   H880      1.0  0.68628  0.03320  0.04341  1.0000
  C   C1090     1.0  0.76145  0.03365  0.31637  1.0000
  C   C1091     1.0  0.68765  0.49738  0.14109  1.0000
  C   C1092     1.0  0.76132  0.03535  0.06693  1.0000
  H   H881      1.0  0.63381  0.04823  0.13409  1.0000
  H   H882      1.0  0.72831  0.48435  0.12298  1.0000
  H   H883      1.0  0.69637  0.38966  0.01927  1.0000
  C   C1093     1.0  0.58459  0.03597  0.08564  1.0000
  H   H884      1.0  0.52862  0.34051  0.07244  1.0000
  C   C1094     1.0  0.76099  0.00268  0.19942  1.0000
  H   H885      1.0  0.51426  0.31408  0.18888  1.0000
  C   C1095     1.0  0.77782  0.00577  0.06585  1.0000
  C   C1096     1.0  0.75356  0.49794  0.08007  1.0000
  H   H886      1.0  0.51394  0.39492  0.11489  1.0000
  C   C1097     1.0  0.52571  0.28097  0.21174  1.0000
  C   C1098     1.0  0.71840  0.13841  0.00537  1.0000
  H   H887      1.0  0.63296  0.46759  0.31994  1.0000
  H   H888      1.0  0.73028  0.46800  0.17284  1.0000
  P   P36       1.0  0.50918  0.21877  0.12879  1.0000
  C   C1099     1.0  0.51517  0.25432  0.22261  1.0000
  H   H889      1.0  0.51150  0.23137  0.17059  1.0000
  H   H890      1.0  0.63379  0.13996  0.31128  1.0000
  C   C1100     1.0  0.84938  0.28103  0.32873  1.0000
  H   H891      1.0  0.81696  0.32173  0.32554  1.0000
  C   C1101     1.0  0.50595  0.29321  0.19710  1.0000
  H   H892      1.0  0.72859  0.00195  0.15019  1.0000
  H   H893      1.0  0.73102  0.11398  0.32625  1.0000
  H   H894      1.0  0.68511  0.49681  0.00312  1.0000
  H   H895      1.0  0.89914  0.46490  0.61122  1.0000
  S   S143      1.0  0.99443  0.41616  0.34368  1.0000
  H   H896      1.0  0.99526  0.21487  0.38886  1.0000
  C   C1102     1.0  0.64753  0.03173  0.59100  1.0000
  Fe  Fe74      1.0  0.56118  0.02043  0.64951  1.0000
  Fe  Fe75      1.0  0.91575  0.07217  0.35332  1.0000
  H   H897      1.0  0.84420  0.44556  0.66226  1.0000
  S   S144      1.0  0.97052  0.06559  0.35801  1.0000
  Fe  Fe76      1.0  0.85947  0.12074  0.35041  1.0000
  S   S145      1.0  0.84265  0.17343  0.35095  1.0000
  S   S146      1.0  0.87790  0.08933  0.37451  1.0000
  Fe  Fe77      1.0  0.78144  0.37958  0.40443  1.0000
  S   S147      1.0  0.80837  0.41344  0.42425  1.0000
  S   S148      1.0  0.74411  0.39543  0.38210  1.0000
  Fe  Fe78      1.0  0.81319  0.31895  0.42118  1.0000
  S   S149      1.0  0.84178  0.34859  0.44253  1.0000
  S   S150      1.0  0.81919  0.26408  0.42412  1.0000
  Fe  Fe79      1.0  0.79605  0.37689  0.44736  1.0000
  S   S151      1.0  0.78331  0.39517  0.47737  1.0000
  Fe  Fe80      1.0  0.85221  0.38249  0.41790  1.0000
  S   S152      1.0  0.90389  0.40300  0.41784  1.0000
  S   S153      1.0  0.76627  0.34486  0.42796  1.0000
  S   S154      1.0  0.82653  0.35105  0.39603  1.0000
  C   C1103     1.0  0.57262  0.18542  0.56292  1.0000
  C   C1104     1.0  0.51869  0.04600  0.58592  1.0000
  C   C1105     1.0  0.00074  0.22292  0.42968  1.0000
  C   C1106     1.0  0.93896  0.17871  0.34683  1.0000
  S   S155      1.0  0.60321  0.04704  0.63590  1.0000
  C   C1107     1.0  0.79999  0.33611  0.60477  1.0000
  H   H898      1.0  0.88404  0.24409  0.33528  1.0000
  Fe  Fe81      1.0  0.66438  0.28119  0.59814  1.0000
  S   S156      1.0  0.63208  0.29534  0.57368  1.0000
  S   S157      1.0  0.67300  0.22685  0.60197  1.0000
  Fe  Fe82      1.0  0.68160  0.35257  0.60622  1.0000
  S   S158      1.0  0.65017  0.37146  0.58189  1.0000
  S   S159      1.0  0.70549  0.38370  0.62965  1.0000
  Fe  Fe83      1.0  0.61301  0.33512  0.59265  1.0000
  S   S160      1.0  0.55779  0.34090  0.59103  1.0000
  Fe  Fe84      1.0  0.67168  0.33012  0.56471  1.0000
  S   S161      1.0  0.68038  0.32471  0.53238  1.0000
  S   S162      1.0  0.64272  0.31847  0.61795  1.0000
  S   S163      1.0  0.70568  0.31364  0.58824  1.0000
  C   C1108     1.0  0.62117  0.15920  0.64530  1.0000
  C   C1109     1.0  0.64112  0.14650  0.63080  1.0000
  C   C1110     1.0  0.65676  0.16753  0.61761  1.0000
  C   C1111     1.0  0.65253  0.20139  0.61876  1.0000
  C   C1112     1.0  0.63223  0.21405  0.63312  1.0000
  C   C1113     1.0  0.51194  0.27695  0.65525  1.0000
  H   H899      1.0  0.63075  0.05149  0.34020  1.0000
  H   H900      1.0  0.67248  0.15757  0.60657  1.0000
  H   H901      1.0  0.62877  0.24003  0.63416  1.0000
  H   H902      1.0  0.65109  0.47885  0.42170  1.0000
  C   C1114     1.0  0.92126  0.41126  0.65526  1.0000
  C   C1115     1.0  0.52592  0.38187  0.64120  1.0000
  C   C1116     1.0  0.54647  0.36904  0.62681  1.0000
  C   C1117     1.0  0.53300  0.35597  0.60998  1.0000
  H   H903      1.0  0.68847  0.45836  0.49232  1.0000
  H   H904      1.0  0.86271  0.43107  0.35529  1.0000
  C   C1118     1.0  0.64725  0.06503  0.59498  1.0000
  H   H905      1.0  0.57269  0.36988  0.62855  1.0000
  C   C1119     1.0  0.90067  0.30150  0.41594  1.0000
  C   C1120     1.0  0.83725  0.36154  0.63528  1.0000
  C   C1121     1.0  0.79159  0.45629  0.62635  1.0000
  C   C1122     1.0  0.78341  0.43724  0.61020  1.0000
  C   C1123     1.0  0.75675  0.41539  0.61077  1.0000
  C   C1124     1.0  0.73826  0.41203  0.62765  1.0000
  C   C1125     1.0  0.74643  0.43113  0.64378  1.0000
  C   C1126     1.0  0.77265  0.45344  0.64306  1.0000
  C   C1127     1.0  0.93480  0.16214  0.36425  1.0000
  H   H906      1.0  0.75081  0.40083  0.59826  1.0000
  C   C1128     1.0  0.92754  0.21343  0.38081  1.0000
  H   H907      1.0  0.87771  0.35922  0.61518  1.0000
  C   C1129     1.0  0.75464  0.37533  0.49249  1.0000
  C   C1130     1.0  0.73731  0.34792  0.48631  1.0000
  C   C1131     1.0  0.71453  0.33289  0.49869  1.0000
  C   C1132     1.0  0.70949  0.34456  0.51752  1.0000
  C   C1133     1.0  0.72714  0.37171  0.52381  1.0000
  C   C1134     1.0  0.74929  0.38729  0.51123  1.0000
  H   H908      1.0  0.74134  0.33846  0.47196  1.0000
  H   H909      1.0  0.70086  0.31200  0.49367  1.0000
  H   H910      1.0  0.72335  0.38098  0.53824  1.0000
  H   H911      1.0  0.76264  0.40848  0.51610  1.0000
  C   C1135     1.0  0.83641  0.19781  0.37167  1.0000
  C   C1136     1.0  0.84259  0.18656  0.39035  1.0000
  C   C1137     1.0  0.83709  0.20704  0.40634  1.0000
  C   C1138     1.0  0.82568  0.23894  0.40376  1.0000
  C   C1139     1.0  0.81965  0.25016  0.38509  1.0000
  C   C1140     1.0  0.82471  0.22956  0.36919  1.0000
  H   H912      1.0  0.85152  0.16212  0.39245  1.0000
  H   H913      1.0  0.84178  0.19818  0.42075  1.0000
  H   H914      1.0  0.81079  0.27459  0.38289  1.0000
  H   H915      1.0  0.81926  0.23818  0.35485  1.0000
  C   C1141     1.0  0.97003  0.41040  0.36448  1.0000
  C   C1142     1.0  0.98270  0.41516  0.38297  1.0000
  C   C1143     1.0  0.96212  0.41262  0.39918  1.0000
  C   C1144     1.0  0.92892  0.40473  0.39707  1.0000
  C   C1145     1.0  0.91644  0.39903  0.37864  1.0000
  C   C1146     1.0  0.93689  0.40214  0.36237  1.0000
  H   H916      1.0  0.54282  0.46780  0.45316  1.0000
  H   H917      1.0  0.97183  0.41690  0.41344  1.0000
  H   H918      1.0  0.89095  0.39282  0.37696  1.0000
  H   H919      1.0  0.92697  0.39841  0.34810  1.0000
  H   H920      1.0  0.95778  0.10317  0.39321  1.0000
  H   H921      1.0  0.73428  0.49931  0.35322  1.0000
  H   H922      1.0  0.99650  0.24582  0.35779  1.0000
  C   C1147     1.0  0.72867  0.45438  0.39929  1.0000
  C   C1148     1.0  0.72236  0.43241  0.38436  1.0000
  C   C1149     1.0  0.69824  0.43999  0.37072  1.0000
  C   C1150     1.0  0.68076  0.46934  0.37187  1.0000
  H   H923      1.0  0.84861  0.35731  0.34762  1.0000
  H   H924      1.0  0.74702  0.44881  0.40995  1.0000
  H   H925      1.0  0.69298  0.42304  0.35922  1.0000
  H   H926      1.0  0.66220  0.47484  0.36131  1.0000
  C   C1151     1.0  0.92478  0.32321  0.42201  1.0000
  C   C1152     1.0  0.95155  0.32969  0.41011  1.0000
  H   H927      1.0  0.92206  0.33603  0.43557  1.0000
  H   H928      1.0  0.96928  0.34778  0.41444  1.0000
  H   H929      1.0  0.99530  0.12558  0.41796  1.0000
  C   C1153     1.0  0.89561  0.28917  0.35015  1.0000
  H   H930      1.0  0.73057  0.04480  0.37317  1.0000
  C   C1154     1.0  0.75739  0.12768  0.35159  1.0000
  H   H931      1.0  0.54887  0.49970  0.42295  1.0000
  C   C1155     1.0  0.88887  0.31511  0.65710  1.0000
  P   P37       1.0  0.86170  0.37735  0.65491  1.0000
  H   H932      1.0  0.76637  0.15028  0.34543  1.0000
  C   C1156     1.0  0.89129  0.40642  0.64583  1.0000
  C   C1157     1.0  0.78322  0.44105  0.34246  1.0000
  H   H933      1.0  0.73225  0.42884  0.65688  1.0000
  C   C1158     1.0  0.97339  0.24339  0.42995  1.0000
  H   H934      1.0  0.79140  0.36105  0.65109  1.0000
  H   H935      1.0  0.97502  0.26812  0.42480  1.0000
  H   H936      1.0  0.59331  0.01699  0.35914  1.0000
  H   H937      1.0  0.53511  0.11637  0.63441  1.0000
  C   C1159     1.0  0.88499  0.32109  0.35355  1.0000
  C   C1160     1.0  0.73725  0.10699  0.34081  1.0000
  C   C1161     1.0  0.56991  0.48815  0.42937  1.0000
  C   C1162     1.0  0.64077  0.03192  0.34868  1.0000
  H   H938      1.0  0.63333  0.11254  0.58500  1.0000
  H   H939      1.0  0.59038  0.44095  0.46757  1.0000
  C   C1163     1.0  0.93770  0.21263  0.34639  1.0000
  H   H940      1.0  0.00220  0.17816  0.36094  1.0000
  H   H941      1.0  0.77806  0.46856  0.65538  1.0000
  C   C1164     1.0  0.93554  0.45401  0.63264  1.0000
  C   C1165     1.0  0.99631  0.08372  0.37562  1.0000
  S   S164      1.0  0.82553  0.48331  0.62486  1.0000
  C   C1166     1.0  0.61657  0.19301  0.64625  1.0000
  C   C1167     1.0  0.51945  0.26911  0.62091  1.0000
  C   C1168     1.0  0.78532  0.34251  0.62255  1.0000
  C   C1169     1.0  0.56653  0.47008  0.44634  1.0000
  C   C1170     1.0  0.88379  0.42567  0.62974  1.0000
  C   C1171     1.0  0.62762  0.47601  0.42870  1.0000
  C   C1172     1.0  0.51009  0.11158  0.59578  1.0000
  H   H942      1.0  0.58978  0.29478  0.64144  1.0000
  C   C1173     1.0  0.54652  0.16918  0.57178  1.0000
  H   H943      1.0  0.88366  0.27058  0.39318  1.0000
  C   C1174     1.0  0.99711  0.19045  0.43552  1.0000
  H   H944      1.0  0.78538  0.32677  0.59297  1.0000
  H   H945      1.0  0.87966  0.29680  0.42498  1.0000
  H   H946      1.0  0.97483  0.32058  0.38304  1.0000
  C   C1175     1.0  0.66759  0.42797  0.51418  1.0000
  C   C1176     1.0  0.64632  0.40226  0.51836  1.0000
  C   C1177     1.0  0.62833  0.38773  0.50358  1.0000
  C   C1178     1.0  0.63165  0.39880  0.48460  1.0000
  C   C1179     1.0  0.65332  0.42438  0.48021  1.0000
  C   C1180     1.0  0.67114  0.43903  0.49521  1.0000
  P   P38       1.0  0.65966  0.43658  0.45536  1.0000
  C   C1181     1.0  0.67449  0.02571  0.34879  1.0000
  C   C1182     1.0  0.69522  0.46259  0.45405  1.0000
  C   C1183     1.0  0.84175  0.43963  0.34729  1.0000
  H   H947      1.0  0.66606  0.11028  0.33555  1.0000
  C   C1184     1.0  0.52031  0.14030  0.66029  1.0000
  C   C1185     1.0  0.60049  0.49124  0.42062  1.0000
  C   C1186     1.0  0.72649  0.44888  0.45365  1.0000
  C   C1187     1.0  0.94329  0.43489  0.64863  1.0000
  C   C1188     1.0  0.90579  0.44936  0.62320  1.0000
  C   C1189     1.0  0.66825  0.40091  0.44101  1.0000
  C   C1190     1.0  0.66615  0.40207  0.42080  1.0000
  C   C1191     1.0  0.67340  0.37461  0.40975  1.0000
  C   C1192     1.0  0.68281  0.34579  0.41874  1.0000
  C   C1193     1.0  0.68532  0.34452  0.43881  1.0000
  C   C1194     1.0  0.67859  0.37204  0.44988  1.0000
  H   H948      1.0  0.68209  0.43864  0.52562  1.0000
  H   H949      1.0  0.64445  0.39296  0.53297  1.0000
  H   H950      1.0  0.94822  0.33419  0.34067  1.0000
  H   H951      1.0  0.61813  0.38673  0.47324  1.0000
  H   H952      1.0  0.75912  0.43380  0.34725  1.0000
  C   C1195     1.0  0.98387  0.10056  0.39152  1.0000
  H   H953      1.0  0.65755  0.01525  0.60158  1.0000
  H   H954      1.0  0.94327  0.16519  0.33367  1.0000
  H   H955      1.0  0.77822  0.45798  0.45358  1.0000
  H   H956      1.0  0.72964  0.42275  0.45372  1.0000
  H   H957      1.0  0.92576  0.16652  0.39469  1.0000
  H   H958      1.0  0.96601  0.43916  0.65622  1.0000
  H   H959      1.0  0.65981  0.42424  0.41338  1.0000
  H   H960      1.0  0.67275  0.37603  0.39414  1.0000
  H   H961      1.0  0.68921  0.32484  0.41009  1.0000
  H   H962      1.0  0.69357  0.32260  0.44584  1.0000
  H   H963      1.0  0.68219  0.37075  0.46531  1.0000
  C   C1196     1.0  0.71733  0.24328  0.54664  1.0000
  C   C1197     1.0  0.73064  0.21798  0.55744  1.0000
  C   C1198     1.0  0.75800  0.20144  0.55056  1.0000
  C   C1199     1.0  0.77223  0.21031  0.53292  1.0000
  C   C1200     1.0  0.75902  0.23580  0.52198  1.0000
  C   C1201     1.0  0.73139  0.25207  0.52900  1.0000
  P   P39       1.0  0.77804  0.24900  0.49966  1.0000
  C   C1202     1.0  0.79917  0.28730  0.50327  1.0000
  C   C1203     1.0  0.80810  0.21982  0.49172  1.0000
  C   C1204     1.0  0.83883  0.21886  0.50064  1.0000
  C   C1205     1.0  0.86260  0.19707  0.49423  1.0000
  C   C1206     1.0  0.85590  0.17614  0.47884  1.0000
  C   C1207     1.0  0.82540  0.17692  0.46990  1.0000
  C   C1208     1.0  0.80151  0.19853  0.47634  1.0000
  C   C1209     1.0  0.82397  0.29697  0.49041  1.0000
  C   C1210     1.0  0.84068  0.32632  0.49320  1.0000
  C   C1211     1.0  0.83281  0.34628  0.50878  1.0000
  C   C1212     1.0  0.80859  0.33668  0.52180  1.0000
  C   C1213     1.0  0.79173  0.30743  0.51905  1.0000
  C   C1214     1.0  0.74819  0.25298  0.48060  1.0000
  C   C1215     1.0  0.71687  0.23913  0.48245  1.0000
  C   C1216     1.0  0.69499  0.23992  0.46700  1.0000
  C   C1217     1.0  0.70448  0.25356  0.44940  1.0000
  C   C1218     1.0  0.73572  0.26683  0.44733  1.0000
  C   C1219     1.0  0.75732  0.26694  0.46289  1.0000
  H   H964      1.0  0.69628  0.25639  0.55204  1.0000
  H   H965      1.0  0.71980  0.21140  0.57120  1.0000
  H   H966      1.0  0.76830  0.18188  0.55901  1.0000
  H   H967      1.0  0.79348  0.19727  0.52799  1.0000
  H   H968      1.0  0.72093  0.27193  0.52090  1.0000
  H   H969      1.0  0.84443  0.23514  0.51248  1.0000
  H   H970      1.0  0.88630  0.19655  0.50112  1.0000
  H   H971      1.0  0.87434  0.15936  0.47380  1.0000
  H   H972      1.0  0.82027  0.16095  0.45782  1.0000
  H   H973      1.0  0.77815  0.19873  0.46909  1.0000
  H   H974      1.0  0.83036  0.28203  0.47812  1.0000
  H   H975      1.0  0.85927  0.33401  0.48304  1.0000
  H   H976      1.0  0.84485  0.36962  0.51046  1.0000
  H   H977      1.0  0.80196  0.35253  0.53364  1.0000
  H   H978      1.0  0.77261  0.30125  0.52915  1.0000
  H   H979      1.0  0.70934  0.22715  0.49561  1.0000
  H   H980      1.0  0.67083  0.22943  0.46860  1.0000
  H   H981      1.0  0.68779  0.25359  0.43731  1.0000
  H   H982      1.0  0.74354  0.27662  0.43354  1.0000
  H   H983      1.0  0.78148  0.27702  0.46077  1.0000
  C   C1220     1.0  0.93035  0.29217  0.38613  1.0000
  H   H984      1.0  0.96432  0.15351  0.44616  1.0000
  H   H985      1.0  0.61252  0.36725  0.50687  1.0000
  C   C1221     1.0  0.55207  0.27836  0.62268  1.0000
  C   C1222     1.0  0.96815  0.28806  0.35007  1.0000
  S   S165      1.0  0.88518  0.03032  0.34196  1.0000
  C   C1223     1.0  0.55728  0.19819  0.60154  1.0000
  C   C1224     1.0  0.58315  0.21457  0.59253  1.0000
  C   C1225     1.0  0.59095  0.20811  0.57332  1.0000
  H   H986      1.0  0.60108  0.20306  0.65727  1.0000
  H   H987      1.0  0.66224  0.38995  0.66388  1.0000
  H   H988      1.0  0.95213  0.47311  0.62796  1.0000
  H   H989      1.0  0.56856  0.05284  0.59480  1.0000
  H   H990      1.0  0.56163  0.11076  0.60283  1.0000
  H   H991      1.0  0.55221  0.20316  0.61658  1.0000
  H   H992      1.0  0.59759  0.23214  0.60045  1.0000
  H   H993      1.0  0.61136  0.22069  0.56660  1.0000
  H   H994      1.0  0.56747  0.27981  0.60998  1.0000
  H   H995      1.0  0.53650  0.39284  0.65389  1.0000
  C   C1226     1.0  0.63380  0.08673  0.58176  1.0000
  C   C1227     1.0  0.85191  0.35471  0.61740  1.0000
  H   H996      1.0  0.92334  0.22603  0.39421  1.0000
  H   H997      1.0  0.79778  0.43936  0.59715  1.0000
  C   C1228     1.0  0.90316  0.28643  0.39798  1.0000
  C   C1229     1.0  0.54090  0.09698  0.59749  1.0000
  S   S166      1.0  0.51686  0.00517  0.63182  1.0000
  H   H998      1.0  0.64498  0.12058  0.63000  1.0000
  C   C1230     1.0  0.81036  0.42958  0.35256  1.0000
  H   H999      1.0  0.75937  0.33825  0.62445  1.0000
  C   C1231     1.0  0.95445  0.31424  0.39224  1.0000
  C   C1232     1.0  0.61933  0.01236  0.35941  1.0000
  H   H1000     1.0  0.86045  0.42318  0.62257  1.0000
  C   C1233     1.0  0.54453  0.28722  0.65704  1.0000
  C   C1234     1.0  0.92910  0.17947  0.38122  1.0000
  H   H1001     1.0  0.65730  0.07388  0.60846  1.0000
  H   H1002     1.0  0.90993  0.26733  0.65891  1.0000
  H   H1003     1.0  0.92204  0.24736  0.43649  1.0000
  H   H1004     1.0  0.67368  0.33114  0.66233  1.0000
  C   C1235     1.0  0.62163  0.04176  0.56026  1.0000
  C   C1236     1.0  0.62090  0.07508  0.56442  1.0000
  H   H1005     1.0  0.89831  0.33687  0.36327  1.0000
  H   H1006     1.0  0.80294  0.01738  0.60874  1.0000
  H   H1007     1.0  0.53247  0.15167  0.56354  1.0000
  S   S167      1.0  0.81319  0.02338  0.38279  1.0000
  H   H1008     1.0  0.61148  0.03346  0.54676  1.0000
  C   C1237     1.0  0.72658  0.07710  0.34853  1.0000
  C   C1238     1.0  0.56459  0.28732  0.64062  1.0000
  C   C1239     1.0  0.96929  0.31849  0.34088  1.0000
  Fe  Fe85      1.0  0.63514  0.01342  0.65326  1.0000
  C   C1240     1.0  0.63516  0.01978  0.57353  1.0000
  H   H1009     1.0  0.80692  0.41334  0.36473  1.0000
  C   C1241     1.0  0.71122  0.48372  0.40044  1.0000
  H   H1010     1.0  0.91626  0.19018  0.44694  1.0000
  H   H1011     1.0  0.88095  0.31149  0.64239  1.0000
  C   C1242     1.0  0.76748  0.11856  0.37002  1.0000
  C   C1243     1.0  0.75737  0.08878  0.37771  1.0000
  C   C1244     1.0  0.73705  0.06811  0.36705  1.0000
  H   H1012     1.0  0.93615  0.13585  0.36457  1.0000
  C   C1245     1.0  0.75418  0.46886  0.45354  1.0000
  H   H1013     1.0  0.93010  0.02004  0.38315  1.0000
  C   C1246     1.0  0.80372  0.35545  0.63770  1.0000
  Fe  Fe86      1.0  0.84584  0.05022  0.36143  1.0000
  C   C1247     1.0  0.53863  0.17550  0.59115  1.0000
  C   C1248     1.0  0.83329  0.34222  0.60218  1.0000
  C   C1249     1.0  0.50564  0.15877  0.62823  1.0000
  H   H1014     1.0  0.94130  0.22507  0.33277  1.0000
  C   C1250     1.0  0.87741  0.26913  0.33774  1.0000
  H   H1015     1.0  0.52166  0.02037  0.58286  1.0000
  H   H1016     1.0  0.50967  0.26323  0.60682  1.0000
  C   C1251     1.0  0.54506  0.06425  0.59275  1.0000
  P   P40       1.0  0.70243  0.04931  0.33403  1.0000
  H   H1017     1.0  0.87856  0.01502  0.40179  1.0000
  H   H1018     1.0  0.61038  0.09193  0.55420  1.0000
  C   C1252     1.0  0.59368  0.45475  0.45445  1.0000
  H   H1019     1.0  0.78404  0.13415  0.37803  1.0000
  H   H1020     1.0  0.76626  0.08109  0.39170  1.0000
  S   S168      1.0  0.82506  0.08298  0.33875  1.0000
  C   C1253     1.0  0.96685  0.17875  0.44190  1.0000
  C   C1254     1.0  0.93985  0.19933  0.44231  1.0000
  C   C1255     1.0  0.94315  0.23163  0.43639  1.0000
  S   S169      1.0  0.60226  0.13396  0.66283  1.0000
  C   C1256     1.0  0.85682  0.33281  0.34467  1.0000
  H   H1021     1.0  0.84459  0.33748  0.58834  1.0000
  C   C1257     1.0  0.93186  0.23035  0.36335  1.0000
  P   P41       1.0  0.93158  0.27437  0.36235  1.0000
  C   C1258     1.0  0.62447  0.45735  0.44559  1.0000
  C   C1259     1.0  0.99818  0.32931  0.33213  1.0000
  C   C1260     1.0  0.99647  0.26899  0.35054  1.0000
  H   H1022     1.0  0.57868  0.18053  0.54799  1.0000
  Fe  Fe87      1.0  0.60322  0.07857  0.66222  1.0000
  C   C1261     1.0  0.68729  0.49142  0.38671  1.0000
  C   C1262     1.0  0.52163  0.13660  0.64027  1.0000
  P   P42       1.0  0.50522  0.15378  0.60234  1.0000
  H   H1023     1.0  0.71637  0.50056  0.41202  1.0000
  C   C1263     1.0  0.69209  0.49657  0.45461  1.0000
  C   C1264     1.0  0.84604  0.46139  0.33201  1.0000
  C   C1265     1.0  0.83901  0.31279  0.33224  1.0000
  H   H1024     1.0  0.56368  0.36985  0.68118  1.0000
  H   H1025     1.0  0.77438  0.33301  0.90695  1.0000
  Fe  Fe88      1.0  0.85367  0.42954  0.85780  1.0000
  S   S170      1.0  0.82382  0.39839  0.83781  1.0000
  Fe  Fe89      1.0  0.91714  0.39452  0.84837  1.0000
  S   S171      1.0  0.89165  0.36103  0.82766  1.0000
  S   S172      1.0  0.97253  0.38943  0.84943  1.0000
  Fe  Fe90      1.0  0.86520  0.40494  0.81669  1.0000
  S   S173      1.0  0.85541  0.40625  0.78423  1.0000
  Fe  Fe91      1.0  0.85241  0.35662  0.85012  1.0000
  S   S174      1.0  0.82917  0.30640  0.85296  1.0000
  S   S175      1.0  0.89334  0.43903  0.83582  1.0000
  S   S176      1.0  0.87965  0.38709  0.87172  1.0000
  Fe  Fe92      1.0  0.78305  0.09698  0.90572  1.0000
  S   S177      1.0  0.80862  0.06209  0.92537  1.0000
  S   S178      1.0  0.74596  0.08179  0.88297  1.0000
  Fe  Fe93      1.0  0.81738  0.15631  0.92275  1.0000
  S   S179      1.0  0.84456  0.12518  0.94392  1.0000
  S   S180      1.0  0.82799  0.21067  0.92524  1.0000
  Fe  Fe94      1.0  0.85382  0.09166  0.91896  1.0000
  S   S181      1.0  0.90539  0.07077  0.91769  1.0000
  Fe  Fe95      1.0  0.79737  0.09851  0.94877  1.0000
  S   S182      1.0  0.78317  0.07813  0.97842  1.0000
  S   S183      1.0  0.82926  0.12422  0.89747  1.0000
  S   S184      1.0  0.76918  0.13197  0.92937  1.0000
  C   C1266     1.0  0.97415  0.30035  0.82662  1.0000
  Fe  Fe96      1.0  0.59330  0.01983  0.68971  1.0000
  C   C1267     1.0  0.91023  0.17216  0.96002  1.0000
  S   S185      1.0  0.55886  0.05406  0.67465  1.0000
  C   C1268     1.0  0.86934  0.48871  0.73972  1.0000
  C   C1269     1.0  0.79684  0.42624  0.70088  1.0000
  H   H1026     1.0  0.65215  0.04889  0.98579  1.0000
  H   H1027     1.0  0.74337  0.13709  0.97782  1.0000
  C   C1270     1.0  0.81315  0.44519  0.68717  1.0000
  C   C1271     1.0  0.86177  0.43835  0.76742  1.0000
  H   H1028     1.0  0.88978  0.44728  0.91571  1.0000
  S   S186      1.0  0.83554  0.47004  0.87753  1.0000
  H   H1029     1.0  0.54570  0.22876  0.67569  1.0000
  C   C1272     1.0  0.91590  0.29387  0.68546  1.0000
  C   C1273     1.0  0.67140  0.06521  0.91971  1.0000
  H   H1030     1.0  0.83756  0.04463  0.88404  1.0000
  C   C1274     1.0  0.82933  0.28046  0.87336  1.0000
  C   C1275     1.0  0.81934  0.24796  0.87103  1.0000
  C   C1276     1.0  0.81908  0.22628  0.88673  1.0000
  C   C1277     1.0  0.82794  0.23718  0.90509  1.0000
  C   C1278     1.0  0.83733  0.26990  0.90752  1.0000
  C   C1279     1.0  0.83839  0.29140  0.89168  1.0000
  H   H1031     1.0  0.81173  0.23945  0.85699  1.0000
  H   H1032     1.0  0.81171  0.20123  0.88467  1.0000
  H   H1033     1.0  0.84417  0.27851  0.92169  1.0000
  H   H1034     1.0  0.84585  0.31644  0.89363  1.0000
  C   C1280     1.0  0.97311  0.05435  0.86541  1.0000
  C   C1281     1.0  0.94050  0.06382  0.86257  1.0000
  C   C1282     1.0  0.91939  0.06891  0.87839  1.0000
  C   C1283     1.0  0.93061  0.06425  0.89721  1.0000
  C   C1284     1.0  0.96296  0.05405  0.90003  1.0000
  C   C1285     1.0  0.98417  0.04923  0.88424  1.0000
  H   H1035     1.0  0.93165  0.06760  0.84806  1.0000
  H   H1036     1.0  0.89445  0.07627  0.87609  1.0000
  H   H1037     1.0  0.97163  0.04992  0.91453  1.0000
  C   C1286     1.0  0.98549  0.38697  0.88880  1.0000
  H   H1038     1.0  0.71092  0.06704  0.97042  1.0000
  H   H1039     1.0  0.99776  0.31901  0.89628  1.0000
  H   H1040     1.0  0.79944  0.45193  0.94880  1.0000
  C   C1287     1.0  0.70156  0.03661  0.86970  1.0000
  C   C1288     1.0  0.72527  0.04375  0.88373  1.0000
  C   C1289     1.0  0.73185  0.02061  0.89797  1.0000
  H   H1041     1.0  0.56857  0.17962  0.69044  1.0000
  H   H1042     1.0  0.69640  0.05427  0.85857  1.0000
  H   H1043     1.0  0.75005  0.02569  0.90883  1.0000
  H   H1044     1.0  0.96229  0.15930  0.90351  1.0000
  C   C1290     1.0  0.98679  0.15169  0.89987  1.0000
  C   C1291     1.0  0.97420  0.12636  0.82543  1.0000
  H   H1045     1.0  0.78174  0.46940  0.84974  1.0000
  C   C1292     1.0  0.57708  0.20335  0.69505  1.0000
  C   C1293     1.0  0.60205  0.20574  0.70865  1.0000
  C   C1294     1.0  0.61412  0.23628  0.71398  1.0000
  C   C1295     1.0  0.60155  0.26440  0.70549  1.0000
  C   C1296     1.0  0.57689  0.26214  0.69151  1.0000
  C   C1297     1.0  0.56438  0.23139  0.68658  1.0000
  P   P43       1.0  0.56104  0.29842  0.68030  1.0000
  C   C1298     1.0  0.53044  0.31656  0.69571  1.0000
  C   C1299     1.0  0.59376  0.32739  0.67642  1.0000
  H   H1046     1.0  0.63035  0.29105  0.66986  1.0000
  H   H1047     1.0  0.99690  0.38434  0.91918  1.0000
  H   H1048     1.0  0.66164  0.06454  0.90519  1.0000
  H   H1049     1.0  0.75305  0.41053  0.85371  1.0000
  H   H1050     1.0  0.97283  0.13218  0.93860  1.0000
  H   H1051     1.0  0.88697  0.16745  0.96699  1.0000
  H   H1052     1.0  0.75330  0.02493  0.95241  1.0000
  C   C1300     1.0  0.75714  0.09676  0.99571  1.0000
  C   C1301     1.0  0.97389  0.18371  0.84707  1.0000
  C   C1302     1.0  0.50466  0.33440  0.68772  1.0000
  H   H1053     1.0  0.76689  0.43139  0.88593  1.0000
  H   H1054     1.0  0.88661  0.34456  0.92687  1.0000
  H   H1055     1.0  0.51230  0.32801  0.74332  1.0000
  C   C1303     1.0  0.62515  0.31673  0.67126  1.0000
  H   H1056     1.0  0.51533  0.02455  0.70581  1.0000
  H   H1057     1.0  0.61248  0.18387  0.71475  1.0000
  H   H1058     1.0  0.63371  0.23811  0.72441  1.0000
  H   H1059     1.0  0.61148  0.28787  0.70959  1.0000
  C   C1304     1.0  0.61232  0.38335  0.67309  1.0000
  H   H1060     1.0  0.76219  0.31258  0.87437  1.0000
  H   H1061     1.0  0.98851  0.21601  0.89080  1.0000
  C   C1305     1.0  0.76735  0.34634  0.97250  1.0000
  H   H1062     1.0  0.78231  0.43783  0.71197  1.0000
  C   C1306     1.0  0.87418  0.36755  0.92522  1.0000
  C   C1307     1.0  0.58765  0.36089  0.67745  1.0000
  C   C1308     1.0  0.89217  0.39599  0.92193  1.0000
  H   H1063     1.0  0.97437  0.10372  0.81740  1.0000
  H   H1064     1.0  0.70836  0.11698  0.95109  1.0000
  C   C1309     1.0  0.89359  0.34825  0.68587  1.0000
  H   H1065     1.0  0.97011  0.12144  0.87660  1.0000
  C   C1310     1.0  0.87316  0.46900  0.77306  1.0000
  S   S187      1.0  0.89281  0.49829  0.66661  1.0000
  C   C1311     1.0  0.73336  0.44836  0.91907  1.0000
  H   H1066     1.0  0.74005  0.45273  0.80262  1.0000
  C   C1312     1.0  0.75688  0.39366  0.86547  1.0000
  H   H1067     1.0  0.98419  0.27078  0.87684  1.0000
  C   C1313     1.0  0.68458  0.09406  0.92696  1.0000
  H   H1068     1.0  0.79255  0.04883  0.86034  1.0000
  H   H1069     1.0  0.72056  0.43246  0.90919  1.0000
  C   C1314     1.0  0.00008  0.29507  0.90257  1.0000
  C   C1315     1.0  0.68589  0.03714  0.94933  1.0000
  S   S188      1.0  0.99928  0.05018  0.84510  1.0000
  H   H1070     1.0  0.95821  0.34505  0.81354  1.0000
  H   H1071     1.0  0.84637  0.40916  0.74323  1.0000
  C   C1316     1.0  0.81325  0.48952  0.81080  1.0000
  S   S189      1.0  0.63775  0.04712  0.67904  1.0000
  C   C1317     1.0  0.79065  0.46482  0.80693  1.0000
  C   C1318     1.0  0.69916  0.06627  0.95647  1.0000
  H   H1072     1.0  0.57050  0.12045  0.69845  1.0000
  C   C1319     1.0  0.80052  0.02517  0.86522  1.0000
  C   C1320     1.0  0.52122  0.08167  0.73091  1.0000
  H   H1073     1.0  0.97418  0.20587  0.85547  1.0000
  H   H1074     1.0  0.78696  0.37776  0.71106  1.0000
  C   C1321     1.0  0.69805  0.09466  0.94544  1.0000
  H   H1075     1.0  0.83879  0.48331  0.81190  1.0000
  C   C1322     1.0  0.53086  0.09744  0.71385  1.0000
  C   C1323     1.0  0.56272  0.10940  0.71186  1.0000
  C   C1324     1.0  0.58519  0.10554  0.72677  1.0000
  C   C1325     1.0  0.57568  0.09027  0.74389  1.0000
  C   C1326     1.0  0.54379  0.07852  0.74603  1.0000
  C   C1327     1.0  0.00071  0.28006  0.83026  1.0000
  C   C1328     1.0  0.79959  0.39242  0.70039  1.0000
  H   H1076     1.0  0.53282  0.12303  0.66938  1.0000
  C   C1329     1.0  0.75747  0.47201  0.80548  1.0000
  C   C1330     1.0  0.99772  0.38480  0.86999  1.0000
  H   H1077     1.0  0.66203  0.01484  0.92465  1.0000
  C   C1331     1.0  0.77753  0.45931  0.94134  1.0000
  H   H1078     1.0  0.85395  0.45317  0.71898  1.0000
  H   H1079     1.0  0.79902  0.44009  0.80488  1.0000
  H   H1080     1.0  0.61022  0.11358  0.72484  1.0000
  H   H1081     1.0  0.59337  0.08641  0.75525  1.0000
  H   H1082     1.0  0.53737  0.06612  0.75926  1.0000
  H   H1083     1.0  0.94011  0.25050  0.78353  1.0000
  C   C1332     1.0  0.99109  0.13023  0.88454  1.0000
  C   C1333     1.0  0.84193  0.42654  0.91969  1.0000
  C   C1334     1.0  0.79783  0.49087  0.87636  1.0000
  C   C1335     1.0  0.64979  0.33930  0.66697  1.0000
  S   S190      1.0  0.57790  0.01147  0.72121  1.0000
  H   H1084     1.0  0.75123  0.35100  0.84771  1.0000
  C   C1336     1.0  0.50992  0.32929  0.72778  1.0000
  C   C1337     1.0  0.83555  0.39655  0.67252  1.0000
  C   C1338     1.0  0.73752  0.33055  0.96942  1.0000
  H   H1085     1.0  0.88944  0.37080  0.69357  1.0000
  C   C1339     1.0  0.73286  0.35703  0.93834  1.0000
  C   C1340     1.0  0.76336  0.37202  0.94103  1.0000
  C   C1341     1.0  0.78010  0.36729  0.95844  1.0000
  P   P44       1.0  0.77967  0.39897  0.92286  1.0000
  C   C1342     1.0  0.82370  0.39825  0.92335  1.0000
  C   C1343     1.0  0.76953  0.38386  0.89918  1.0000
  C   C1344     1.0  0.76447  0.40545  0.88383  1.0000
  H   H1086     1.0  0.91856  0.39510  0.92104  1.0000
  C   C1345     1.0  0.75574  0.36018  0.86211  1.0000
  C   C1346     1.0  0.76184  0.33851  0.87717  1.0000
  C   C1347     1.0  0.76885  0.35024  0.89562  1.0000
  H   H1087     1.0  0.99710  0.25836  0.83885  1.0000
  C   C1348     1.0  0.87667  0.49406  0.75931  1.0000
  C   C1349     1.0  0.76268  0.43864  0.92778  1.0000
  C   C1350     1.0  0.82586  0.02281  0.87857  1.0000
  C   C1351     1.0  0.85490  0.43285  0.74780  1.0000
  C   C1352     1.0  0.81881  0.37759  0.68625  1.0000
  C   C1353     1.0  0.99537  0.23670  0.89949  1.0000
  H   H1088     1.0  0.68496  0.11577  0.91810  1.0000
  H   H1089     1.0  0.51431  0.24544  0.71611  1.0000
  C   C1354     1.0  0.72025  0.47900  0.92298  1.0000
  C   C1355     1.0  0.68720  0.00999  0.98896  1.0000
  H   H1090     1.0  0.71903  0.36125  0.92528  1.0000
  H   H1091     1.0  0.80310  0.37956  0.96110  1.0000
  H   H1092     1.0  0.55341  0.30206  0.72247  1.0000
  C   C1356     1.0  0.84007  0.36861  0.92581  1.0000
  H   H1093     1.0  0.78071  0.34221  0.98573  1.0000
  H   H1094     1.0  0.90631  0.22400  0.96292  1.0000
  C   C1357     1.0  0.67188  0.03688  0.93085  1.0000
  H   H1095     1.0  0.81109  0.47141  0.68759  1.0000
  H   H1096     1.0  0.60722  0.40916  0.67339  1.0000
  H   H1097     1.0  0.72785  0.31402  0.98021  1.0000
  C   C1358     1.0  0.87602  0.42542  0.91906  1.0000
  H   H1098     1.0  0.92863  0.27433  0.69268  1.0000
  C   C1359     1.0  0.76420  0.48986  0.94532  1.0000
  C   C1360     1.0  0.90430  0.20157  0.90240  1.0000
  C   C1361     1.0  0.90965  0.23470  0.90543  1.0000
  C   C1362     1.0  0.91479  0.25538  0.88973  1.0000
  C   C1363     1.0  0.91466  0.24297  0.87097  1.0000
  C   C1364     1.0  0.90819  0.20982  0.86772  1.0000
  C   C1365     1.0  0.90362  0.18914  0.88365  1.0000
  P   P45       1.0  0.90698  0.19321  0.84356  1.0000
  C   C1366     1.0  0.90455  0.22515  0.82560  1.0000
  C   C1367     1.0  0.94448  0.17133  0.83967  1.0000
  H   H1099     1.0  0.82066  0.35135  0.68605  1.0000
  H   H1100     1.0  0.87929  0.47332  0.78798  1.0000
  C   C1368     1.0  0.85896  0.45778  0.73400  1.0000
  H   H1101     1.0  0.55964  0.00588  0.76102  1.0000
  C   C1369     1.0  0.94498  0.14302  0.82835  1.0000
  C   C1370     1.0  0.92537  0.22520  0.80943  1.0000
  C   C1371     1.0  0.92394  0.25044  0.79591  1.0000
  C   C1372     1.0  0.90156  0.27565  0.79830  1.0000
  C   C1373     1.0  0.88060  0.27558  0.81419  1.0000
  C   C1374     1.0  0.88220  0.25059  0.82780  1.0000
  C   C1375     1.0  0.87152  0.16664  0.84248  1.0000
  C   C1376     1.0  0.87355  0.13439  0.84911  1.0000
  C   C1377     1.0  0.84587  0.11433  0.84941  1.0000
  C   C1378     1.0  0.81570  0.12647  0.84360  1.0000
  C   C1379     1.0  0.81336  0.15845  0.83703  1.0000
  C   C1380     1.0  0.84111  0.17841  0.83636  1.0000
  H   H1102     1.0  0.89921  0.18573  0.91457  1.0000
  H   H1103     1.0  0.90857  0.24450  0.91991  1.0000
  H   H1104     1.0  0.91820  0.28121  0.89209  1.0000
  H   H1105     1.0  0.91899  0.25957  0.85915  1.0000
  H   H1106     1.0  0.89884  0.16347  0.88173  1.0000
  C   C1381     1.0  0.66713  0.03517  0.99570  1.0000
  C   C1382     1.0  0.64333  0.37256  0.66777  1.0000
  C   C1383     1.0  0.74006  0.12527  0.99163  1.0000
  H   H1107     1.0  0.95020  0.29456  0.83239  1.0000
  H   H1108     1.0  0.92287  0.13360  0.82185  1.0000
  H   H1109     1.0  0.94275  0.20588  0.80715  1.0000
  C   C1384     1.0  0.53318  0.31457  0.71587  1.0000
  H   H1110     1.0  0.90037  0.29531  0.78790  1.0000
  H   H1111     1.0  0.86309  0.29503  0.81606  1.0000
  H   H1112     1.0  0.86612  0.25133  0.84018  1.0000
  H   H1113     1.0  0.89636  0.12487  0.85446  1.0000
  H   H1114     1.0  0.84755  0.08964  0.85472  1.0000
  H   H1115     1.0  0.79401  0.11128  0.84454  1.0000
  H   H1116     1.0  0.78985  0.16799  0.83277  1.0000
  H   H1117     1.0  0.83830  0.20310  0.83145  1.0000
  C   C1385     1.0  0.77593  0.48634  0.86114  1.0000
  H   H1118     1.0  0.92003  0.12160  0.95443  1.0000
  H   H1119     1.0  0.95985  0.39179  0.89108  1.0000
  H   H1120     1.0  0.51404  0.09974  0.70193  1.0000
  C   C1386     1.0  0.91005  0.32304  0.69515  1.0000
  H   H1121     1.0  0.69694  0.32403  0.95006  1.0000
  C   C1387     1.0  0.96994  0.18467  0.94146  1.0000
  H   H1122     1.0  0.82648  0.34620  0.92781  1.0000
  C   C1388     1.0  0.95104  0.21040  0.94861  1.0000
  C   C1389     1.0  0.92123  0.20411  0.95777  1.0000
  H   H1123     1.0  0.82990  0.44935  0.91670  1.0000
  C   C1390     1.0  0.92895  0.14639  0.95305  1.0000
  C   C1391     1.0  0.95880  0.15255  0.94392  1.0000
  C   C1392     1.0  0.99251  0.26774  0.89153  1.0000
  H   H1124     1.0  0.95894  0.23537  0.94701  1.0000
  H   H1125     1.0  0.69819  0.48685  0.91577  1.0000
  C   C1393     1.0  0.72016  0.33610  0.95241  1.0000
  C   C1394     1.0  0.83227  0.43044  0.67295  1.0000
  C   C1395     1.0  0.68410  0.00697  0.87010  1.0000
  C   C1396     1.0  0.97854  0.32879  0.81591  1.0000
  H   H1126     1.0  0.91827  0.32622  0.70989  1.0000
  C   C1397     1.0  0.73573  0.49978  0.93603  1.0000
  H   H1127     1.0  0.89895  0.00535  0.69850  1.0000
  H   H1128     1.0  0.73005  0.50087  0.84862  1.0000
  C   C1398     1.0  0.00318  0.16737  0.84371  1.0000
  C   C1399     1.0  0.50357  0.16636  0.66846  1.0000
  C   C1400     1.0  0.00322  0.13842  0.83319  1.0000
  H   H1129     1.0  0.66561  0.00201  0.85937  1.0000
  C   C1401     1.0  0.90536  0.28993  0.66644  1.0000
  H   H1130     1.0  0.92748  0.39744  0.66796  1.0000
  C   C1402     1.0  0.88261  0.34439  0.66681  1.0000
  C   C1403     1.0  0.91578  0.69179  0.16133  1.0000
  H   H1131     1.0  0.58243  0.57354  0.28585  1.0000
  Fe  Fe97      1.0  0.77096  0.63500  0.06977  1.0000
  S   S191      1.0  0.75309  0.66406  0.09515  1.0000
  S   S192      1.0  0.74468  0.64713  0.04169  1.0000
  Fe  Fe98      1.0  0.82893  0.60840  0.09367  1.0000
  S   S193      1.0  0.81437  0.63562  0.12034  1.0000
  S   S194      1.0  0.87629  0.57937  0.09181  1.0000
  Fe  Fe99      1.0  0.76329  0.61895  0.11257  1.0000
  S   S195      1.0  0.72529  0.60255  0.13469  1.0000
  Fe  Fe100     1.0  0.80539  0.67793  0.10044  1.0000
  S   S196      1.0  0.82791  0.72881  0.10099  1.0000
  S   S197      1.0  0.77823  0.58905  0.08691  1.0000
  S   S198      1.0  0.82265  0.65137  0.07407  1.0000
  H   H1132     1.0  0.81749  0.54182  0.10560  1.0000
  Fe  Fe101     1.0  0.84893  0.88467  0.16691  1.0000
  S   S199      1.0  0.88046  0.90851  0.14428  1.0000
  S   S200      1.0  0.82129  0.83650  0.16672  1.0000
  Fe  Fe102     1.0  0.86265  0.93807  0.19728  1.0000
  S   S201      1.0  0.89570  0.96582  0.17708  1.0000
  S   S202      1.0  0.85134  0.94295  0.22941  1.0000
  Fe  Fe103     1.0  0.85731  0.95511  0.15462  1.0000
  Fe  Fe104     1.0  0.91643  0.91739  0.16819  1.0000
  S   S203      1.0  0.97128  0.90792  0.16818  1.0000
  S   S204      1.0  0.82281  0.93061  0.17536  1.0000
  S   S205      1.0  0.88632  0.89060  0.19011  1.0000
  C   C1404     1.0  0.51916  0.52191  0.21015  1.0000
  C   C1405     1.0  0.71120  0.56185  0.13679  1.0000
  C   C1406     1.0  0.68336  0.55514  0.14806  1.0000
  C   C1407     1.0  0.83873  0.64443  0.17888  1.0000
  C   C1408     1.0  0.63095  0.95649  0.14125  1.0000
  H   H1133     1.0  0.99202  0.82155  0.16797  1.0000
  C   C1409     1.0  0.72720  0.53614  0.12768  1.0000
  H   H1134     1.0  0.67069  0.57493  0.15503  1.0000
  C   C1410     1.0  0.76481  0.97791  0.07477  1.0000
  C   C1411     1.0  0.94191  0.80182  0.12177  1.0000
  H   H1135     1.0  0.74858  0.54092  0.11895  1.0000
  C   C1412     1.0  0.90509  0.57789  0.11094  1.0000
  C   C1413     1.0  0.89826  0.59102  0.12910  1.0000
  C   C1414     1.0  0.92152  0.58921  0.14399  1.0000
  C   C1415     1.0  0.95194  0.57432  0.14096  1.0000
  C   C1416     1.0  0.95895  0.56147  0.12276  1.0000
  C   C1417     1.0  0.93560  0.56319  0.10785  1.0000
  H   H1136     1.0  0.87487  0.60211  0.13178  1.0000
  H   H1137     1.0  0.91586  0.59929  0.15799  1.0000
  C   C1418     1.0  0.52573  0.60609  0.19320  1.0000
  H   H1138     1.0  0.94118  0.55297  0.09386  1.0000
  C   C1419     1.0  0.82668  0.75781  0.11980  1.0000
  C   C1420     1.0  0.81104  0.75150  0.13736  1.0000
  C   C1421     1.0  0.80998  0.77572  0.15172  1.0000
  C   C1422     1.0  0.82458  0.80630  0.14866  1.0000
  C   C1423     1.0  0.84036  0.81249  0.13117  1.0000
  C   C1424     1.0  0.84156  0.78829  0.11684  1.0000
  H   H1139     1.0  0.79948  0.72815  0.13977  1.0000
  H   H1140     1.0  0.79753  0.77084  0.16519  1.0000
  H   H1141     1.0  0.85098  0.83618  0.12857  1.0000
  H   H1142     1.0  0.85369  0.79335  0.10329  1.0000
  H   H1143     1.0  0.64957  0.51833  0.15836  1.0000
  H   H1144     1.0  0.57455  0.67428  0.30506  1.0000
  C   C1425     1.0  0.85566  0.97100  0.26524  1.0000
  C   C1426     1.0  0.85668  0.97647  0.24520  1.0000
  C   C1427     1.0  0.71271  0.97349  0.18887  1.0000
  P   P46       1.0  0.59942  0.98546  0.13555  1.0000
  H   H1145     1.0  0.98203  0.54958  0.12033  1.0000
  H   H1146     1.0  0.85296  0.94644  0.27060  1.0000
  Fe  Fe105     1.0  0.62115  0.55280  0.32172  1.0000
  P   P47       1.0  0.53888  0.55753  0.22012  1.0000
  C   C1428     1.0  0.65279  0.57034  0.09942  1.0000
  C   C1429     1.0  0.00190  0.58107  0.06317  1.0000
  C   C1430     1.0  0.65264  0.52437  0.04543  1.0000
  C   C1431     1.0  0.73595  0.59030  0.02032  1.0000
  C   C1432     1.0  0.73156  0.62394  0.02154  1.0000
  H   H1147     1.0  0.92370  0.83836  0.21370  1.0000
  H   H1148     1.0  0.74780  0.57753  0.03197  1.0000
  H   H1149     1.0  0.94796  0.72858  0.17234  1.0000
  C   C1433     1.0  0.72325  0.50312  0.19547  1.0000
  C   C1434     1.0  0.55217  0.66907  0.31285  1.0000
  C   C1435     1.0  0.62492  0.51052  0.27474  1.0000
  C   C1436     1.0  0.63021  0.58890  0.20417  1.0000
  C   C1437     1.0  0.95300  0.79354  0.10325  1.0000
  C   C1438     1.0  0.92966  0.82689  0.20008  1.0000
  C   C1439     1.0  0.67140  0.52310  0.15004  1.0000
  C   C1440     1.0  0.68845  0.94202  0.14136  1.0000
  H   H1150     1.0  0.95735  0.65105  0.12753  1.0000
  H   H1151     1.0  0.92852  0.98681  0.12333  1.0000
  H   H1152     1.0  0.58606  0.57465  0.25066  1.0000
  C   C1441     1.0  0.92167  0.82896  0.12406  1.0000
  H   H1153     1.0  0.70003  0.89522  0.15342  1.0000
  H   H1154     1.0  0.96901  0.77298  0.10130  1.0000
  H   H1155     1.0  0.89790  0.90682  0.05622  1.0000
  C   C1442     1.0  0.74495  0.97337  0.19542  1.0000
  C   C1443     1.0  0.92973  0.71791  0.07657  1.0000
  C   C1444     1.0  0.90360  0.69601  0.07735  1.0000
  C   C1445     1.0  0.90860  0.66440  0.08401  1.0000
  H   H1156     1.0  0.76785  0.58604  0.16541  1.0000
  H   H1157     1.0  0.61541  0.56144  0.04717  1.0000
  H   H1158     1.0  0.96504  0.96976  0.14971  1.0000
  H   H1159     1.0  0.66150  0.52256  0.25354  1.0000
  H   H1160     1.0  0.53840  0.62909  0.29451  1.0000
  H   H1161     1.0  0.94266  0.63008  0.09520  1.0000
  H   H1162     1.0  0.75758  0.95055  0.19757  1.0000
  C   C1446     1.0  0.62720  0.55017  0.01776  1.0000
  C   C1447     1.0  0.91256  0.84738  0.10799  1.0000
  C   C1448     1.0  0.85557  0.53653  0.19351  1.0000
  C   C1449     1.0  0.84334  0.61080  0.18006  1.0000
  C   C1450     1.0  0.93945  0.65472  0.09008  1.0000
  H   H1163     1.0  0.89413  0.78228  0.16459  1.0000
  H   H1164     1.0  0.76214  0.54647  0.30001  1.0000
  C   C1451     1.0  0.62356  0.92714  0.15067  1.0000
  C   C1452     1.0  0.84888  0.52554  0.21230  1.0000
  H   H1165     1.0  0.80462  0.95257  0.03243  1.0000
  H   H1166     1.0  0.92572  0.74238  0.07138  1.0000
  H   H1167     1.0  0.87939  0.70355  0.07294  1.0000
  H   H1168     1.0  0.88856  0.64727  0.08467  1.0000
  H   H1169     1.0  0.71260  0.66617  0.00707  1.0000
  H   H1170     1.0  0.88026  0.69232  0.11720  1.0000
  H   H1171     1.0  0.64335  0.61179  0.20344  1.0000
  H   H1172     1.0  0.92677  0.51788  0.22888  1.0000
  C   C1453     1.0  0.98099  0.65499  0.13400  1.0000
  P   P48       1.0  0.95464  0.77789  0.14224  1.0000
  C   C1454     1.0  0.51872  0.92737  0.12874  1.0000
  C   C1455     1.0  0.66372  0.96423  0.13720  1.0000
  C   C1456     1.0  0.54429  0.68723  0.32923  1.0000
  H   H1173     1.0  0.89685  0.86824  0.10981  1.0000
  C   C1457     1.0  0.91314  0.79537  0.17226  1.0000
  H   H1174     1.0  0.71359  0.94791  0.13787  1.0000
  C   C1458     1.0  0.98405  0.65106  0.15393  1.0000
  H   H1175     1.0  0.75580  0.59983  0.31565  1.0000
  C   C1459     1.0  0.67635  0.58700  0.06887  1.0000
  H   H1176     1.0  0.98916  0.88404  0.09926  1.0000
  C   C1460     1.0  0.97538  0.97759  0.13606  1.0000
  C   C1461     1.0  0.90579  0.80933  0.19010  1.0000
  S   S206      1.0  0.84470  0.99423  0.13279  1.0000
  C   C1462     1.0  0.58089  0.55838  0.21203  1.0000
  C   C1463     1.0  0.93397  0.72055  0.15997  1.0000
  C   C1464     1.0  0.51053  0.63433  0.18662  1.0000
  C   C1465     1.0  0.82746  0.53092  0.11845  1.0000
  C   C1466     1.0  0.64028  0.50778  0.25662  1.0000
  H   H1177     1.0  0.85835  0.66093  0.18265  1.0000
  C   C1467     1.0  0.53347  0.55423  0.28659  1.0000
  H   H1178     1.0  0.82405  0.52205  0.21721  1.0000
  C   C1468     1.0  0.75131  0.57782  0.32382  1.0000
  C   C1469     1.0  0.92369  0.83896  0.08961  1.0000
  H   H1179     1.0  0.64261  0.88234  0.16212  1.0000
  C   C1470     1.0  0.76682  0.54255  0.19963  1.0000
  C   C1471     1.0  0.55093  0.93894  0.12882  1.0000
  H   H1180     1.0  0.76039  0.64518  0.16281  1.0000
  C   C1472     1.0  0.55825  0.96957  0.13667  1.0000
  H   H1181     1.0  0.53390  0.80518  0.32437  1.0000
  H   H1182     1.0  0.59877  0.92133  0.15489  1.0000
  C   C1473     1.0  0.77953  0.99834  0.14290  1.0000
  H   H1183     1.0  0.91641  0.67757  0.17447  1.0000
  C   C1474     1.0  0.94400  0.81209  0.08724  1.0000
  H   H1184     1.0  0.95295  0.80575  0.07303  1.0000
  C   C1475     1.0  0.53194  0.64349  0.30700  1.0000
  C   C1476     1.0  0.53266  0.98903  0.14357  1.0000
  C   C1477     1.0  0.89577  0.69998  0.12899  1.0000
  S   S207      1.0  0.64158  0.53780  0.29216  1.0000
  C   C1478     1.0  0.88824  0.54057  0.18768  1.0000
  H   H1185     1.0  0.50510  0.75283  0.32889  1.0000
  C   C1479     1.0  0.64843  0.90509  0.15497  1.0000
  H   H1186     1.0  0.78381  0.97805  0.15244  1.0000
  H   H1187     1.0  0.95505  0.89975  0.12741  1.0000
  C   C1480     1.0  0.73625  0.53016  0.20500  1.0000
  H   H1188     1.0  0.78285  0.86813  0.07595  1.0000
  C   C1481     1.0  0.71613  0.64017  0.00624  1.0000
  C   C1482     1.0  0.93336  0.73925  0.14300  1.0000
  H   H1189     1.0  0.78389  0.87959  0.32159  1.0000
  C   C1483     1.0  0.67234  0.50622  0.03286  1.0000
  C   C1484     1.0  0.65683  0.60195  0.10645  1.0000
  C   C1485     1.0  0.67062  0.62601  0.09477  1.0000
  C   C1486     1.0  0.68022  0.61857  0.07597  1.0000
  H   H1190     1.0  0.57882  0.99230  0.17569  1.0000
  C   C1487     1.0  0.78460  0.52802  0.18460  1.0000
  H   H1191     1.0  0.65042  0.60753  0.12124  1.0000
  H   H1192     1.0  0.67461  0.65025  0.10043  1.0000
  H   H1193     1.0  0.69122  0.63721  0.06698  1.0000
  C   C1488     1.0  0.78344  0.63566  0.16793  1.0000
  C   C1489     1.0  0.66232  0.56259  0.08050  1.0000
  H   H1194     1.0  0.88297  0.65894  0.14663  1.0000
  H   H1195     1.0  0.89411  0.54884  0.17324  1.0000
  H   H1196     1.0  0.88124  0.80733  0.19590  1.0000
  C   C1490     1.0  0.96057  0.83139  0.19193  1.0000
  H   H1197     1.0  0.83210  0.91630  0.31992  1.0000
  C   C1491     1.0  0.96584  0.67653  0.08946  1.0000
  H   H1198     1.0  0.72241  0.54178  0.21638  1.0000
  C   C1492     1.0  0.59820  0.58795  0.21126  1.0000
  C   C1493     1.0  0.94463  0.79855  0.16439  1.0000
  C   C1494     1.0  0.74271  0.97017  0.30713  1.0000
  H   H1199     1.0  0.56999  0.92421  0.12252  1.0000
  H   H1200     1.0  0.71865  0.51112  0.24903  1.0000
  C   C1495     1.0  0.98062  0.89433  0.12936  1.0000
  C   C1496     1.0  0.89696  0.68131  0.14575  1.0000
  C   C1497     1.0  0.72498  0.51518  0.07623  1.0000
  C   C1498     1.0  0.78782  0.60207  0.16933  1.0000
  C   C1499     1.0  0.80890  0.65687  0.17267  1.0000
  C   C1500     1.0  0.64520  0.56036  0.19789  1.0000
  P   P49       1.0  0.65778  0.52166  0.07126  1.0000
  C   C1501     1.0  0.96809  0.81731  0.17413  1.0000
  C   C1502     1.0  0.62307  0.98387  0.09754  1.0000
  C   C1503     1.0  0.77381  0.98147  0.30207  1.0000
  H   H1201     1.0  0.80556  0.68291  0.17134  1.0000
  C   C1504     1.0  0.59644  0.52975  0.20613  1.0000
  S   S208      1.0  0.97942  0.57135  0.16069  1.0000
  H   H1202     1.0  0.77869  0.83202  0.10434  1.0000
  H   H1203     1.0  0.86929  0.51034  0.23949  1.0000
  C   C1505     1.0  0.72525  0.57326  0.00381  1.0000
  H   H1204     1.0  0.91665  0.85332  0.07724  1.0000
  H   H1205     1.0  0.80256  0.56341  0.13750  1.0000
  H   H1206     1.0  0.96319  0.64357  0.16246  1.0000
  H   H1207     1.0  0.72580  0.78421  0.31018  1.0000
  C   C1506     1.0  0.91368  0.72892  0.12759  1.0000
  H   H1208     1.0  0.68483  0.58180  0.05439  1.0000
  C   C1507     1.0  0.62836  0.53082  0.19896  1.0000
  H   H1209     1.0  0.97841  0.84662  0.19914  1.0000
  H   H1210     1.0  0.70036  0.95075  0.18579  1.0000
  H   H1211     1.0  0.91118  0.74342  0.11468  1.0000
  H   H1212     1.0  0.58693  0.61027  0.21608  1.0000
  H   H1213     1.0  0.66984  0.56112  0.19217  1.0000
  H   H1214     1.0  0.99150  0.57412  0.04942  1.0000
  C   C1508     1.0  0.89703  0.94765  0.07565  1.0000
  C   C1509     1.0  0.88269  0.92408  0.06381  1.0000
  C   C1510     1.0  0.84869  0.92228  0.06213  1.0000
  C   C1511     1.0  0.82885  0.94459  0.07196  1.0000
  C   C1512     1.0  0.84343  0.96791  0.08395  1.0000
  P   P50       1.0  0.78519  0.93939  0.07224  1.0000
  S   S209      1.0  0.58407  0.59219  0.32587  1.0000
  C   C1513     1.0  0.77058  0.92401  0.04948  1.0000
  C   C1514     1.0  0.78440  0.93549  0.03219  1.0000
  C   C1515     1.0  0.77186  0.92539  0.01441  1.0000
  C   C1516     1.0  0.74528  0.90398  0.01377  1.0000
  C   C1517     1.0  0.73101  0.89295  0.03092  1.0000
  C   C1518     1.0  0.74338  0.90318  0.04873  1.0000
  C   C1519     1.0  0.83329  0.52987  0.15326  1.0000
  C   C1520     1.0  0.68080  0.91238  0.15015  1.0000
  H   H1215     1.0  0.79071  0.96579  0.29449  1.0000
  H   H1216     1.0  0.85740  0.99243  0.29374  1.0000
  C   C1521     1.0  0.73453  0.97982  0.08422  1.0000
  C   C1522     1.0  0.77805  0.91264  0.09245  1.0000
  C   C1523     1.0  0.77598  0.92560  0.11115  1.0000
  C   C1524     1.0  0.77400  0.90500  0.12716  1.0000
  C   C1525     1.0  0.77445  0.87131  0.12465  1.0000
  C   C1526     1.0  0.77721  0.85819  0.10613  1.0000
  C   C1527     1.0  0.77929  0.87875  0.09008  1.0000
  C   C1528     1.0  0.90690  0.52305  0.21906  1.0000
  C   C1529     1.0  0.81942  0.54331  0.13660  1.0000
  H   H1217     1.0  0.67014  0.98743  0.13074  1.0000
  H   H1218     1.0  0.83790  0.90309  0.05352  1.0000
  C   C1530     1.0  0.87735  0.96954  0.08571  1.0000
  H   H1219     1.0  0.92331  0.94859  0.07729  1.0000
  C   C1531     1.0  0.75453  0.54746  0.31494  1.0000
  C   C1532     1.0  0.00188  0.99705  0.10072  1.0000
  H   H1220     1.0  0.71022  0.87655  0.03042  1.0000
  H   H1221     1.0  0.73149  0.89507  0.06186  1.0000
  H   H1222     1.0  0.54275  0.59362  0.18381  1.0000
  H   H1223     1.0  0.86683  0.60191  0.18464  1.0000
  C   C1533     1.0  0.66926  0.50998  0.01288  1.0000
  C   C1534     1.0  0.56165  0.56574  0.27741  1.0000
  H   H1224     1.0  0.72371  0.95854  0.09089  1.0000
  H   H1225     1.0  0.77708  0.95162  0.11340  1.0000
  H   H1226     1.0  0.77318  0.91510  0.14158  1.0000
  H   H1227     1.0  0.77362  0.85535  0.13710  1.0000
  C   C1535     1.0  0.64671  0.53190  0.00535  1.0000
  H   H1228     1.0  0.91292  0.83609  0.13818  1.0000
  C   C1536     1.0  0.81775  0.58929  0.17545  1.0000
  H   H1229     1.0  0.63992  0.50858  0.19422  1.0000
  C   C1537     1.0  0.99874  0.61302  0.06978  1.0000
  H   H1230     1.0  0.69712  0.98126  0.32084  1.0000
  C   C1538     1.0  0.96082  0.70821  0.08252  1.0000
  H   H1231     1.0  0.63722  0.96288  0.10159  1.0000
  C   C1539     1.0  0.00007  0.88563  0.11342  1.0000
  H   H1232     1.0  0.72141  0.98817  0.03191  1.0000
  H   H1233     1.0  0.73547  0.94553  0.30359  1.0000
  C   C1540     1.0  0.99440  0.89625  0.14775  1.0000
  H   H1234     1.0  0.64288  0.55215  0.10903  1.0000
  P   P51       1.0  0.82299  0.54567  0.17679  1.0000
  H   H1235     1.0  0.77637  0.56383  0.20694  1.0000
  C   C1541     1.0  0.96801  0.99674  0.10341  1.0000
  H   H1236     1.0  0.88812  0.98734  0.09533  1.0000
  H   H1237     1.0  0.98075  0.72540  0.08150  1.0000
  C   C1542     1.0  0.63013  0.54648  0.03773  1.0000
  H   H1238     1.0  0.51314  0.90369  0.12272  1.0000
  H   H1239     1.0  0.69094  0.82843  0.32303  1.0000
  H   H1240     1.0  0.73560  0.89609  0.00000  1.0000
  H   H1241     1.0  0.72674  0.54081  0.07282  1.0000
  C   C1543     1.0  0.91374  0.53393  0.20040  1.0000
  C   C1544     1.0  0.87450  0.51883  0.22501  1.0000
  H   H1242     1.0  0.93887  0.53724  0.19569  1.0000
  C   C1545     1.0  0.53724  0.55546  0.24613  1.0000
  C   C1546     1.0  0.50699  0.54359  0.27558  1.0000
  H   H1243     1.0  0.59037  0.50598  0.05821  1.0000
  C   C1547     1.0  0.51890  0.59395  0.21173  1.0000
  H   H1244     1.0  0.63974  0.98213  0.06803  1.0000
  C   C1548     1.0  0.62421  0.99437  0.07835  1.0000
  H   H1245     1.0  0.61043  0.56783  0.01184  1.0000
  C   C1549     1.0  0.99855  0.77328  0.14100  1.0000
  C   C1550     1.0  0.56364  0.56628  0.25730  1.0000
  H   H1246     1.0  0.71427  0.51083  0.28447  1.0000
  C   C1551     1.0  0.71561  0.50408  0.12996  1.0000
  H   H1247     1.0  0.53229  0.55325  0.30223  1.0000
  H   H1248     1.0  0.78263  0.93438  0.00112  1.0000
  C   C1552     1.0  0.95476  0.98708  0.12111  1.0000
  H   H1249     1.0  0.82856  0.98432  0.09241  1.0000
  H   H1250     1.0  0.77693  0.51042  0.07977  1.0000
  H   H1251     1.0  0.58411  0.50649  0.20709  1.0000
  C   C1553     1.0  0.70655  0.99288  0.00221  1.0000
  C   C1554     1.0  0.50875  0.54436  0.25543  1.0000
  H   H1252     1.0  0.51591  0.64352  0.17230  1.0000
  C   C1555     1.0  0.72412  0.78814  0.32560  1.0000
  H   H1253     1.0  0.72906  0.54735  0.00286  1.0000
  C   C1556     1.0  0.85809  0.99702  0.27839  1.0000
  H   H1254     1.0  0.98606  0.63056  0.06091  1.0000
  C   C1557     1.0  0.72108  0.99049  0.31702  1.0000
  H   H1255     1.0  0.00060  0.72819  0.15717  1.0000
  C   C1558     1.0  0.74794  0.51891  0.32536  1.0000
  C   C1559     1.0  0.85435  0.50315  0.15146  1.0000
  C   C1560     1.0  0.84953  0.50537  0.11672  1.0000
  C   C1561     1.0  0.60330  0.00001  0.11107  1.0000
  C   C1562     1.0  0.50440  0.63536  0.31792  1.0000
  C   C1563     1.0  0.62302  0.50209  0.08269  1.0000
  C   C1564     1.0  0.70599  0.00102  0.02182  1.0000
  Fe  Fe106     1.0  0.66275  0.82264  0.41097  1.0000
  S   S210      1.0  0.64158  0.85053  0.43588  1.0000
  S   S211      1.0  0.65770  0.76775  0.41362  1.0000
  Fe  Fe107     1.0  0.68813  0.88465  0.39185  1.0000
  S   S212      1.0  0.66807  0.91677  0.41509  1.0000
  S   S213      1.0  0.71768  0.90398  0.36657  1.0000
  Fe  Fe108     1.0  0.68810  0.87938  0.43554  1.0000
  S   S214      1.0  0.71696  0.89810  0.46120  1.0000
  Fe  Fe109     1.0  0.62338  0.88510  0.41325  1.0000
  S   S215      1.0  0.57182  0.90413  0.41669  1.0000
  S   S216      1.0  0.71097  0.84921  0.41233  1.0000
  S   S217      1.0  0.64155  0.85535  0.38834  1.0000
  Fe  Fe110     1.0  0.61785  0.61478  0.34758  1.0000
  S   S218      1.0  0.59639  0.58729  0.37261  1.0000
  S   S219      1.0  0.62530  0.66967  0.34502  1.0000
  Fe  Fe111     1.0  0.56464  0.56258  0.35060  1.0000
  Fe  Fe112     1.0  0.63334  0.54851  0.36512  1.0000
  H   H1256     1.0  0.76213  0.61682  0.57407  1.0000
  C   C1565     1.0  0.74171  0.76847  0.33828  1.0000
  H   H1257     1.0  0.61469  0.97114  0.37850  1.0000
  H   H1258     1.0  0.55242  0.64847  0.42953  1.0000
  Fe  Fe113     1.0  0.78735  0.82307  0.55917  1.0000
  S   S220      1.0  0.76671  0.79520  0.58426  1.0000
  S   S221      1.0  0.76318  0.80885  0.53077  1.0000
  Fe  Fe114     1.0  0.84203  0.85184  0.58469  1.0000
  S   S222      1.0  0.82475  0.82611  0.61134  1.0000
  S   S223      1.0  0.89000  0.87983  0.58319  1.0000
  Fe  Fe115     1.0  0.81824  0.78285  0.59202  1.0000
  S   S224      1.0  0.83965  0.73247  0.59496  1.0000
  Fe  Fe116     1.0  0.77455  0.84111  0.60130  1.0000
  S   S225      1.0  0.73359  0.85423  0.62203  1.0000
  S   S226      1.0  0.83850  0.80772  0.56582  1.0000
  S   S227      1.0  0.79202  0.87007  0.57570  1.0000
  C   C1566     1.0  0.65818  0.77842  0.51264  1.0000
  S   S228      1.0  0.87487  0.55893  0.63701  1.0000
  C   C1567     1.0  0.81954  0.69233  0.64733  1.0000
  H   H1259     1.0  0.78841  0.58729  0.64161  1.0000
  H   H1260     1.0  0.67412  0.96007  0.37887  1.0000
  C   C1568     1.0  0.65338  0.89474  0.50188  1.0000
  C   C1569     1.0  0.81985  0.94880  0.63446  1.0000
  C   C1570     1.0  0.65833  0.77624  0.47232  1.0000
  H   H1261     1.0  0.84629  0.87507  0.45741  1.0000
  H   H1262     1.0  0.95916  0.55132  0.61125  1.0000
  C   C1571     1.0  0.71961  0.89434  0.62614  1.0000
  C   C1572     1.0  0.73163  0.92088  0.61564  1.0000
  C   C1573     1.0  0.71945  0.95228  0.61922  1.0000
  C   C1574     1.0  0.69497  0.95742  0.63313  1.0000
  C   C1575     1.0  0.68319  0.93093  0.64373  1.0000
  C   C1576     1.0  0.69561  0.89958  0.64030  1.0000
  H   H1263     1.0  0.75036  0.91728  0.60485  1.0000
  H   H1264     1.0  0.63895  0.94541  0.46405  1.0000
  H   H1265     1.0  0.95212  0.97244  0.36586  1.0000
  C   C1577     1.0  0.74036  0.94116  0.55451  1.0000
  C   C1578     1.0  0.91870  0.88165  0.60234  1.0000
  C   C1579     1.0  0.91066  0.87179  0.62108  1.0000
  C   C1580     1.0  0.93317  0.87624  0.63620  1.0000
  C   C1581     1.0  0.96411  0.89006  0.63275  1.0000
  C   C1582     1.0  0.97266  0.89873  0.61390  1.0000
  C   C1583     1.0  0.94994  0.89475  0.59881  1.0000
  H   H1266     1.0  0.88677  0.86169  0.62406  1.0000
  C   C1584     1.0  0.67316  0.75259  0.50300  1.0000
  H   H1267     1.0  0.50513  0.83959  0.37800  1.0000
  H   H1268     1.0  0.95635  0.90254  0.58438  1.0000
  C   C1585     1.0  0.83505  0.70525  0.61440  1.0000
  C   C1586     1.0  0.82215  0.71489  0.63215  1.0000
  H   H1269     1.0  0.80451  0.85921  0.38090  1.0000
  C   C1587     1.0  0.83033  0.66022  0.64493  1.0000
  C   C1588     1.0  0.84303  0.65060  0.62711  1.0000
  C   C1589     1.0  0.84538  0.67307  0.61192  1.0000
  H   H1270     1.0  0.81441  0.73970  0.63421  1.0000
  H   H1271     1.0  0.82604  0.79759  0.66438  1.0000
  H   H1272     1.0  0.85145  0.62598  0.62511  1.0000
  H   H1273     1.0  0.85547  0.66552  0.59824  1.0000
  C   C1590     1.0  0.72995  0.87295  0.48033  1.0000
  C   C1591     1.0  0.74624  0.88703  0.49612  1.0000
  C   C1592     1.0  0.75716  0.86772  0.51157  1.0000
  C   C1593     1.0  0.75188  0.83414  0.51129  1.0000
  C   C1594     1.0  0.73572  0.82008  0.49546  1.0000
  C   C1595     1.0  0.72469  0.83938  0.48007  1.0000
  H   H1274     1.0  0.75050  0.91301  0.49636  1.0000
  H   H1275     1.0  0.76967  0.87875  0.52365  1.0000
  H   H1276     1.0  0.73152  0.79413  0.49518  1.0000
  H   H1277     1.0  0.71220  0.82832  0.46799  1.0000
  C   C1596     1.0  0.74395  0.93749  0.37095  1.0000
  C   C1597     1.0  0.76391  0.94964  0.35606  1.0000
  C   C1598     1.0  0.78517  0.97614  0.35930  1.0000
  C   C1599     1.0  0.66479  0.98030  0.37058  1.0000
  C   C1600     1.0  0.76614  0.97890  0.39227  1.0000
  C   C1601     1.0  0.74491  0.95253  0.38901  1.0000
  H   H1278     1.0  0.76286  0.93858  0.34197  1.0000
  C   C1602     1.0  0.88923  0.77503  0.63928  1.0000
  H   H1279     1.0  0.68494  0.73351  0.51115  1.0000
  H   H1280     1.0  0.72966  0.94363  0.40059  1.0000
  C   C1603     1.0  0.54668  0.90934  0.39617  1.0000
  C   C1604     1.0  0.55883  0.90525  0.37746  1.0000
  C   C1605     1.0  0.53823  0.90981  0.36146  1.0000
  H   H1281     1.0  0.89460  0.59251  0.56829  1.0000
  C   C1606     1.0  0.66559  0.67615  0.59798  1.0000
  H   H1282     1.0  0.89086  0.74139  0.34097  1.0000
  H   H1283     1.0  0.58417  0.89908  0.37528  1.0000
  H   H1284     1.0  0.54792  0.90713  0.34703  1.0000
  C   C1607     1.0  0.98402  0.55913  0.61384  1.0000
  C   C1608     1.0  0.64798  0.74108  0.39437  1.0000
  C   C1609     1.0  0.64278  0.75238  0.37561  1.0000
  C   C1610     1.0  0.63543  0.73024  0.36070  1.0000
  C   C1611     1.0  0.63321  0.69668  0.36440  1.0000
  C   C1612     1.0  0.63828  0.68544  0.38318  1.0000
  C   C1613     1.0  0.64563  0.70756  0.39807  1.0000
  H   H1285     1.0  0.64450  0.77810  0.37255  1.0000
  H   H1286     1.0  0.63159  0.73916  0.34621  1.0000
  H   H1287     1.0  0.63721  0.65966  0.38613  1.0000
  H   H1288     1.0  0.64980  0.69858  0.41252  1.0000
  H   H1289     1.0  0.56575  0.95869  0.62574  1.0000
  S   S229      1.0  0.97149  0.54991  0.65304  1.0000
  H   H1290     1.0  0.51846  0.59642  0.38579  1.0000
  C   C1614     1.0  0.73895  0.52110  0.34486  1.0000
  C   C1615     1.0  0.73960  0.77343  0.35830  1.0000
  C   C1616     1.0  0.71901  0.79779  0.36544  1.0000
  P   P52       1.0  0.76385  0.74900  0.37444  1.0000
  C   C1617     1.0  0.76652  0.76877  0.39772  1.0000
  C   C1618     1.0  0.74616  0.70882  0.37723  1.0000
  C   C1619     1.0  0.72358  0.69662  0.36379  1.0000
  C   C1620     1.0  0.71050  0.66535  0.36599  1.0000
  C   C1621     1.0  0.71919  0.64628  0.38181  1.0000
  C   C1622     1.0  0.74155  0.65821  0.39527  1.0000
  C   C1623     1.0  0.75510  0.68927  0.39297  1.0000
  C   C1624     1.0  0.74307  0.76211  0.41199  1.0000
  C   C1625     1.0  0.74443  0.77785  0.42986  1.0000
  C   C1626     1.0  0.76911  0.80055  0.43359  1.0000
  C   C1627     1.0  0.79243  0.80752  0.41942  1.0000
  C   C1628     1.0  0.79118  0.79174  0.40155  1.0000
  C   C1629     1.0  0.80440  0.74652  0.36418  1.0000
  C   C1630     1.0  0.75091  0.50262  0.45366  1.0000
  H   H1291     1.0  0.92633  0.86956  0.65073  1.0000
  C   C1631     1.0  0.82284  0.71798  0.36581  1.0000
  Fe  Fe117     1.0  0.91616  0.54513  0.65667  1.0000
  C   C1632     1.0  0.59686  0.96673  0.60109  1.0000
  C   C1633     1.0  0.51578  0.68025  0.33979  1.0000
  C   C1634     1.0  0.62339  0.95521  0.59026  1.0000
  H   H1292     1.0  0.71623  0.80162  0.38077  1.0000
  H   H1293     1.0  0.71546  0.71114  0.35174  1.0000
  C   C1635     1.0  0.79165  0.86688  0.35135  1.0000
  H   H1294     1.0  0.52867  0.76289  0.52034  1.0000
  H   H1295     1.0  0.74816  0.64342  0.40758  1.0000
  H   H1296     1.0  0.77238  0.69814  0.40356  1.0000
  H   H1297     1.0  0.72327  0.74521  0.40921  1.0000
  H   H1298     1.0  0.72573  0.77309  0.44059  1.0000
  H   H1299     1.0  0.76968  0.81328  0.44729  1.0000
  H   H1300     1.0  0.81117  0.82554  0.42222  1.0000
  H   H1301     1.0  0.80928  0.79783  0.39079  1.0000
  C   C1636     1.0  0.75773  0.63111  0.60403  1.0000
  P   P53       1.0  0.50468  0.70521  0.36026  1.0000
  C   C1637     1.0  0.67330  0.75154  0.48285  1.0000
  C   C1638     1.0  0.84585  0.90840  0.34952  1.0000
  H   H1302     1.0  0.52277  0.85024  0.40953  1.0000
  H   H1303     1.0  0.59228  0.90756  0.45984  1.0000
  C   C1639     1.0  0.88525  0.93647  0.38659  1.0000
  H   H1304     1.0  0.86632  0.92503  0.34852  1.0000
  P   P54       1.0  0.86416  0.89775  0.38788  1.0000
  C   C1640     1.0  0.89353  0.86515  0.38884  1.0000
  C   C1641     1.0  0.84034  0.89608  0.40987  1.0000
  C   C1642     1.0  0.85422  0.88492  0.42716  1.0000
  C   C1643     1.0  0.83554  0.88358  0.44408  1.0000
  C   C1644     1.0  0.80299  0.89349  0.44388  1.0000
  C   C1645     1.0  0.78916  0.90501  0.42683  1.0000
  C   C1646     1.0  0.80783  0.90654  0.40995  1.0000
  C   C1647     1.0  0.92384  0.86992  0.39788  1.0000
  C   C1648     1.0  0.56822  0.95245  0.51765  1.0000
  H   H1305     1.0  0.58357  0.64278  0.39908  1.0000
  C   C1649     1.0  0.90833  0.80900  0.38245  1.0000
  C   C1650     1.0  0.88586  0.83440  0.38124  1.0000
  C   C1651     1.0  0.83840  0.89240  0.36691  1.0000
  H   H1306     1.0  0.76474  0.93233  0.55151  1.0000
  C   C1652     1.0  0.52552  0.84531  0.52373  1.0000
  H   H1307     1.0  0.75873  0.63770  0.63512  1.0000
  H   H1308     1.0  0.56669  0.87762  0.52132  1.0000
  C   C1653     1.0  0.60884  0.90440  0.47190  1.0000
  C   C1654     1.0  0.82727  0.93984  0.60010  1.0000
  H   H1309     1.0  0.57857  0.83257  0.41677  1.0000
  C   C1655     1.0  0.55862  0.81530  0.41784  1.0000
  P   P55       1.0  0.82555  0.93569  0.65905  1.0000
  H   H1310     1.0  0.92366  0.91930  0.36765  1.0000
  H   H1311     1.0  0.87943  0.87744  0.42773  1.0000
  S   S230      1.0  0.65683  0.57795  0.34156  1.0000
  H   H1312     1.0  0.78851  0.89261  0.45699  1.0000
  H   H1313     1.0  0.76397  0.91303  0.42678  1.0000
  H   H1314     1.0  0.79699  0.91604  0.39694  1.0000
  H   H1315     1.0  0.93008  0.89320  0.40424  1.0000
  C   C1656     1.0  0.60491  0.87805  0.48446  1.0000
  C   C1657     1.0  0.64351  0.80367  0.50215  1.0000
  S   S231      1.0  0.50930  0.55566  0.35153  1.0000
  C   C1658     1.0  0.78522  0.58233  0.59273  1.0000
  H   H1316     1.0  0.99619  0.90979  0.61108  1.0000
  C   C1659     1.0  0.57867  0.95256  0.55205  1.0000
  H   H1317     1.0  0.50405  0.92059  0.41311  1.0000
  H   H1318     1.0  0.71729  0.54266  0.45435  1.0000
  C   C1660     1.0  0.78647  0.99073  0.37751  1.0000
  H   H1319     1.0  0.70411  0.66458  0.63756  1.0000
  C   C1661     1.0  0.84879  0.77148  0.34596  1.0000
  C   C1662     1.0  0.71600  0.68797  0.63574  1.0000
  C   C1663     1.0  0.91296  0.65419  0.65130  1.0000
  C   C1664     1.0  0.78248  0.59378  0.62687  1.0000
  H   H1320     1.0  0.90228  0.78532  0.37661  1.0000
  C   C1665     1.0  0.93014  0.96976  0.37447  1.0000
  C   C1666     1.0  0.55818  0.94541  0.53648  1.0000
  C   C1667     1.0  0.51902  0.68592  0.38202  1.0000
  C   C1668     1.0  0.91257  0.78352  0.62546  1.0000
  C   C1669     1.0  0.92231  0.96026  0.65984  1.0000
  H   H1321     1.0  0.64515  0.58726  0.58351  1.0000
  P   P56       1.0  0.63626  0.97650  0.56875  1.0000
  H   H1322     1.0  0.77248  0.51794  0.45345  1.0000
  C   C1670     1.0  0.74765  0.68705  0.57749  1.0000
  C   C1671     1.0  0.51384  0.67625  0.41651  1.0000
  C   C1672     1.0  0.95598  0.77000  0.64793  1.0000
  C   C1673     1.0  0.91393  0.93977  0.37555  1.0000
  C   C1674     1.0  0.73293  0.69524  0.61863  1.0000
  C   C1675     1.0  0.78090  0.68594  0.57264  1.0000
  C   C1676     1.0  0.79307  0.70437  0.55725  1.0000
  C   C1677     1.0  0.77227  0.72438  0.54671  1.0000
  C   C1678     1.0  0.73917  0.72579  0.55145  1.0000
  C   C1679     1.0  0.72683  0.70719  0.56676  1.0000
  C   C1680     1.0  0.97283  0.60620  0.55375  1.0000
  C   C1681     1.0  0.82802  0.92822  0.61904  1.0000
  H   H1323     1.0  0.58935  0.77550  0.42627  1.0000
  C   C1682     1.0  0.65086  0.61216  0.58744  1.0000
  H   H1324     1.0  0.61358  0.68372  0.59782  1.0000
  H   H1325     1.0  0.75944  0.96244  0.65197  1.0000
  C   C1683     1.0  0.81115  0.87150  0.36765  1.0000
  S   S232      1.0  0.98949  0.89927  0.65275  1.0000
  C   C1684     1.0  0.62831  0.90975  0.61243  1.0000
  H   H1326     1.0  0.66471  0.93464  0.65467  1.0000
  H   H1327     1.0  0.83610  0.90357  0.62158  1.0000
  H   H1328     1.0  0.58510  0.86107  0.48191  1.0000
  C   C1685     1.0  0.57015  0.79506  0.51767  1.0000
  C   C1686     1.0  0.50525  0.91809  0.36399  1.0000
  H   H1329     1.0  0.79783  0.67200  0.58123  1.0000
  H   H1330     1.0  0.81899  0.70426  0.55411  1.0000
  H   H1331     1.0  0.78197  0.73954  0.53523  1.0000
  H   H1332     1.0  0.72343  0.74222  0.54362  1.0000
  H   H1333     1.0  0.70137  0.70945  0.57053  1.0000
  C   C1687     1.0  0.60188  0.92131  0.62309  1.0000
  H   H1334     1.0  0.76980  0.85197  0.35227  1.0000
  C   C1688     1.0  0.93859  0.81409  0.39125  1.0000
  C   C1689     1.0  0.51367  0.91741  0.39871  1.0000
  C   C1690     1.0  0.54526  0.75669  0.37184  1.0000
  C   C1691     1.0  0.99119  0.70220  0.66185  1.0000
  C   C1692     1.0  0.70439  0.81293  0.33281  1.0000
  H   H1335     1.0  0.67082  0.70101  0.60217  1.0000
  C   C1693     1.0  0.51474  0.81302  0.52346  1.0000
  C   C1694     1.0  0.93330  0.63135  0.64269  1.0000
  H   H1336     1.0  0.80608  0.99781  0.64230  1.0000
  H   H1337     1.0  0.69284  0.65622  0.35566  1.0000
  H   H1338     1.0  0.68506  0.73166  0.47536  1.0000
  C   C1695     1.0  0.92550  0.69241  0.62567  1.0000
  C   C1696     1.0  0.63927  0.92674  0.59618  1.0000
  C   C1697     1.0  0.79234  0.57372  0.61174  1.0000
  C   C1698     1.0  0.54320  0.65915  0.41636  1.0000
  H   H1339     1.0  0.71820  0.84320  0.55871  1.0000
  H   H1340     1.0  0.81790  0.98076  0.58166  1.0000
  H   H1341     1.0  0.57030  0.94699  0.56649  1.0000
  H   H1342     1.0  0.72923  0.97275  0.61127  1.0000
  H   H1343     1.0  0.80060  0.98516  0.34779  1.0000
  H   H1344     1.0  0.97601  0.57266  0.46872  1.0000
  H   H1345     1.0  0.89059  0.93102  0.64239  1.0000
  H   H1346     1.0  0.71673  0.90368  0.53799  1.0000
  P   P57       1.0  0.62383  0.83704  0.51453  1.0000
  C   C1699     1.0  0.74802  0.72579  0.61664  1.0000
  H   H1347     1.0  0.67172  0.89083  0.51278  1.0000
  H   H1348     1.0  0.66109  0.92244  0.54549  1.0000
  C   C1700     1.0  0.52044  0.76217  0.34034  1.0000
  H   H1349     1.0  0.58702  0.77525  0.51547  1.0000
  H   H1350     1.0  0.70829  0.62238  0.38368  1.0000
  H   H1351     1.0  0.50822  0.86472  0.52614  1.0000
  H   H1352     1.0  0.59391  0.90858  0.63597  1.0000
  H   H1353     1.0  0.80959  0.69985  0.66108  1.0000
  H   H1354     1.0  0.67797  0.93727  0.49083  1.0000
  H   H1355     1.0  0.68676  0.83714  0.35818  1.0000
  C   C1701     1.0  0.91847  0.60390  0.56739  1.0000
  C   C1702     1.0  0.94187  0.59187  0.55460  1.0000
  H   H1356     1.0  0.80403  0.79563  0.35284  1.0000
  H   H1357     1.0  0.98243  0.51661  0.45613  1.0000
  C   C1703     1.0  0.95714  0.64470  0.57869  1.0000
  C   C1704     1.0  0.92600  0.63025  0.57935  1.0000
  P   P58       1.0  0.96681  0.67831  0.59454  1.0000
  C   C1705     1.0  0.95166  0.71591  0.58447  1.0000
  C   C1706     1.0  0.94652  0.66973  0.61715  1.0000
  H   H1358     1.0  0.60331  0.50533  0.40748  1.0000
  H   H1359     1.0  0.99137  0.59643  0.54425  1.0000
  H   H1360     1.0  0.65840  0.77546  0.45667  1.0000
  C   C1707     1.0  0.56068  0.65577  0.39917  1.0000
  C   C1708     1.0  0.94983  0.63898  0.62564  1.0000
  C   C1709     1.0  0.96909  0.74514  0.58695  1.0000
  C   C1710     1.0  0.95696  0.77432  0.57956  1.0000
  C   C1711     1.0  0.92694  0.77474  0.57008  1.0000
  C   C1712     1.0  0.90921  0.74590  0.56782  1.0000
  C   C1713     1.0  0.92143  0.71661  0.57500  1.0000
  H   H1361     1.0  0.66039  0.91774  0.58852  1.0000
  H   H1362     1.0  0.66828  0.50775  0.45542  1.0000
  H   H1363     1.0  0.86257  0.82989  0.37445  1.0000
  C   C1714     1.0  0.71326  0.92501  0.54689  1.0000
  H   H1364     1.0  0.57024  0.82669  0.35001  1.0000
  H   H1365     1.0  0.64091  0.88803  0.61706  1.0000
  H   H1366     1.0  0.65822  0.77865  0.52825  1.0000
  H   H1367     1.0  0.93618  0.57113  0.54557  1.0000
  H   H1368     1.0  0.92109  0.71569  0.61899  1.0000
  H   H1369     1.0  0.57838  0.79513  0.38002  1.0000
  C   C1715     1.0  0.67715  0.96382  0.56246  1.0000
  H   H1370     1.0  0.58438  0.98883  0.59700  1.0000
  S   S233      1.0  0.59976  0.52111  0.34513  1.0000
  C   C1716     1.0  0.71986  0.51648  0.45421  1.0000
  C   C1717     1.0  0.55859  0.85252  0.52094  1.0000
  C   C1718     1.0  0.62572  0.63447  0.59026  1.0000
  H   H1371     1.0  0.54969  0.74320  0.38494  1.0000
  H   H1372     1.0  0.97042  0.79682  0.58161  1.0000
  H   H1373     1.0  0.91709  0.79753  0.56484  1.0000
  H   H1374     1.0  0.88545  0.74636  0.56098  1.0000
  H   H1375     1.0  0.90673  0.69484  0.57360  1.0000
  C   C1719     1.0  0.64343  0.80212  0.48192  1.0000
  C   C1720     1.0  0.56462  0.78320  0.42320  1.0000
  H   H1376     1.0  0.77653  0.88642  0.65123  1.0000
  C   C1721     1.0  0.63133  0.98651  0.37033  1.0000
  H   H1377     1.0  0.69186  0.83718  0.52696  1.0000
  H   H1378     1.0  0.71203  0.99441  0.36006  1.0000
  H   H1379     1.0  0.90769  0.63893  0.58936  1.0000
  C   C1722     1.0  0.53705  0.78793  0.52047  1.0000
  C   C1723     1.0  0.50694  0.77088  0.42011  1.0000
  C   C1724     1.0  0.58613  0.94971  0.61738  1.0000
  C   C1725     1.0  0.67297  0.85040  0.57398  1.0000
  C   C1726     1.0  0.63903  0.85240  0.57239  1.0000
  C   C1727     1.0  0.62399  0.84912  0.55439  1.0000
  H   H1380     1.0  0.60053  0.62688  0.58850  1.0000
  H   H1381     1.0  0.86357  0.77633  0.63569  1.0000
  Fe  Fe118     1.0  0.84959  0.51383  0.64851  1.0000
  C   C1728     1.0  0.64286  0.84349  0.53778  1.0000
  H   H1382     1.0  0.68470  0.85280  0.58795  1.0000
  H   H1383     1.0  0.62433  0.85614  0.58519  1.0000
  H   H1384     1.0  0.59770  0.85052  0.55363  1.0000
  H   H1385     1.0  0.68640  0.87924  0.64862  1.0000
  C   C1729     1.0  0.76795  0.61085  0.58887  1.0000
  C   C1730     1.0  0.67690  0.84168  0.53952  1.0000
  H   H1386     1.0  0.89954  0.64796  0.66430  1.0000
  H   H1387     1.0  0.63200  0.82085  0.47345  1.0000
  C   C1731     1.0  0.69187  0.84504  0.55752  1.0000
  C   C1732     1.0  0.82675  0.89191  0.66025  1.0000
  P   P59       1.0  0.73297  0.66644  0.59891  1.0000
  C   C1733     1.0  0.79847  0.87409  0.65585  1.0000
  H   H1388     1.0  0.54356  0.73615  0.42857  1.0000
  C   C1734     1.0  0.69106  0.65387  0.59516  1.0000
  C   C1735     1.0  0.80976  0.99244  0.61159  1.0000
  C   C1736     1.0  0.62733  0.87284  0.49948  1.0000
  H   H1389     1.0  0.96510  0.62082  0.61898  1.0000
  H   H1390     1.0  0.56276  0.66638  0.36887  1.0000
  H   H1391     1.0  0.83477  0.92423  0.58834  1.0000
  C   C1737     1.0  0.52416  0.74457  0.35756  1.0000
  C   C1738     1.0  0.72871  0.74151  0.64832  1.0000
  H   H1392     1.0  0.96327  0.78861  0.61899  1.0000
  C   C1739     1.0  0.65698  0.92128  0.48944  1.0000
  C   C1740     1.0  0.52690  0.82521  0.41356  1.0000
  C   C1741     1.0  0.54872  0.66911  0.38204  1.0000
  C   C1742     1.0  0.63506  0.92582  0.47428  1.0000
  C   C1743     1.0  0.74553  0.74896  0.63133  1.0000
  S   S234      1.0  0.66567  0.52844  0.38894  1.0000
  C   C1744     1.0  0.63309  0.66646  0.59552  1.0000
  C   C1745     1.0  0.56180  0.78616  0.36907  1.0000
  H   H1393     1.0  0.76189  0.73184  0.60384  1.0000
  C   C1746     1.0  0.58109  0.82747  0.51768  1.0000
  H   H1394     1.0  0.77624  0.82674  0.65385  1.0000
  C   C1747     1.0  0.98048  0.63244  0.56576  1.0000
  H   H1395     1.0  0.53438  0.93461  0.53905  1.0000
  H   H1396     1.0  0.90485  0.79190  0.61136  1.0000
  C   C1748     1.0  0.68340  0.62176  0.58986  1.0000
  C   C1749     1.0  0.91772  0.99670  0.38421  1.0000
  H   H1397     1.0  0.81328  0.69694  0.37332  1.0000
  H   H1398     1.0  0.75685  0.77267  0.62954  1.0000
  H   H1399     1.0  0.84959  0.96265  0.40372  1.0000
  C   C1750     1.0  0.79820  0.84022  0.65745  1.0000
  C   C1751     1.0  0.93230  0.76245  0.66194  1.0000
  C   C1752     1.0  0.99852  0.55961  0.47121  1.0000
  C   C1753     1.0  0.81772  0.77332  0.35426  1.0000
  H   H1400     1.0  0.70229  0.60388  0.58776  1.0000
  H   H1401     1.0  0.79287  0.56662  0.58104  1.0000
  C   C1754     1.0  0.70187  0.81771  0.35268  1.0000
  C   C1755     1.0  0.53877  0.76104  0.42444  1.0000
  H   H1402     1.0  0.80551  0.55148  0.61477  1.0000
  C   C1756     1.0  0.89906  0.76488  0.65760  1.0000
  C   C1757     1.0  0.76543  0.62245  0.62308  1.0000
  C   C1758     1.0  0.68177  0.93599  0.55101  1.0000
  C   C1759     1.0  0.87246  0.96393  0.39588  1.0000
  H   H1403     1.0  0.52153  0.55936  0.42218  1.0000
  C   C1760     1.0  0.89208  0.94692  0.65482  1.0000
  H   H1404     1.0  0.94386  0.95432  0.65146  1.0000
  C   C1761     1.0  0.81800  0.97182  0.59635  1.0000
  C   C1762     1.0  0.90884  0.68456  0.64270  1.0000
  C   C1763     1.0  0.55752  0.80376  0.35205  1.0000
  H   H1405     1.0  0.56091  0.70629  0.33377  1.0000
  H   H1406     1.0  0.72815  0.55281  0.36867  1.0000
  H   H1407     1.0  0.93597  0.60757  0.64912  1.0000
  C   C1764     1.0  0.94578  0.78119  0.62979  1.0000
  H   H1408     1.0  0.76697  0.99008  0.40639  1.0000
  C   C1765     1.0  0.73597  0.96841  0.56623  1.0000
  C   C1766     1.0  0.85396  0.71624  0.35752  1.0000
  H   H1409     1.0  0.89162  0.70141  0.64886  1.0000
  C   C1767     1.0  0.71413  0.71094  0.65057  1.0000
  C   C1768     1.0  0.82649  0.90344  0.33318  1.0000
  C   C1769     1.0  0.59873  0.96672  0.51437  1.0000
  C   C1770     1.0  0.81124  0.98116  0.63060  1.0000
  S   S235      1.0  0.68145  0.99758  0.63752  1.0000
  H   H1410     1.0  0.55233  0.94704  0.50557  1.0000
  C   C1771     1.0  0.53701  0.79166  0.33764  1.0000
  H   H1411     1.0  0.75703  0.74944  0.33247  1.0000
  C   C1772     1.0  0.60944  0.96684  0.54885  1.0000
  C   C1773     1.0  0.94631  0.84452  0.39898  1.0000
  C   C1774     1.0  0.99575  0.56085  0.63276  1.0000
  H   H1412     1.0  0.96527  0.70571  0.66050  1.0000
  H   H1413     1.0  0.99554  0.56543  0.58368  1.0000
  H   H1414     1.0  0.99172  0.74564  0.59491  1.0000
  C   C1775     1.0  0.82626  0.82386  0.66333  1.0000
  C   C1776     1.0  0.70454  0.97968  0.57024  1.0000
  H   H1415     1.0  0.60639  0.97247  0.49979  1.0000
  Fe  Fe119     1.0  0.85245  0.58351  0.66272  1.0000
  C   C1777     1.0  0.88883  0.99381  0.39481  1.0000
  C   C1778     1.0  0.61936  0.97373  0.52987  1.0000
  H   H1416     1.0  0.96971  0.84845  0.40589  1.0000
  H   H1417     1.0  0.95603  0.79443  0.39214  1.0000
  H   H1418     1.0  0.75692  0.98063  0.57243  1.0000
  H   H1419     1.0  0.64298  0.98478  0.52707  1.0000
  C   C1779     1.0  0.00208  0.52801  0.46416  1.0000
  C   C1780     1.0  0.73584  0.55143  0.35371  1.0000
  H   H1420     1.0  0.86797  0.69405  0.35870  1.0000
  C   C1781     1.0  0.86688  0.74292  0.34755  1.0000
  P   P60       1.0  0.99889  0.76896  0.65417  1.0000
  H   H1421     1.0  0.72704  0.75944  0.65972  1.0000
  H   H1422     1.0  0.73912  0.60328  0.34997  1.0000
  C   C1782     1.0  0.79944  0.88266  0.33409  1.0000
  H   H1423     1.0  0.85872  0.79215  0.33816  1.0000
  C   C1783     1.0  0.74197  0.57979  0.34319  1.0000
  H   H1424     1.0  0.70124  0.70509  0.66379  1.0000
  H   H1425     1.0  0.70189  0.00042  0.57965  1.0000
  C   C1784     1.0  0.68625  0.99982  0.35990  1.0000
  Fe  Fe120     1.0  0.67990  0.57951  0.89714  1.0000
  S   S236      1.0  0.65184  0.55352  0.92035  1.0000
  S   S237      1.0  0.70380  0.55119  0.87263  1.0000
  Fe  Fe121     1.0  0.66186  0.64650  0.91311  1.0000
  S   S238      1.0  0.63344  0.62487  0.93791  1.0000
  S   S239      1.0  0.66734  0.70180  0.91188  1.0000
  Fe  Fe122     1.0  0.67486  0.58955  0.94078  1.0000
  S   S240      1.0  0.69674  0.56718  0.96801  1.0000
  Fe  Fe123     1.0  0.61277  0.59084  0.91554  1.0000
  S   S241      1.0  0.55856  0.57840  0.91753  1.0000
  S   S242      1.0  0.70527  0.61347  0.91766  1.0000
  S   S243      1.0  0.63885  0.61451  0.89059  1.0000
  Fe  Fe124     1.0  0.61009  0.85768  0.85055  1.0000
  S   S244      1.0  0.59430  0.89054  0.87474  1.0000
  S   S245      1.0  0.61040  0.80195  0.85025  1.0000
  Fe  Fe125     1.0  0.61463  0.91512  0.82142  1.0000
  S   S246      1.0  0.59907  0.95188  0.84372  1.0000
  S   S247      1.0  0.63184  0.92332  0.79025  1.0000
  Fe  Fe126     1.0  0.63301  0.92551  0.86385  1.0000
  Fe  Fe127     1.0  0.56162  0.91410  0.85290  1.0000
  S   S248      1.0  0.65100  0.89073  0.84111  1.0000
  S   S249      1.0  0.57511  0.87942  0.82921  1.0000
  H   H1426     1.0  0.60595  0.73247  0.85348  1.0000
  Fe  Fe128     1.0  0.86955  0.52741  0.69044  1.0000
  H   H1427     1.0  0.63124  0.96391  0.72343  1.0000
  S   S250      1.0  0.89547  0.57333  0.68154  1.0000
  H   H1428     1.0  0.70970  0.95014  0.85093  1.0000
  H   H1429     1.0  0.75450  0.94241  0.78462  1.0000
  S   S251      1.0  0.87264  0.52178  0.72327  1.0000
  C   C1785     1.0  0.78406  0.98324  0.94968  1.0000
  H   H1430     1.0  0.67805  0.60606  0.79426  1.0000
  C   C1786     1.0  0.61647  0.94826  0.77134  1.0000
  C   C1787     1.0  0.84384  0.56886  0.79203  1.0000
  H   H1431     1.0  0.90270  0.61428  0.76955  1.0000
  H   H1432     1.0  0.76072  0.90480  0.95721  1.0000
  C   C1788     1.0  0.61988  0.96575  0.73748  1.0000
  C   C1789     1.0  0.63114  0.94654  0.75297  1.0000
  C   C1790     1.0  0.73885  0.72098  0.85681  1.0000
  C   C1791     1.0  0.56635  0.66771  0.90404  1.0000
  C   C1792     1.0  0.78990  0.51295  0.89109  1.0000
  H   H1433     1.0  0.56267  0.83842  0.89464  1.0000
  C   C1793     1.0  0.51322  0.67300  0.91902  1.0000
  C   C1794     1.0  0.72100  0.67649  0.87708  1.0000
  C   C1795     1.0  0.71515  0.63799  0.80618  1.0000
  H   H1434     1.0  0.69671  0.95797  0.78984  1.0000
  H   H1435     1.0  0.62200  0.76051  0.78310  1.0000
  C   C1796     1.0  0.65783  0.62884  0.83117  1.0000
  C   C1797     1.0  0.56075  0.78764  0.90155  1.0000
  H   H1436     1.0  0.64501  0.53543  0.98988  1.0000
  C   C1798     1.0  0.73902  0.52670  0.87513  1.0000
  C   C1799     1.0  0.76063  0.53075  0.89052  1.0000
  H   H1437     1.0  0.98574  0.65074  0.66724  1.0000
  C   C1800     1.0  0.65476  0.97361  0.95724  1.0000
  H   H1438     1.0  0.71483  0.58069  0.77053  1.0000
  H   H1439     1.0  0.75512  0.54804  0.90181  1.0000
  C   C1801     1.0  0.53374  0.57355  0.89685  1.0000
  H   H1440     1.0  0.53337  0.83224  0.78688  1.0000
  H   H1441     1.0  0.53439  0.58183  0.84796  1.0000
  C   C1802     1.0  0.66651  0.69042  0.80993  1.0000
  C   C1803     1.0  0.52519  0.57651  0.86223  1.0000
  C   C1804     1.0  0.54543  0.58087  0.87842  1.0000
  C   C1805     1.0  0.66724  0.59663  0.83475  1.0000
  H   H1442     1.0  0.61769  0.66278  0.83244  1.0000
  C   C1806     1.0  0.75659  0.60941  0.77874  1.0000
  H   H1443     1.0  0.57009  0.58982  0.87677  1.0000
  C   C1807     1.0  0.62519  0.77468  0.86805  1.0000
  C   C1808     1.0  0.64289  0.78544  0.88406  1.0000
  C   C1809     1.0  0.65541  0.76277  0.89736  1.0000
  C   C1810     1.0  0.65032  0.72917  0.89487  1.0000
  C   C1811     1.0  0.63231  0.71841  0.87897  1.0000
  C   C1812     1.0  0.61974  0.74109  0.86571  1.0000
  H   H1444     1.0  0.64710  0.81117  0.88612  1.0000
  H   H1445     1.0  0.66926  0.77130  0.90964  1.0000
  H   H1446     1.0  0.62834  0.69266  0.87682  1.0000
  C   C1813     1.0  0.83617  0.85132  0.84317  1.0000
  C   C1814     1.0  0.86406  0.86586  0.83528  1.0000
  C   C1815     1.0  0.86565  0.89961  0.83320  1.0000
  C   C1816     1.0  0.83940  0.91885  0.83906  1.0000
  C   C1817     1.0  0.81138  0.90447  0.84719  1.0000
  C   C1818     1.0  0.80986  0.87049  0.84905  1.0000
  P   P61       1.0  0.77757  0.92978  0.85446  1.0000
  C   C1819     1.0  0.75237  0.90849  0.87187  1.0000
  C   C1820     1.0  0.57943  0.98912  0.75864  1.0000
  H   H1447     1.0  0.55891  0.67449  0.93445  1.0000
  C   C1821     1.0  0.72658  0.98031  0.95825  1.0000
  C   C1822     1.0  0.63984  0.74311  0.81035  1.0000
  C   C1823     1.0  0.00272  0.67088  0.66566  1.0000
  H   H1448     1.0  0.72115  0.50961  0.80655  1.0000
  C   C1824     1.0  0.75365  0.91608  0.89161  1.0000
  C   C1825     1.0  0.73354  0.89956  0.90473  1.0000
  C   C1826     1.0  0.71205  0.87542  0.89829  1.0000
  C   C1827     1.0  0.71057  0.86779  0.87869  1.0000
  C   C1828     1.0  0.73051  0.88433  0.86553  1.0000
  H   H1449     1.0  0.97086  0.86397  0.69435  1.0000
  C   C1829     1.0  0.79228  0.94731  0.67476  1.0000
  H   H1450     1.0  0.79379  0.64127  0.78988  1.0000
  H   H1451     1.0  0.80560  0.54280  0.77669  1.0000
  H   H1452     1.0  0.81948  0.66837  0.83745  1.0000
  H   H1453     1.0  0.67469  0.96210  0.82295  1.0000
  H   H1454     1.0  0.83491  0.82514  0.84474  1.0000
  H   H1455     1.0  0.88444  0.85099  0.83075  1.0000
  H   H1456     1.0  0.88725  0.91093  0.82705  1.0000
  H   H1457     1.0  0.57912  0.97155  0.78814  1.0000
  H   H1458     1.0  0.78858  0.85864  0.85510  1.0000
  C   C1830     1.0  0.59992  0.95298  0.96320  1.0000
  H   H1459     1.0  0.65155  0.54876  0.84346  1.0000
  C   C1831     1.0  0.66051  0.68821  0.79003  1.0000
  H   H1460     1.0  0.52990  0.83301  0.86505  1.0000
  H   H1461     1.0  0.57631  0.79005  0.91409  1.0000
  H   H1462     1.0  0.85564  0.99063  0.89535  1.0000
  H   H1463     1.0  0.73379  0.90626  0.91980  1.0000
  H   H1464     1.0  0.69587  0.86325  0.90838  1.0000
  H   H1465     1.0  0.69330  0.84967  0.87361  1.0000
  H   H1466     1.0  0.72848  0.87859  0.85032  1.0000
  H   H1467     1.0  0.59385  0.56438  0.84768  1.0000
  C   C1832     1.0  0.55321  0.81491  0.89048  1.0000
  C   C1833     1.0  0.86330  0.58966  0.75513  1.0000
  H   H1468     1.0  0.78150  0.65407  0.86401  1.0000
  C   C1834     1.0  0.79062  0.63532  0.85453  1.0000
  C   C1835     1.0  0.88099  0.59943  0.77134  1.0000
  H   H1469     1.0  0.63196  0.76447  0.81823  1.0000
  H   H1470     1.0  0.65946  0.72011  0.83544  1.0000
  H   H1471     1.0  0.82299  0.56122  0.74459  1.0000
  C   C1836     1.0  0.87133  0.58910  0.78973  1.0000
  H   H1472     1.0  0.66821  0.66722  0.78187  1.0000
  C   C1837     1.0  0.89538  0.52828  0.81712  1.0000
  C   C1838     1.0  0.70897  0.67549  0.84282  1.0000
  S   S252      1.0  0.66812  0.94693  0.88620  1.0000
  H   H1473     1.0  0.64000  0.71163  0.76503  1.0000
  H   H1474     1.0  0.88586  0.59610  0.80209  1.0000
  C   C1839     1.0  0.92297  0.51638  0.82657  1.0000
  H   H1475     1.0  0.77589  0.50601  0.95558  1.0000
  H   H1476     1.0  0.57715  0.62178  0.84267  1.0000
  H   H1477     1.0  0.70821  0.93175  0.96394  1.0000
  C   C1840     1.0  0.59051  0.96974  0.77409  1.0000
  C   C1841     1.0  0.54723  0.67209  0.92051  1.0000
  H   H1478     1.0  0.76095  0.55371  0.81234  1.0000
  H   H1479     1.0  0.93961  0.75478  0.67624  1.0000
  H   H1480     1.0  0.87140  0.59652  0.74077  1.0000
  C   C1842     1.0  0.72538  0.70540  0.84074  1.0000
  H   H1481     1.0  0.94842  0.99108  0.67961  1.0000
  H   H1482     1.0  0.53051  0.78539  0.80873  1.0000
  C   C1843     1.0  0.65589  0.95528  0.94015  1.0000
  P   P62       1.0  0.68740  0.65814  0.82254  1.0000
  C   C1844     1.0  0.65565  0.71793  0.82005  1.0000
  H   H1483     1.0  0.89503  0.51894  0.87278  1.0000
  H   H1484     1.0  0.55532  0.73600  0.90457  1.0000
  C   C1845     1.0  0.76950  0.52894  0.81113  1.0000
  C   C1846     1.0  0.82072  0.96416  0.87800  1.0000
  C   C1847     1.0  0.62929  0.93606  0.93464  1.0000
  H   H1485     1.0  0.94410  0.50340  0.85393  1.0000
  H   H1486     1.0  0.72244  0.97360  0.99745  1.0000
  C   C1848     1.0  0.86792  0.53816  0.82776  1.0000
  P   P63       1.0  0.68839  0.00027  0.96346  1.0000
  C   C1849     1.0  0.83592  0.99231  0.88501  1.0000
  H   H1487     1.0  0.69370  0.63604  0.97811  1.0000
  C   C1850     1.0  0.78483  0.99715  0.85845  1.0000
  S   S253      1.0  0.50769  0.92632  0.85712  1.0000
  C   C1851     1.0  0.75435  0.99866  0.95332  1.0000
  H   H1488     1.0  0.71969  0.97348  0.90951  1.0000
  C   C1852     1.0  0.53435  0.81171  0.87377  1.0000
  H   H1489     1.0  0.69508  0.63777  0.86325  1.0000
  C   C1853     1.0  0.82446  0.61894  0.82756  1.0000
  C   C1854     1.0  0.62528  0.63789  0.83433  1.0000
  H   H1490     1.0  0.71885  0.66573  0.89126  1.0000
  H   H1491     1.0  0.65124  0.93005  0.75067  1.0000
  C   C1855     1.0  0.89558  0.52248  0.85728  1.0000
  H   H1492     1.0  0.88529  0.51773  0.76384  1.0000
  C   C1856     1.0  0.86807  0.53467  0.84790  1.0000
  C   C1857     1.0  0.78633  0.94944  0.95099  1.0000
  H   H1493     1.0  0.79001  0.93042  0.81236  1.0000
  C   C1858     1.0  0.51985  0.83404  0.80028  1.0000
  C   C1859     1.0  0.60131  0.93486  0.94616  1.0000
  C   C1860     1.0  0.76855  0.94866  0.70696  1.0000
  H   H1494     1.0  0.78714  0.55363  0.84844  1.0000
  C   C1861     1.0  0.92313  0.51361  0.84666  1.0000
  C   C1862     1.0  0.78130  0.60301  0.85744  1.0000
  C   C1863     1.0  0.70003  0.95551  0.82075  1.0000
  C   C1864     1.0  0.76856  0.63349  0.79108  1.0000
  C   C1865     1.0  0.54892  0.75715  0.89615  1.0000
  C   C1866     1.0  0.64409  0.57352  0.84051  1.0000
  C   C1867     1.0  0.71249  0.95320  0.80205  1.0000
  H   H1495     1.0  0.59271  0.66712  0.90528  1.0000
  H   H1496     1.0  0.72669  0.71728  0.82682  1.0000
  C   C1868     1.0  0.82623  0.55921  0.77561  1.0000
  C   C1869     1.0  0.73631  0.70668  0.87502  1.0000
  H   H1497     1.0  0.84099  0.94498  0.83723  1.0000
  H   H1498     1.0  0.75761  0.66662  0.81401  1.0000
  C   C1870     1.0  0.70739  0.66084  0.86110  1.0000
  C   C1871     1.0  0.85458  0.84144  0.66774  1.0000
  H   H1499     1.0  0.50678  0.66185  0.87041  1.0000
  C   C1872     1.0  0.70542  0.62316  0.98978  1.0000
  H   H1500     1.0  0.74564  0.71912  0.88766  1.0000
  C   C1873     1.0  0.63421  0.74086  0.79055  1.0000
  C   C1874     1.0  0.60221  0.61471  0.84017  1.0000
  C   C1875     1.0  0.83586  0.56976  0.75729  1.0000
  H   H1501     1.0  0.87642  0.82885  0.67226  1.0000
  C   C1876     1.0  0.52240  0.78110  0.86825  1.0000
  C   C1877     1.0  0.55147  0.66415  0.88606  1.0000
  H   H1502     1.0  0.54508  0.65732  0.81498  1.0000
  S   S254      1.0  0.82458  0.53958  0.67308  1.0000
  C   C1878     1.0  0.80287  0.52179  0.81290  1.0000
  H   H1503     1.0  0.71447  0.97649  0.67378  1.0000
  C   C1879     1.0  0.64442  0.71337  0.78041  1.0000
  H   H1504     1.0  0.84121  0.62576  0.81623  1.0000
  H   H1505     1.0  0.76928  0.93532  0.89689  1.0000
  C   C1880     1.0  0.98339  0.82248  0.67702  1.0000
  C   C1881     1.0  0.62644  0.97245  0.96869  1.0000
  H   H1506     1.0  0.80940  0.93764  0.94810  1.0000
  C   C1882     1.0  0.74794  0.64781  0.80474  1.0000
  H   H1507     1.0  0.56183  0.75561  0.83348  1.0000
  H   H1508     1.0  0.75039  0.74458  0.85526  1.0000
  C   C1883     1.0  0.61157  0.58244  0.84306  1.0000
  C   C1884     1.0  0.81538  0.58632  0.83045  1.0000
  C   C1885     1.0  0.59384  0.98712  0.74022  1.0000
  C   C1886     1.0  0.70998  0.58961  0.98845  1.0000
  C   C1887     1.0  0.72409  0.59934  0.78015  1.0000
  H   H1509     1.0  0.58057  0.92023  0.94172  1.0000
  C   C1888     1.0  0.72915  0.94635  0.95982  1.0000
  P   P64       1.0  0.83239  0.55420  0.81573  1.0000
  H   H1510     1.0  0.57805  0.95230  0.97201  1.0000
  C   C1889     1.0  0.81213  0.64330  0.83959  1.0000
  C   C1890     1.0  0.70338  0.61368  0.79371  1.0000
  C   C1891     1.0  0.98526  0.84200  0.69348  1.0000
  H   H1511     1.0  0.88091  0.75837  0.66833  1.0000
  H   H1512     1.0  0.63019  0.92266  0.92116  1.0000
  H   H1513     1.0  0.94387  0.50834  0.81828  1.0000
  H   H1514     1.0  0.72558  0.52358  0.93898  1.0000
  C   C1892     1.0  0.75251  0.93933  0.83381  1.0000
  C   C1893     1.0  0.55693  0.70640  0.82346  1.0000
  C   C1894     1.0  0.53593  0.67991  0.82089  1.0000
  C   C1895     1.0  0.71992  0.94862  0.83657  1.0000
  H   H1515     1.0  0.82914  0.94065  0.88287  1.0000
  C   C1896     1.0  0.52954  0.75391  0.87970  1.0000
  C   C1897     1.0  0.75892  0.93100  0.95614  1.0000
  H   H1516     1.0  0.67701  0.95638  0.93076  1.0000
  H   H1517     1.0  0.58241  0.70451  0.81953  1.0000
  C   C1898     1.0  0.76502  0.93741  0.81496  1.0000
  C   C1899     1.0  0.54511  0.73544  0.83117  1.0000
  C   C1900     1.0  0.71447  0.99098  0.89835  1.0000
  C   C1901     1.0  0.79386  0.57861  0.84558  1.0000
  H   H1518     1.0  0.69251  0.58932  0.83334  1.0000
  H   H1519     1.0  0.71956  0.96739  0.70896  1.0000
  C   C1902     1.0  0.73983  0.96171  0.69947  1.0000
  C   C1903     1.0  0.74500  0.94427  0.79916  1.0000
  S   S255      1.0  0.59285  0.98399  0.66500  1.0000
  H   H1520     1.0  0.77236  0.59882  0.76791  1.0000
  H   H1521     1.0  0.89545  0.52916  0.80152  1.0000
  C   C1904     1.0  0.69028  0.98409  0.88455  1.0000
  H   H1522     1.0  0.84542  0.98246  0.68964  1.0000
  H   H1523     1.0  0.84676  0.54053  0.85644  1.0000
  H   H1524     1.0  0.56642  0.66069  0.87334  1.0000
  H   H1525     1.0  0.76466  0.59669  0.86908  1.0000
  C   C1905     1.0  0.76287  0.95933  0.66729  1.0000
  H   H1526     1.0  0.80658  0.51649  0.90299  1.0000
  C   C1906     1.0  0.79500  0.96638  0.86468  1.0000
  H   H1527     1.0  0.96691  0.82946  0.66559  1.0000
  C   C1907     1.0  0.50437  0.86312  0.80508  1.0000
  C   C1908     1.0  0.51742  0.66454  0.88454  1.0000
  H   H1528     1.0  0.87679  0.88839  0.67025  1.0000
  H   H1529     1.0  0.62458  0.98673  0.98173  1.0000
  C   C1909     1.0  0.73697  0.96690  0.67965  1.0000
  H   H1530     1.0  0.50609  0.88387  0.79550  1.0000
  C   C1910     1.0  0.51852  0.80755  0.81293  1.0000
  H   H1531     1.0  0.80538  0.99767  0.94598  1.0000
  C   C1911     1.0  0.74665  0.50417  0.86056  1.0000
  H   H1532     1.0  0.51935  0.87941  0.88777  1.0000
  C   C1912     1.0  0.89700  0.98885  0.68638  1.0000
  H   H1533     1.0  0.81641  0.93043  0.70059  1.0000
  C   C1913     1.0  0.86666  0.97548  0.68141  1.0000
  H   H1534     1.0  0.77050  0.94405  0.72230  1.0000
  C   C1914     1.0  0.86414  0.95375  0.66585  1.0000
  C   C1915     1.0  0.79456  0.94120  0.69465  1.0000
  H   H1535     1.0  0.76484  0.99977  0.84840  1.0000
  H   H1536     1.0  0.52061  0.73012  0.87569  1.0000
  C   C1916     1.0  0.74689  0.50406  0.80762  1.0000
  C   C1917     1.0  0.92485  0.98102  0.67570  1.0000
  C   C1918     1.0  0.51195  0.73856  0.83592  1.0000
  C   C1919     1.0  0.85479  0.87537  0.66638  1.0000
  C   C1920     1.0  0.00314  0.79480  0.67518  1.0000
  S   S256      1.0  0.82846  0.63312  0.66462  1.0000
