data_image0
_chemical_formula_structural       FeSFeSCSFeC2HS2CH2C3HC2PCH2SCHC6H4C3H4CHCH3CS2C6HC2SCH9CHC7PC2HC8H8PC3HC3H3C6H2CHCHC3HC2H4CH2CH2FeCH2C2H3C2HCPC2HS2HCFeSCFeSFeS2FeSFeS3HC3H3C7H7C3HCHC3HC5HCH4CH2CHC2HCH2CH2CH3CH4C4HCHC3HCHCH2PCH2C2H2CHC6SCH2CHC2FeSHFeS2FeSFeS3C6H3C3HC2H2CHC6H3C4HC2H2CH2CHCH2CH2CHCH5CHCPFeH3C3HCH2C3H3SC2H2C2SHC5H2C2HC3H4C2PC4HC7HC4HCH3CH7C4H3C2H2CHC2H5C2HC6H2CHFeS2FeSC2SHS2C6H4CHC2HC3H2CSH2CHCHSC3PCH3C9H3C2SHC2H3C3HCHFeCH4CHCHCSCH3CHFeC3FeH3CH4C3H2CH2PC2HC2HC6PC4HCH2C7HCH2C2H3C5HPH2CHC3HCH2CFeCH2CHCH2C2PFeSFeS2FeCFeCS2FeCSFeS2C6H5FeHCHC4H3C2H3CH7SC4SH5CHC2HPC2HC15H2CH3C2H3CH5CH2CH2CHC2HC4H2CH4CSHCHCSCHCPSC3H2C2H2CFeHC2HCSCHCSC2H2CH4CHC3HFeS2CFeS3CHCSCH2CHC3FeCH3CH2CFeHC3H2C6H3CHC4PC15HC3HCH4SH5PC11H3CH8S2H3CH6CHC2HCHCHCH2SCHC2HC2HCFeHSC3HC4HSH2CSHCPFeSFeS2FeSFeS3CHCHC5HC6H4C6H4CH2C3SC4PC2HC9H2CHCHCFeH3CHCSH5C2HCH2C6HCH5C2PH2SH2C6HC5HCH3C6HPC2H2CH2CHCHC5FeH3SHC2H2CH5C3H2FeHFeS2CFeS2HC2HFeS2C8H5CHC3H3CHC6H2C3SHC3HCH3C2HCHSC2H3CHCSC2H3C2PH2CH3C5HC3HC7H2CFeH7PC2PCHC2H2CHC2SC2HCH2C2HCH5C2FeHC2FeC4HC3H4CHCH2C2HCHCFeS2FeCSHS2FeSCH2C7H4C3HC2H3CPCHCH3C7H4CH3C2HCHCHSCH3C2HC2H2CHSH2CFeC2HFeH2C2H2C2HCH3C2HCSC4H5CHSCH3FeS2FeS2FeSFeS3H2C4H3C4HCH2CHC2H3C3H2CHC4HCH2PHPC3H3C3HCH4C5H3C3H3CH2CH2CHC2HC2H2SC5HC3H2C13H9C3HCHC4H2C4FeSFeS2FeSFeS3C8HC9H2C4H2C2H3CHC3HC10HCSCH5C2HC2H4CH3SC4H3C2HC2H3CHC3H3C2H4CHC2HCH2CHC3PC4H2C3H5CH2C2HPC8HPC5H2CHC8H5CH2CH3CH2SHCFeS2CFeS2H2Fe2S2C6H4CH3C7H4CH2C2H2CHCHCPHCHCH2C4H3CHPH2C2H4C3SFeH2C4H4CHC2HCHCH7CH4C3H3CH2C6PC19H2SCSC3SHCH3SC
_chemical_formula_sum              "Fe64 S128 C960 H768 P32"
_cell_length_a       38.2042
_cell_length_b       38.7981
_cell_length_c       32.8327
_cell_angle_alpha    90.1834
_cell_angle_beta     90.1201
_cell_angle_gamma    90.37

_space_group_name_H-M_alt    "P 1"
_space_group_IT_number       1

loop_
  _space_group_symop_operation_xyz
  'x, y, z'

loop_
  _atom_site_type_symbol
  _atom_site_label
  _atom_site_symmetry_multiplicity
  _atom_site_fract_x
  _atom_site_fract_y
  _atom_site_fract_z
  _atom_site_occupancy
  Fe  Fe1       1.0  0.07801  0.27208  0.27688  1.0000
  S   S1        1.0  0.08364  0.24679  0.33775  1.0000
  Fe  Fe2       1.0  0.04880  0.20548  0.31217  1.0000
  S   S2        1.0  0.05303  0.15006  0.33179  1.0000
  C   C1        1.0  0.39629  0.31208  0.29617  1.0000
  S   S3        1.0  0.04631  0.22834  0.24969  1.0000
  Fe  Fe3       1.0  0.03456  0.27462  0.35487  1.0000
  C   C2        1.0  0.21117  0.18472  0.26262  1.0000
  C   C3        1.0  0.17816  0.20002  0.26217  1.0000
  H   H1        1.0  0.09923  0.29201  0.40528  1.0000
  S   S4        1.0  0.13513  0.02877  0.24582  1.0000
  S   S5        1.0  0.47723  0.27623  0.09506  1.0000
  C   C4        1.0  0.29322  0.31597  0.20451  1.0000
  H   H2        1.0  0.17118  0.21818  0.23847  1.0000
  H   H3        1.0  0.22193  0.10682  0.44791  1.0000
  C   C5        1.0  0.29315  0.17054  0.41030  1.0000
  C   C6        1.0  0.05382  0.02927  0.20416  1.0000
  C   C7        1.0  0.09017  0.19343  0.41609  1.0000
  H   H4        1.0  0.26645  0.17011  0.35305  1.0000
  C   C8        1.0  0.07044  0.23271  0.48330  1.0000
  C   C9        1.0  0.18864  0.04261  0.47587  1.0000
  P   P1        1.0  0.13163  0.27336  0.48283  1.0000
  C   C10       1.0  0.32273  0.31243  0.29468  1.0000
  H   H5        1.0  0.04067  0.16737  0.42285  1.0000
  H   H6        1.0  0.21532  0.04893  0.46786  1.0000
  S   S6        1.0  0.02888  0.29786  0.41786  1.0000
  C   C11       1.0  0.18566  0.22567  0.49327  1.0000
  H   H7        1.0  0.17207  0.15623  0.43072  1.0000
  C   C12       1.0  0.07626  0.11759  0.30619  1.0000
  C   C13       1.0  0.07691  0.08491  0.32393  1.0000
  C   C14       1.0  0.09508  0.05781  0.30555  1.0000
  C   C15       1.0  0.11284  0.06318  0.26903  1.0000
  C   C16       1.0  0.11230  0.09596  0.25093  1.0000
  C   C17       1.0  0.09395  0.12323  0.26950  1.0000
  H   H8        1.0  0.06357  0.08063  0.35245  1.0000
  H   H9        1.0  0.09532  0.03275  0.31975  1.0000
  H   H10       1.0  0.12589  0.10019  0.22251  1.0000
  H   H11       1.0  0.09332  0.14837  0.25542  1.0000
  C   C18       1.0  0.21968  0.16098  0.29302  1.0000
  C   C19       1.0  0.27105  0.27763  0.15209  1.0000
  C   C20       1.0  0.38150  0.30077  0.08819  1.0000
  H   H12       1.0  0.04181  0.08332  0.20867  1.0000
  H   H13       1.0  0.34977  0.21884  0.08418  1.0000
  H   H14       1.0  0.40334  0.31533  0.10075  1.0000
  H   H15       1.0  0.07595  0.03327  0.18409  1.0000
  C   C21       1.0  0.46328  0.29806  0.05087  1.0000
  H   H16       1.0  0.26837  0.12556  0.49445  1.0000
  C   C22       1.0  0.35143  0.24632  0.07873  1.0000
  H   H17       1.0  0.30423  0.24771  0.04316  1.0000
  H   H18       1.0  0.00997  0.05568  0.33575  1.0000
  H   H19       1.0  0.25593  0.00043  0.28298  1.0000
  C   C23       1.0  0.17950  0.31536  0.44115  1.0000
  S   S7        1.0  0.03139  0.30363  0.29589  1.0000
  S   S8        1.0  0.12945  0.28910  0.24877  1.0000
  C   C24       1.0  0.26798  0.13544  0.46357  1.0000
  C   C25       1.0  0.24139  0.12492  0.43700  1.0000
  C   C26       1.0  0.19691  0.25966  0.34301  1.0000
  C   C27       1.0  0.21387  0.24371  0.37552  1.0000
  C   C28       1.0  0.24977  0.24884  0.38139  1.0000
  C   C29       1.0  0.26901  0.26894  0.35394  1.0000
  H   H20       1.0  0.31049  0.31675  0.14225  1.0000
  C   C30       1.0  0.24905  0.27323  0.22104  1.0000
  C   C31       1.0  0.24864  0.26229  0.18040  1.0000
  S   S9        1.0  0.49008  0.29979  0.21059  1.0000
  C   C32       1.0  0.17106  0.01614  0.45466  1.0000
  H   H21       1.0  0.22925  0.27849  0.02246  1.0000
  H   H22       1.0  0.20192  0.29360  0.29195  1.0000
  H   H23       1.0  0.16888  0.25651  0.33885  1.0000
  H   H24       1.0  0.19911  0.22784  0.39650  1.0000
  H   H25       1.0  0.26257  0.23747  0.40750  1.0000
  H   H26       1.0  0.22731  0.18912  0.50116  1.0000
  H   H27       1.0  0.23217  0.26016  0.24233  1.0000
  H   H28       1.0  0.23105  0.24177  0.17087  1.0000
  H   H29       1.0  0.17406  0.21108  0.46871  1.0000
  C   C33       1.0  0.21587  0.28042  0.31611  1.0000
  H   H30       1.0  0.31471  0.16615  0.47083  1.0000
  C   C34       1.0  0.08728  0.32759  0.50374  1.0000
  C   C35       1.0  0.44414  0.28022  0.02076  1.0000
  C   C36       1.0  0.35597  0.31729  0.06490  1.0000
  C   C37       1.0  0.24713  0.02391  0.29768  1.0000
  C   C38       1.0  0.21018  0.07445  0.29812  1.0000
  C   C39       1.0  0.22261  0.08344  0.33706  1.0000
  C   C40       1.0  0.24650  0.06162  0.35668  1.0000
  P   P2        1.0  0.20637  0.12152  0.36249  1.0000
  C   C41       1.0  0.24014  0.13726  0.39683  1.0000
  C   C42       1.0  0.19556  0.15304  0.32394  1.0000
  H   H31       1.0  0.39975  0.25267  0.11233  1.0000
  C   C43       1.0  0.15359  0.19125  0.29182  1.0000
  C   C44       1.0  0.16217  0.16797  0.32264  1.0000
  C   C45       1.0  0.16799  0.11104  0.39212  1.0000
  C   C46       1.0  0.14857  0.08103  0.38404  1.0000
  C   C47       1.0  0.11911  0.07309  0.40746  1.0000
  C   C48       1.0  0.10880  0.09499  0.43899  1.0000
  C   C49       1.0  0.12824  0.12472  0.44757  1.0000
  C   C50       1.0  0.15744  0.13300  0.42387  1.0000
  H   H32       1.0  0.27089  0.26907  0.12068  1.0000
  H   H33       1.0  0.19026  0.08967  0.28317  1.0000
  H   H34       1.0  0.25535  0.06702  0.38736  1.0000
  H   H35       1.0  0.12752  0.20196  0.29030  1.0000
  H   H36       1.0  0.14219  0.16090  0.34437  1.0000
  H   H37       1.0  0.21253  0.03796  0.24865  1.0000
  H   H38       1.0  0.15597  0.06366  0.35975  1.0000
  H   H39       1.0  0.10448  0.04959  0.40137  1.0000
  P   P3        1.0  0.27592  0.31256  0.28641  1.0000
  C   C51       1.0  0.04817  0.20683  0.46850  1.0000
  C   C52       1.0  0.05803  0.18716  0.43485  1.0000
  C   C53       1.0  0.37942  0.26531  0.09486  1.0000
  H   H40       1.0  0.17974  0.28044  0.07034  1.0000
  C   C54       1.0  0.22275  0.04503  0.27837  1.0000
  C   C55       1.0  0.25231  0.28425  0.32046  1.0000
  C   C56       1.0  0.10284  0.23936  0.46442  1.0000
  H   H41       1.0  0.09760  0.17829  0.38988  1.0000
  H   H42       1.0  0.24479  0.14822  0.29188  1.0000
  H   H43       1.0  0.22987  0.19067  0.23888  1.0000
  C   C57       1.0  0.11233  0.21958  0.43043  1.0000
  C   C58       1.0  0.25878  0.03206  0.33692  1.0000
  C   C59       1.0  0.37765  0.28103  0.29354  1.0000
  C   C60       1.0  0.32589  0.26272  0.05527  1.0000
  C   C61       1.0  0.14636  0.29944  0.44047  1.0000
  C   C62       1.0  0.12485  0.30379  0.40626  1.0000
  H   H44       1.0  0.13639  0.22483  0.41433  1.0000
  H   H45       1.0  0.08628  0.08841  0.45742  1.0000
  C   C63       1.0  0.26632  0.16024  0.38370  1.0000
  H   H46       1.0  0.31352  0.18790  0.39981  1.0000
  C   C64       1.0  0.27141  0.30022  0.23348  1.0000
  H   H47       1.0  0.02313  0.20240  0.48310  1.0000
  C   C65       1.0  0.20139  0.29840  0.07381  1.0000
  C   C66       1.0  0.32857  0.29816  0.04713  1.0000
  C   C67       1.0  0.29391  0.15825  0.45026  1.0000
  H   H48       1.0  0.19662  0.31264  0.46720  1.0000
  C   C68       1.0  0.03474  0.05749  0.21821  1.0000
  C   C69       1.0  0.34101  0.28118  0.29255  1.0000
  H   H49       1.0  0.32697  0.25704  0.28869  1.0000
  H   H50       1.0  0.29666  0.27300  0.35943  1.0000
  H   H51       1.0  0.18405  0.32406  0.20541  1.0000
  H   H52       1.0  0.43788  0.25325  0.02504  1.0000
  C   C70       1.0  0.29330  0.30447  0.16417  1.0000
  H   H53       1.0  0.39172  0.25695  0.29104  1.0000
  H   H54       1.0  0.12076  0.14121  0.47277  1.0000
  C   C71       1.0  0.22938  0.29773  0.04638  1.0000
  H   H55       1.0  0.42470  0.31214  0.29565  1.0000
  H   H56       1.0  0.18408  0.00271  0.43017  1.0000
  Fe  Fe4       1.0  0.50531  0.30645  0.14476  1.0000
  C   C72       1.0  0.25734  0.32125  0.05055  1.0000
  H   H57       1.0  0.00692  0.29292  0.50183  1.0000
  H   H58       1.0  0.18019  0.32204  0.12786  1.0000
  C   C73       1.0  0.20161  0.32180  0.10623  1.0000
  C   C74       1.0  0.00702  0.05254  0.24527  1.0000
  H   H59       1.0  0.09387  0.01753  0.50581  1.0000
  H   H60       1.0  0.11950  0.32612  0.34650  1.0000
  H   H61       1.0  0.27667  0.01484  0.35233  1.0000
  C   C75       1.0  0.12032  0.02453  0.49738  1.0000
  C   C76       1.0  0.13664  0.00736  0.46492  1.0000
  H   H62       1.0  0.01708  0.12697  0.49983  1.0000
  C   C77       1.0  0.13625  0.32333  0.37304  1.0000
  P   P4        1.0  0.29497  0.31909  0.01755  1.0000
  C   C78       1.0  0.48103  0.27553  0.88799  1.0000
  C   C79       1.0  0.04721  0.13333  0.70075  1.0000
  H   H63       1.0  0.01863  0.14488  0.57214  1.0000
  S   S10       1.0  0.12205  0.08031  0.71467  1.0000
  S   S11       1.0  0.40338  0.30765  0.82958  1.0000
  H   H64       1.0  0.17970  0.05058  0.75964  1.0000
  C   C80       1.0  0.26613  0.25832  0.90126  1.0000
  Fe  Fe5       1.0  0.34515  0.29826  0.82631  1.0000
  S   S12       1.0  0.31911  0.24607  0.81630  1.0000
  C   C81       1.0  0.13767  0.05151  0.51811  1.0000
  Fe  Fe6       1.0  0.13787  0.12015  0.66852  1.0000
  S   S13       1.0  0.11277  0.11753  0.60662  1.0000
  Fe  Fe7       1.0  0.18660  0.17943  0.64672  1.0000
  S   S14       1.0  0.16511  0.18057  0.58308  1.0000
  S   S15       1.0  0.22867  0.22039  0.65603  1.0000
  Fe  Fe8       1.0  0.11239  0.17507  0.61170  1.0000
  S   S16       1.0  0.06838  0.20496  0.58327  1.0000
  Fe  Fe9       1.0  0.16778  0.12306  0.58383  1.0000
  S   S17       1.0  0.19439  0.09491  0.53192  1.0000
  S   S18       1.0  0.13329  0.17789  0.67566  1.0000
  S   S19       1.0  0.19299  0.12192  0.64556  1.0000
  H   H65       1.0  0.22701  0.27398  0.58530  1.0000
  C   C82       1.0  0.24476  0.28506  0.91488  1.0000
  C   C83       1.0  0.21623  0.21325  0.51140  1.0000
  C   C84       1.0  0.21595  0.26107  0.55885  1.0000
  H   H66       1.0  0.22351  0.26121  0.81182  1.0000
  H   H67       1.0  0.06519  0.15033  0.68538  1.0000
  H   H68       1.0  0.12463  0.06499  0.54250  1.0000
  C   C85       1.0  0.22274  0.28473  0.79417  1.0000
  C   C86       1.0  0.29436  0.23865  0.77146  1.0000
  C   C87       1.0  0.27084  0.21063  0.76968  1.0000
  C   C88       1.0  0.25026  0.20464  0.73463  1.0000
  C   C89       1.0  0.25363  0.22632  0.70089  1.0000
  C   C90       1.0  0.27768  0.25377  0.70238  1.0000
  C   C91       1.0  0.29771  0.26015  0.73760  1.0000
  H   H69       1.0  0.26824  0.19376  0.79568  1.0000
  H   H70       1.0  0.23193  0.18327  0.73366  1.0000
  H   H71       1.0  0.28081  0.27013  0.67607  1.0000
  H   H72       1.0  0.31606  0.28144  0.73835  1.0000
  H   H73       1.0  0.22128  0.29152  0.89810  1.0000
  H   H74       1.0  0.20352  0.03389  0.62013  1.0000
  H   H75       1.0  0.28387  0.17076  0.63166  1.0000
  C   C92       1.0  0.03231  0.21693  0.61318  1.0000
  C   C93       1.0  0.03337  0.21485  0.65565  1.0000
  C   C94       1.0  0.02823  0.10439  0.76200  1.0000
  H   H76       1.0  0.01890  0.12150  0.64614  1.0000
  C   C95       1.0  0.02116  0.11643  0.67844  1.0000
  H   H77       1.0  0.05723  0.20733  0.67073  1.0000
  C   C96       1.0  0.28824  0.12941  0.67491  1.0000
  C   C97       1.0  0.43298  0.29719  0.98520  1.0000
  C   C98       1.0  0.30624  0.26917  0.95717  1.0000
  H   H78       1.0  0.45353  0.28198  0.88994  1.0000
  C   C99       1.0  0.28432  0.29536  0.97178  1.0000
  C   C100      1.0  0.10647  0.29928  0.51785  1.0000
  C   C101      1.0  0.10207  0.28834  0.55830  1.0000
  C   C102      1.0  0.02074  0.05139  0.61504  1.0000
  C   C103      1.0  0.03494  0.04338  0.57698  1.0000
  H   H79       1.0  0.11933  0.00477  0.59546  1.0000
  C   C104      1.0  0.49563  0.25282  0.91612  1.0000
  H   H80       1.0  0.29499  0.14648  0.69999  1.0000
  H   H81       1.0  0.26732  0.13207  0.57423  1.0000
  H   H82       1.0  0.11494  0.26531  0.56921  1.0000
  H   H83       1.0  0.33088  0.26358  0.97195  1.0000
  C   C105      1.0  0.23121  0.23080  0.54441  1.0000
  H   H84       1.0  0.03135  0.09945  0.79424  1.0000
  H   H85       1.0  0.21901  0.06598  0.70341  1.0000
  C   C106      1.0  0.50202  0.29043  0.85792  1.0000
  H   H86       1.0  0.31421  0.23086  0.91032  1.0000
  C   C107      1.0  0.22055  0.04036  0.71621  1.0000
  C   C108      1.0  0.12205  0.03709  0.64878  1.0000
  H   H87       1.0  0.25384  0.22031  0.55991  1.0000
  C   C109      1.0  0.20265  0.28606  0.75861  1.0000
  H   H88       1.0  0.25946  0.24411  0.87380  1.0000
  H   H89       1.0  0.47927  0.24153  0.93957  1.0000
  C   C110      1.0  0.29697  0.25060  0.92216  1.0000
  H   H90       1.0  0.08017  0.02105  0.73804  1.0000
  H   H91       1.0  0.13978  0.05532  0.63491  1.0000
  C   C111      1.0  0.21753  0.01412  0.60351  1.0000
  H   H92       1.0  0.06255  0.03765  0.57430  1.0000
  H   H93       1.0  0.07176  0.13995  0.75929  1.0000
  H   H94       1.0  0.39380  0.00706  0.61439  1.0000
  C   C112      1.0  0.28218  0.14313  0.63626  1.0000
  H   H95       1.0  0.41846  0.28330  0.96202  1.0000
  H   H96       1.0  0.07454  0.29579  0.61472  1.0000
  H   H97       1.0  0.28974  0.08366  0.71147  1.0000
  H   H98       1.0  0.18816  0.31555  0.70646  1.0000
  C   C113      1.0  0.27514  0.07189  0.64916  1.0000
  C   C114      1.0  0.05083  0.12740  0.74245  1.0000
  C   C115      1.0  0.27303  0.12134  0.60391  1.0000
  C   C116      1.0  0.25402  0.30380  0.94975  1.0000
  H   H99       1.0  0.49054  0.30808  0.83618  1.0000
  C   C117      1.0  0.07895  0.30550  0.58420  1.0000
  H   H100      1.0  0.03786  0.05160  0.64142  1.0000
  C   C118      1.0  0.26965  0.08582  0.61020  1.0000
  C   C119      1.0  0.08908  0.01726  0.70710  1.0000
  C   C120      1.0  0.24393  0.01587  0.70061  1.0000
  H   H101      1.0  0.26212  0.06964  0.58468  1.0000
  C   C121      1.0  0.11049  0.04221  0.68868  1.0000
  H   H102      1.0  0.33243  0.02499  0.60438  1.0000
  C   C122      1.0  0.28497  0.09389  0.68132  1.0000
  H   H103      1.0  0.18795  0.26350  0.74876  1.0000
  H   H104      1.0  0.02471  0.03599  0.51309  1.0000
  P   P5        1.0  0.27180  0.02605  0.65792  1.0000
  C   C123      1.0  0.19798  0.03165  0.74807  1.0000
  H   H105      1.0  0.17441  0.29734  0.55194  1.0000
  H   H106      1.0  0.26007  0.31159  0.83227  1.0000
  C   C124      1.0  0.20289  0.31578  0.73462  1.0000
  C   C125      1.0  0.25158  0.00477  0.61490  1.0000
  H   H107      1.0  0.27765  0.32967  0.69050  1.0000
  H   H108      1.0  0.23753  0.32484  0.95966  1.0000
  C   C126      1.0  0.31640  0.01231  0.66577  1.0000
  H   H109      1.0  0.31070  0.00063  0.73007  1.0000
  C   C127      1.0  0.11091  0.00817  0.62663  1.0000
  C   C128      1.0  0.18571  0.27382  0.54035  1.0000
  C   C129      1.0  0.37534  0.00508  0.63933  1.0000
  C   C130      1.0  0.32807  0.00113  0.70412  1.0000
  C   C131      1.0  0.34055  0.01506  0.63372  1.0000
  C   C132      1.0  0.01357  0.04238  0.54247  1.0000
  S   S20       1.0  0.33509  0.32629  0.88542  1.0000
  C   C133      1.0  0.24322  0.31307  0.80574  1.0000
  H   H110      1.0  0.17510  0.00547  0.56150  1.0000
  H   H111      1.0  0.34125  0.33150  0.67752  1.0000
  C   C134      1.0  0.44159  0.33190  0.97940  1.0000
  H   H112      1.0  0.06169  0.24758  0.50916  1.0000
  C   C135      1.0  0.17180  0.06091  0.50707  1.0000
  C   C136      1.0  0.16998  0.25597  0.50772  1.0000
  Fe  Fe10      1.0  0.23729  0.48467  0.09271  1.0000
  S   S21       1.0  0.20731  0.51347  0.14043  1.0000
  H   H113      1.0  0.02399  0.37427  0.37370  1.0000
  Fe  Fe11      1.0  0.27753  0.44249  0.15456  1.0000
  S   S22       1.0  0.25190  0.46780  0.20809  1.0000
  S   S23       1.0  0.31268  0.39633  0.15314  1.0000
  Fe  Fe12      1.0  0.20216  0.46232  0.17215  1.0000
  S   S24       1.0  0.15134  0.44641  0.20209  1.0000
  Fe  Fe13      1.0  0.25906  0.51683  0.17274  1.0000
  S   S25       1.0  0.27331  0.56516  0.20732  1.0000
  S   S26       1.0  0.22713  0.43338  0.12122  1.0000
  S   S27       1.0  0.28982  0.49188  0.12242  1.0000
  C   C137      1.0  0.45757  0.58913  0.30484  1.0000
  C   C138      1.0  0.13152  0.62923  0.22734  1.0000
  C   C139      1.0  0.29895  0.59493  0.18011  1.0000
  C   C140      1.0  0.30797  0.58878  0.13957  1.0000
  C   C141      1.0  0.32982  0.61205  0.11894  1.0000
  C   C142      1.0  0.31112  0.62486  0.19962  1.0000
  H   H114      1.0  0.29805  0.56614  0.12423  1.0000
  H   H115      1.0  0.33704  0.60726  0.08768  1.0000
  H   H116      1.0  0.30465  0.62935  0.23115  1.0000
  C   C143      1.0  0.14480  0.40242  0.21350  1.0000
  C   C144      1.0  0.11486  0.39218  0.23506  1.0000
  C   C145      1.0  0.10971  0.35743  0.24573  1.0000
  H   H117      1.0  0.50299  0.63257  0.14152  1.0000
  C   C146      1.0  0.48582  0.65858  0.32630  1.0000
  C   C147      1.0  0.16944  0.37766  0.20233  1.0000
  H   H118      1.0  0.09567  0.41121  0.24374  1.0000
  H   H119      1.0  0.23099  0.36148  0.13732  1.0000
  C   C148      1.0  0.19808  0.62124  0.19351  1.0000
  H   H120      1.0  0.19256  0.38547  0.18586  1.0000
  C   C149      1.0  0.35289  0.39686  0.17896  1.0000
  C   C150      1.0  0.37791  0.37236  0.16817  1.0000
  C   C151      1.0  0.41023  0.37126  0.18828  1.0000
  C   C152      1.0  0.41743  0.39439  0.21990  1.0000
  C   C153      1.0  0.39227  0.41886  0.23112  1.0000
  C   C154      1.0  0.35993  0.42009  0.21060  1.0000
  H   H121      1.0  0.37218  0.35418  0.14416  1.0000
  H   H122      1.0  0.39774  0.43670  0.25573  1.0000
  H   H123      1.0  0.34032  0.43862  0.21948  1.0000
  C   C155      1.0  0.43504  0.53096  0.29424  1.0000
  C   C156      1.0  0.45943  0.55690  0.28549  1.0000
  C   C157      1.0  0.43265  0.66117  0.19481  1.0000
  C   C158      1.0  0.48619  0.63779  0.16731  1.0000
  H   H124      1.0  0.44579  0.66171  0.13130  1.0000
  C   C159      1.0  0.24050  0.37324  0.26733  1.0000
  C   C160      1.0  0.20544  0.55000  0.01770  1.0000
  H   H125      1.0  0.42933  0.35211  0.17969  1.0000
  H   H126      1.0  0.21724  0.64318  0.04643  1.0000
  C   C161      1.0  0.23064  0.65823  0.06962  1.0000
  H   H127      1.0  0.27915  0.36215  0.08767  1.0000
  H   H128      1.0  0.46793  0.44988  0.12762  1.0000
  C   C162      1.0  0.42969  0.59565  0.33156  1.0000
  H   H129      1.0  0.35044  0.45823  0.06409  1.0000
  C   C163      1.0  0.25874  0.35473  0.29706  1.0000
  H   H130      1.0  0.44333  0.40043  0.08990  1.0000
  H   H131      1.0  0.37727  0.53662  0.02676  1.0000
  C   C164      1.0  0.22985  0.34446  0.11120  1.0000
  H   H132      1.0  0.47582  0.62900  0.04131  1.0000
  H   H133      1.0  0.18901  0.65327  0.11291  1.0000
  C   C165      1.0  0.50564  0.47274  0.22885  1.0000
  H   H134      1.0  0.49430  0.62665  0.37928  1.0000
  C   C166      1.0  0.14523  0.59623  0.22170  1.0000
  H   H135      1.0  0.21043  0.41881  0.25459  1.0000
  H   H136      1.0  0.27586  0.35433  0.35991  1.0000
  H   H137      1.0  0.19647  0.54696  0.04870  1.0000
  H   H138      1.0  0.21650  0.34702  0.40851  1.0000
  H   H139      1.0  0.13016  0.57366  0.23042  1.0000
  C   C167      1.0  0.18464  0.65446  0.19932  1.0000
  H   H140      1.0  0.35780  0.34491  0.06099  1.0000
  C   C168      1.0  0.48707  0.50101  0.01027  1.0000
  P   P6        1.0  0.48798  0.62296  0.29092  1.0000
  Fe  Fe14      1.0  0.49561  0.35730  0.21403  1.0000
  H   H141      1.0  0.38370  0.57485  0.36081  1.0000
  H   H142      1.0  0.47957  0.55194  0.26336  1.0000
  H   H143      1.0  0.43673  0.50614  0.27906  1.0000
  C   C169      1.0  0.22848  0.41836  0.31654  1.0000
  C   C170      1.0  0.24704  0.40025  0.34618  1.0000
  C   C171      1.0  0.26193  0.36840  0.33657  1.0000
  H   H144      1.0  0.23856  0.64880  0.25353  1.0000
  C   C172      1.0  0.14117  0.46515  0.08597  1.0000
  H   H145      1.0  0.18958  0.56680  0.20135  1.0000
  H   H146      1.0  0.23775  0.36326  0.23667  1.0000
  C   C173      1.0  0.40798  0.53732  0.32173  1.0000
  C   C174      1.0  0.47552  0.63587  0.24023  1.0000
  C   C175      1.0  0.42524  0.57757  0.10129  1.0000
  H   H147      1.0  0.21658  0.44291  0.32381  1.0000
  H   H148      1.0  0.24965  0.41082  0.37661  1.0000
  H   H149      1.0  0.44812  0.46150  0.01922  1.0000
  S   S28       1.0  0.23348  0.48510  0.02441  1.0000
  C   C176      1.0  0.42857  0.42413  0.09235  1.0000
  C   C177      1.0  0.35628  0.55048  0.01235  1.0000
  H   H150      1.0  0.08860  0.33535  0.47213  1.0000
  H   H151      1.0  0.38469  0.40448  0.05785  1.0000
  C   C178      1.0  0.13649  0.49527  0.06349  1.0000
  C   C179      1.0  0.19088  0.33499  0.40792  1.0000
  S   S29       1.0  0.45746  0.39226  0.24610  1.0000
  H   H152      1.0  0.41537  0.62449  0.06864  1.0000
  C   C180      1.0  0.45410  0.65415  0.16150  1.0000
  C   C181      1.0  0.43453  0.60494  0.07588  1.0000
  C   C182      1.0  0.14268  0.43332  0.06615  1.0000
  C   C183      1.0  0.44236  0.45221  0.11407  1.0000
  C   C184      1.0  0.40518  0.56971  0.34019  1.0000
  H   H153      1.0  0.32181  0.54245  0.06325  1.0000
  H   H154      1.0  0.42641  0.62080  0.34532  1.0000
  C   C185      1.0  0.17857  0.59229  0.20501  1.0000
  C   C186      1.0  0.34172  0.34355  0.29701  1.0000
  H   H155      1.0  0.22395  0.61771  0.18073  1.0000
  C   C187      1.0  0.50286  0.53490  0.18645  1.0000
  C   C188      1.0  0.39552  0.42636  0.07428  1.0000
  C   C189      1.0  0.37630  0.45674  0.07770  1.0000
  H   H156      1.0  0.38878  0.51735  0.32803  1.0000
  H   H157      1.0  0.14397  0.46651  0.11875  1.0000
  H   H158      1.0  0.27396  0.57763  0.03461  1.0000
  H   H159      1.0  0.13621  0.52000  0.07890  1.0000
  C   C190      1.0  0.42286  0.48252  0.11863  1.0000
  C   C191      1.0  0.38997  0.48480  0.09957  1.0000
  P   P7        1.0  0.43944  0.51899  0.14751  1.0000
  C   C192      1.0  0.40651  0.53352  0.18270  1.0000
  C   C193      1.0  0.47656  0.50985  0.17999  1.0000
  C   C194      1.0  0.32498  0.55435  0.03375  1.0000
  C   C195      1.0  0.33238  0.64852  0.17874  1.0000
  H   H160      1.0  0.39890  0.57647  0.11345  1.0000
  C   C196      1.0  0.47772  0.47909  0.20233  1.0000
  C   C197      1.0  0.40846  0.56696  0.19897  1.0000
  C   C198      1.0  0.38347  0.57815  0.22700  1.0000
  C   C199      1.0  0.35681  0.55582  0.23950  1.0000
  C   C200      1.0  0.35490  0.52238  0.22377  1.0000
  C   C201      1.0  0.37978  0.51116  0.19564  1.0000
  C   C202      1.0  0.45004  0.55247  0.11148  1.0000
  H   H161      1.0  0.42611  0.65755  0.25946  1.0000
  C   C203      1.0  0.29796  0.57415  0.01756  1.0000
  C   C204      1.0  0.49298  0.58195  0.06946  1.0000
  C   C205      1.0  0.46855  0.60748  0.06054  1.0000
  C   C206      1.0  0.22515  0.40479  0.27729  1.0000
  H   H162      1.0  0.08659  0.34985  0.26242  1.0000
  C   C207      1.0  0.48348  0.55407  0.09394  1.0000
  H   H163      1.0  0.32862  0.36819  0.29619  1.0000
  H   H164      1.0  0.37450  0.50798  0.10247  1.0000
  H   H165      1.0  0.17808  0.35388  0.34787  1.0000
  C   C208      1.0  0.34211  0.64185  0.13847  1.0000
  H   H166      1.0  0.10569  0.63228  0.24037  1.0000
  H   H167      1.0  0.42913  0.58443  0.18980  1.0000
  H   H168      1.0  0.38435  0.60426  0.23861  1.0000
  H   H169      1.0  0.33696  0.56472  0.26052  1.0000
  H   H170      1.0  0.33361  0.50545  0.23272  1.0000
  H   H171      1.0  0.37794  0.48514  0.18393  1.0000
  H   H172      1.0  0.14694  0.41012  0.08374  1.0000
  C   C209      1.0  0.16927  0.33895  0.37384  1.0000
  C   C210      1.0  0.25738  0.34451  0.08324  1.0000
  C   C211      1.0  0.16456  0.34298  0.21347  1.0000
  C   C212      1.0  0.44315  0.65192  0.23400  1.0000
  H   H173      1.0  0.50252  0.53417  0.09989  1.0000
  H   H174      1.0  0.45697  0.46004  0.19961  1.0000
  H   H175      1.0  0.50183  0.55965  0.17158  1.0000
  C   C213      1.0  0.49029  0.65259  0.36814  1.0000
  C   C214      1.0  0.49690  0.62860  0.20653  1.0000
  H   H176      1.0  0.10422  0.64463  0.43464  1.0000
  H   H177      1.0  0.28206  0.66067  0.30694  1.0000
  C   C215      1.0  0.15121  0.65831  0.21643  1.0000
  H   H178      1.0  0.50674  0.44864  0.24543  1.0000
  C   C216      1.0  0.13263  0.49359  0.02117  1.0000
  C   C217      1.0  0.13883  0.43150  0.02383  1.0000
  H   H179      1.0  0.26034  0.38705  0.01399  1.0000
  H   H180      1.0  0.31071  0.33687  0.21315  1.0000
  H   H181      1.0  0.48592  0.34686  0.06791  1.0000
  H   H182      1.0  0.35930  0.65771  0.01125  1.0000
  H   H183      1.0  0.18230  0.60016  0.01011  1.0000
  C   C218      1.0  0.10600  0.66287  0.49667  1.0000
  C   C219      1.0  0.21481  0.66398  0.10742  1.0000
  H   H184      1.0  0.39294  0.36731  0.29896  1.0000
  C   C220      1.0  0.47093  0.33297  0.04534  1.0000
  C   C221      1.0  0.46032  0.34973  0.00969  1.0000
  C   C222      1.0  0.09727  0.66523  0.45539  1.0000
  C   C223      1.0  0.37832  0.34326  0.29810  1.0000
  C   C224      1.0  0.13461  0.33275  0.23506  1.0000
  C   C225      1.0  0.45353  0.48688  0.00703  1.0000
  H   H185      1.0  0.13987  0.40659  0.00896  1.0000
  H   H186      1.0  0.09299  0.57770  0.91072  1.0000
  C   C226      1.0  0.06436  0.34488  0.52984  1.0000
  H   H187      1.0  0.25043  0.50729  0.94412  1.0000
  Fe  Fe15      1.0  0.22588  0.62877  0.86810  1.0000
  S   S30       1.0  0.20582  0.60578  0.80957  1.0000
  S   S31       1.0  0.20077  0.62289  0.92994  1.0000
  Fe  Fe16      1.0  0.26230  0.59597  0.79578  1.0000
  S   S32       1.0  0.28153  0.54793  0.76425  1.0000
  C   C227      1.0  0.14129  0.56296  0.88233  1.0000
  C   C228      1.0  0.15853  0.36449  0.59954  1.0000
  S   S33       1.0  0.28173  0.61453  0.85659  1.0000
  H   H188      1.0  0.20627  0.39880  0.79872  1.0000
  S   S34       1.0  0.28296  0.40761  0.86107  1.0000
  S   S35       1.0  0.38283  0.38865  0.84970  1.0000
  C   C229      1.0  0.28291  0.50979  0.79281  1.0000
  C   C230      1.0  0.30167  0.48170  0.77753  1.0000
  C   C231      1.0  0.30190  0.45027  0.79850  1.0000
  C   C232      1.0  0.28291  0.44675  0.83456  1.0000
  C   C233      1.0  0.26465  0.47502  0.85036  1.0000
  C   C234      1.0  0.26493  0.50668  0.82968  1.0000
  H   H189      1.0  0.31601  0.48432  0.74935  1.0000
  H   H190      1.0  0.31660  0.42870  0.78672  1.0000
  H   H191      1.0  0.25038  0.47244  0.87862  1.0000
  H   H192      1.0  0.25075  0.52843  0.84173  1.0000
  C   C235      1.0  0.20954  0.58434  0.95588  1.0000
  H   H193      1.0  0.49547  0.40818  0.72437  1.0000
  C   C236      1.0  0.15476  0.42661  0.92588  1.0000
  C   C237      1.0  0.46890  0.38606  0.77595  1.0000
  H   H194      1.0  0.42750  0.61616  0.99354  1.0000
  C   C238      1.0  0.22888  0.55815  0.93741  1.0000
  C   C239      1.0  0.14373  0.40423  0.89457  1.0000
  C   C240      1.0  0.47131  0.37855  0.81749  1.0000
  H   H195      1.0  0.12958  0.51735  0.00450  1.0000
  H   H196      1.0  0.23848  0.56139  0.90673  1.0000
  C   C241      1.0  0.50099  0.53059  0.75414  1.0000
  S   S36       1.0  0.43050  0.37534  0.74887  1.0000
  H   H197      1.0  0.42917  0.65113  0.78079  1.0000
  H   H198      1.0  0.19948  0.50605  0.71749  1.0000
  C   C242      1.0  0.49153  0.63825  0.73290  1.0000
  H   H199      1.0  0.45035  0.36531  0.83279  1.0000
  C   C243      1.0  0.32991  0.42487  0.96767  1.0000
  H   H200      1.0  0.11492  0.37369  0.63949  1.0000
  S   S37       1.0  0.33432  0.34379  0.78635  1.0000
  C   C244      1.0  0.21605  0.36809  0.63071  1.0000
  C   C245      1.0  0.20078  0.37605  0.66844  1.0000
  C   C246      1.0  0.16419  0.37815  0.67133  1.0000
  P   P8        1.0  0.22716  0.38181  0.71372  1.0000
  C   C247      1.0  0.21288  0.42099  0.73854  1.0000
  H   H201      1.0  0.11728  0.40505  0.88290  1.0000
  H   H202      1.0  0.20688  0.35643  0.56735  1.0000
  H   H203      1.0  0.35991  0.34336  0.97980  1.0000
  C   C248      1.0  0.06009  0.33377  0.57001  1.0000
  C   C249      1.0  0.14317  0.37231  0.63701  1.0000
  C   C250      1.0  0.11193  0.55731  0.90671  1.0000
  C   C251      1.0  0.20443  0.42161  0.78017  1.0000
  C   C252      1.0  0.06511  0.45260  0.89965  1.0000
  C   C253      1.0  0.34553  0.38641  0.68592  1.0000
  C   C254      1.0  0.20016  0.48226  0.73472  1.0000
  C   C255      1.0  0.20998  0.45146  0.71580  1.0000
  C   C256      1.0  0.27312  0.38451  0.70081  1.0000
  H   H204      1.0  0.28084  0.60469  0.96670  1.0000
  H   H205      1.0  0.49201  0.49845  0.87681  1.0000
  H   H206      1.0  0.15865  0.36346  0.85336  1.0000
  C   C257      1.0  0.32764  0.41679  0.69487  1.0000
  C   C258      1.0  0.29156  0.41593  0.70218  1.0000
  S   S38       1.0  0.43171  0.35390  0.93410  1.0000
  H   H207      1.0  0.40163  0.49318  0.98357  1.0000
  C   C259      1.0  0.18953  0.42523  0.93960  1.0000
  C   C260      1.0  0.30915  0.36108  0.00028  1.0000
  H   H208      1.0  0.08439  0.52166  0.94505  1.0000
  H   H209      1.0  0.26001  0.36436  0.79079  1.0000
  H   H210      1.0  0.36574  0.64648  0.79382  1.0000
  C   C261      1.0  0.16709  0.38050  0.87772  1.0000
  C   C262      1.0  0.49328  0.45546  0.91801  1.0000
  C   C263      1.0  0.30183  0.58933  0.97933  1.0000
  H   H211      1.0  0.19893  0.44291  0.96288  1.0000
  C   C264      1.0  0.16203  0.50557  0.89779  1.0000
  H   H212      1.0  0.21629  0.45164  0.68365  1.0000
  Fe  Fe17      1.0  0.39230  0.34011  0.88487  1.0000
  C   C265      1.0  0.19495  0.36248  0.59639  1.0000
  H   H213      1.0  0.04876  0.36596  0.51835  1.0000
  H   H214      1.0  0.11957  0.64039  0.50799  1.0000
  H   H215      1.0  0.27864  0.43968  0.71004  1.0000
  H   H216      1.0  0.07200  0.42339  0.99727  1.0000
  C   C266      1.0  0.35264  0.39692  0.96640  1.0000
  H   H217      1.0  0.44463  0.63439  0.69581  1.0000
  C   C267      1.0  0.36337  0.59208  0.78307  1.0000
  H   H218      1.0  0.39266  0.60258  0.87001  1.0000
  C   C268      1.0  0.43564  0.59645  0.76845  1.0000
  S   S39       1.0  0.27129  0.64677  0.76460  1.0000
  C   C269      1.0  0.38051  0.62377  0.78582  1.0000
  H   H219      1.0  0.18229  0.48642  0.89476  1.0000
  H   H220      1.0  0.43149  0.54159  0.75588  1.0000
  H   H221      1.0  0.49219  0.63504  0.90602  1.0000
  C   C270      1.0  0.19759  0.58010  0.99593  1.0000
  H   H222      1.0  0.46751  0.44599  0.90947  1.0000
  Fe  Fe18      1.0  0.32716  0.37210  0.84534  1.0000
  C   C271      1.0  0.33243  0.58419  0.95697  1.0000
  C   C272      1.0  0.22312  0.34456  0.74632  1.0000
  C   C273      1.0  0.50395  0.60199  0.81070  1.0000
  Fe  Fe19      1.0  0.39155  0.35576  0.79473  1.0000
  H   H223      1.0  0.47487  0.57570  0.95895  1.0000
  H   H224      1.0  0.33466  0.59564  0.92701  1.0000
  H   H225      1.0  0.14526  0.58779  0.86792  1.0000
  C   C274      1.0  0.23570  0.52761  0.95866  1.0000
  H   H226      1.0  0.44175  0.54883  0.87174  1.0000
  H   H227      1.0  0.15192  0.38394  0.70027  1.0000
  H   H228      1.0  0.36809  0.53816  0.76951  1.0000
  H   H229      1.0  0.33558  0.59055  0.78906  1.0000
  C   C275      1.0  0.41791  0.56472  0.76474  1.0000
  C   C276      1.0  0.19219  0.48270  0.77620  1.0000
  C   C277      1.0  0.41646  0.62609  0.77854  1.0000
  H   H230      1.0  0.43813  0.50379  0.81819  1.0000
  H   H231      1.0  0.18540  0.50677  0.79093  1.0000
  C   C278      1.0  0.43118  0.66081  0.95558  1.0000
  H   H232      1.0  0.23968  0.40096  0.93288  1.0000
  H   H233      1.0  0.14216  0.35993  0.57302  1.0000
  P   P9        1.0  0.48256  0.59961  0.76150  1.0000
  C   C279      1.0  0.41747  0.50616  0.84048  1.0000
  C   C280      1.0  0.38190  0.56260  0.77220  1.0000
  H   H234      1.0  0.18854  0.45272  0.83113  1.0000
  C   C281      1.0  0.10733  0.52566  0.92629  1.0000
  C   C282      1.0  0.29125  0.35421  0.69114  1.0000
  H   H235      1.0  0.34194  0.44093  0.69723  1.0000
  C   C283      1.0  0.36327  0.48504  0.86918  1.0000
  C   C284      1.0  0.38939  0.48296  0.83962  1.0000
  C   C285      1.0  0.16609  0.53698  0.87755  1.0000
  C   C286      1.0  0.41926  0.53168  0.87065  1.0000
  C   C287      1.0  0.39286  0.53402  0.90023  1.0000
  C   C288      1.0  0.36477  0.51055  0.89922  1.0000
  P   P10       1.0  0.39990  0.56059  0.94448  1.0000
  C   C289      1.0  0.35997  0.56480  0.97333  1.0000
  C   C290      1.0  0.43396  0.53815  0.97152  1.0000
  C   C291      1.0  0.42721  0.50506  0.98707  1.0000
  C   C292      1.0  0.01090  0.42630  0.92225  1.0000
  H   H236      1.0  0.37800  0.39980  0.95212  1.0000
  C   C293      1.0  0.46825  0.55141  0.97312  1.0000
  H   H237      1.0  0.22007  0.36147  0.87819  1.0000
  H   H238      1.0  0.01851  0.44840  0.86280  1.0000
  C   C294      1.0  0.32726  0.35517  0.68361  1.0000
  C   C295      1.0  0.50429  0.62083  0.88141  1.0000
  C   C296      1.0  0.29689  0.42109  0.98518  1.0000
  C   C297      1.0  0.41157  0.60438  0.93224  1.0000
  C   C298      1.0  0.40424  0.61830  0.89384  1.0000
  C   C299      1.0  0.03037  0.44292  0.89208  1.0000
  C   C300      1.0  0.13246  0.49960  0.92214  1.0000
  H   H239      1.0  0.49145  0.52773  0.78496  1.0000
  C   C301      1.0  0.42408  0.62609  0.96325  1.0000
  H   H240      1.0  0.34227  0.46627  0.86949  1.0000
  H   H241      1.0  0.38810  0.46297  0.81647  1.0000
  C   C302      1.0  0.49703  0.40249  0.75654  1.0000
  C   C303      1.0  0.06092  0.42896  0.96772  1.0000
  H   H242      1.0  0.34453  0.51108  0.92225  1.0000
  H   H243      1.0  0.33752  0.44924  0.95428  1.0000
  H   H244      1.0  0.07985  0.46542  0.87586  1.0000
  C   C304      1.0  0.34227  0.36504  0.98228  1.0000
  C   C305      1.0  0.08069  0.44572  0.93756  1.0000
  C   C306      1.0  0.21269  0.40143  0.92280  1.0000
  C   C307      1.0  0.19400  0.45231  0.79880  1.0000
  C   C308      1.0  0.20157  0.37915  0.89183  1.0000
  H   H245      1.0  0.04130  0.34630  0.58972  1.0000
  P   P11       1.0  0.12562  0.45855  0.94677  1.0000
  H   H246      1.0  0.46450  0.63392  0.83839  1.0000
  H   H247      1.0  0.18917  0.54172  0.85929  1.0000
  C   C309      1.0  0.24339  0.34285  0.78194  1.0000
  H   H248      1.0  0.24414  0.36615  0.62758  1.0000
  C   C310      1.0  0.46814  0.64909  0.70251  1.0000
  C   C311      1.0  0.48845  0.62000  0.84299  1.0000
  C   C312      1.0  0.41077  0.65326  0.88643  1.0000
  H   H249      1.0  0.40467  0.66408  0.85697  1.0000
  C   C313      1.0  0.13321  0.46160  0.00105  1.0000
  H   H250      1.0  0.27906  0.44259  0.98508  1.0000
  H   H251      1.0  0.37370  0.38696  0.68174  1.0000
  C   C314      1.0  0.22429  0.52364  0.99891  1.0000
  Fe  Fe20      1.0  0.21576  0.65826  0.78282  1.0000
  C   C315      1.0  0.49938  0.56262  0.73445  1.0000
  H   H252      1.0  0.46715  0.37654  0.00530  1.0000
  H   H253      1.0  0.01103  0.40650  0.98348  1.0000
  C   C316      1.0  0.02617  0.41932  0.96003  1.0000
  H   H254      1.0  0.50206  0.38284  0.87218  1.0000
  C   C317      1.0  0.50094  0.38829  0.83988  1.0000
  H   H255      1.0  0.31761  0.66247  0.95318  1.0000
  H   H256      1.0  0.50143  0.41528  0.96129  1.0000
  C   C318      1.0  0.28643  0.38939  0.00148  1.0000
  C   C319      1.0  0.49471  0.53279  0.99244  1.0000
  P   P12       1.0  0.04936  0.75911  0.44852  1.0000
  Fe  Fe21      1.0  0.42076  0.76921  0.19161  1.0000
  S   S40       1.0  0.43074  0.74688  0.13001  1.0000
  Fe  Fe22      1.0  0.34582  0.78901  0.17206  1.0000
  S   S41       1.0  0.34975  0.76737  0.10866  1.0000
  S   S42       1.0  0.29206  0.80979  0.18713  1.0000
  Fe  Fe23      1.0  0.37759  0.72310  0.13722  1.0000
  C   C320      1.0  0.12774  0.81032  0.38813  1.0000
  Fe  Fe24      1.0  0.40227  0.79301  0.10653  1.0000
  C   C321      1.0  0.21550  0.90281  0.03184  1.0000
  S   S43       1.0  0.36928  0.74194  0.20106  1.0000
  S   S44       1.0  0.39659  0.81813  0.16797  1.0000
  Fe  Fe25      1.0  0.12433  0.90728  0.30710  1.0000
  C   C322      1.0  0.08499  0.78782  0.43606  1.0000
  S   S45       1.0  0.10705  0.85374  0.28835  1.0000
  Fe  Fe26      1.0  0.19673  0.93724  0.32230  1.0000
  S   S46       1.0  0.25458  0.92539  0.31731  1.0000
  S   S47       1.0  0.15917  0.90842  0.36225  1.0000
  C   C323      1.0  0.28298  0.83963  0.22649  1.0000
  C   C324      1.0  0.30939  0.85904  0.24550  1.0000
  C   C325      1.0  0.30055  0.88492  0.27388  1.0000
  C   C326      1.0  0.26535  0.89142  0.28352  1.0000
  C   C327      1.0  0.23915  0.87113  0.26549  1.0000
  C   C328      1.0  0.24793  0.84539  0.23719  1.0000
  H   H257      1.0  0.33648  0.85480  0.23753  1.0000
  H   H258      1.0  0.32098  0.90035  0.28788  1.0000
  H   H259      1.0  0.21203  0.87533  0.27323  1.0000
  H   H260      1.0  0.22733  0.83013  0.22337  1.0000
  H   H261      1.0  0.05991  0.85532  0.09144  1.0000
  Fe  Fe27      1.0  0.13465  0.95979  0.37538  1.0000
  H   H262      1.0  0.14231  0.84248  0.48322  1.0000
  C   C329      1.0  0.16316  0.73355  0.14497  1.0000
  H   H263      1.0  0.21467  0.89037  0.46443  1.0000
  C   C330      1.0  0.03406  0.85741  0.28359  1.0000
  C   C331      1.0  0.06485  0.83972  0.27370  1.0000
  C   C332      1.0  0.06262  0.80871  0.25204  1.0000
  C   C333      1.0  0.03018  0.79530  0.24006  1.0000
  H   H264      1.0  0.21495  0.97191  0.20391  1.0000
  H   H265      1.0  0.03556  0.88134  0.30052  1.0000
  H   H266      1.0  0.08613  0.79473  0.24466  1.0000
  C   C334      1.0  0.48165  0.69250  0.31251  1.0000
  C   C335      1.0  0.09899  0.78900  0.39655  1.0000
  H   H267      1.0  0.38620  0.71064  0.04068  1.0000
  H   H268      1.0  0.44101  0.75252  0.04692  1.0000
  H   H269      1.0  0.49010  0.68795  0.08486  1.0000
  C   C336      1.0  0.30243  0.83060  0.06271  1.0000
  H   H270      1.0  0.00998  0.96488  0.25240  1.0000
  H   H271      1.0  0.02936  0.79572  0.37318  1.0000
  H   H272      1.0  0.32131  0.87808  0.08915  1.0000
  H   H273      1.0  0.28970  0.82218  0.09045  1.0000
  H   H274      1.0  0.48607  0.72025  0.17754  1.0000
  H   H275      1.0  0.25421  0.75130  0.20624  1.0000
  H   H276      1.0  0.49282  0.67534  0.42813  1.0000
  S   S48       1.0  0.41840  0.82338  0.05104  1.0000
  C   C337      1.0  0.16598  0.91194  0.48471  1.0000
  C   C338      1.0  0.20399  0.78852  0.04458  1.0000
  C   C339      1.0  0.13018  0.82782  0.45888  1.0000
  C   C340      1.0  0.14339  0.82963  0.41931  1.0000
  S   S49       1.0  0.46223  0.76916  0.24040  1.0000
  H   H277      1.0  0.02311  0.98185  0.32902  1.0000
  H   H278      1.0  0.15912  0.92185  0.45497  1.0000
  H   H279      1.0  0.02897  0.77113  0.22356  1.0000
  H   H280      1.0  0.34159  0.67151  0.19404  1.0000
  H   H281      1.0  0.31231  0.71755  0.31026  1.0000
  C   C341      1.0  0.26025  0.73128  0.22788  1.0000
  H   H282      1.0  0.16541  0.71575  0.11972  1.0000
  C   C342      1.0  0.01546  0.77134  0.37438  1.0000
  C   C343      1.0  0.18708  0.90521  0.05877  1.0000
  H   H283      1.0  0.47713  0.74597  0.32910  1.0000
  P   P13       1.0  0.18666  0.87972  0.10455  1.0000
  C   C344      1.0  0.14262  0.87530  0.12394  1.0000
  C   C345      1.0  0.20041  0.83639  0.09248  1.0000
  H   H284      1.0  0.47431  0.84906  0.18991  1.0000
  C   C346      1.0  0.29297  0.71242  0.28680  1.0000
  C   C347      1.0  0.22147  0.76895  0.07378  1.0000
  C   C348      1.0  0.22779  0.78273  0.11247  1.0000
  C   C349      1.0  0.21662  0.81600  0.12208  1.0000
  C   C350      1.0  0.11525  0.86596  0.09739  1.0000
  C   C351      1.0  0.08099  0.86255  0.11197  1.0000
  C   C352      1.0  0.07381  0.86856  0.15309  1.0000
  C   C353      1.0  0.10095  0.87754  0.17968  1.0000
  C   C354      1.0  0.13535  0.88004  0.16551  1.0000
  C   C355      1.0  0.21524  0.90268  0.13941  1.0000
  C   C356      1.0  0.25039  0.89309  0.14414  1.0000
  C   C357      1.0  0.27232  0.91138  0.17078  1.0000
  C   C358      1.0  0.25944  0.93943  0.19277  1.0000
  C   C359      1.0  0.22495  0.95007  0.18695  1.0000
  C   C360      1.0  0.20308  0.93213  0.15990  1.0000
  H   H285      1.0  0.22982  0.74301  0.06654  1.0000
  H   H286      1.0  0.27985  0.71184  0.15181  1.0000
  C   C361      1.0  0.28504  0.73785  0.25831  1.0000
  H   H287      1.0  0.46296  0.84795  0.11551  1.0000
  H   H288      1.0  0.13948  0.93301  0.07261  1.0000
  H   H289      1.0  0.03296  0.96434  0.50458  1.0000
  C   C362      1.0  0.07982  0.69431  0.44080  1.0000
  C   C363      1.0  0.02197  0.77807  0.48702  1.0000
  H   H290      1.0  0.24126  0.76769  0.13527  1.0000
  H   H291      1.0  0.22095  0.82584  0.15254  1.0000
  H   H292      1.0  0.12035  0.86137  0.06540  1.0000
  C   C364      1.0  0.16081  0.92955  0.05132  1.0000
  H   H293      1.0  0.04730  0.86593  0.16459  1.0000
  H   H294      1.0  0.09536  0.88221  0.21151  1.0000
  H   H295      1.0  0.15601  0.88539  0.18730  1.0000
  H   H296      1.0  0.26097  0.87134  0.12780  1.0000
  H   H297      1.0  0.48403  0.73507  0.40324  1.0000
  C   C365      1.0  0.45241  0.76632  0.02182  1.0000
  H   H298      1.0  0.19855  0.77754  0.01482  1.0000
  H   H299      1.0  0.17652  0.94102  0.15556  1.0000
  C   C366      1.0  0.10117  0.80698  0.46726  1.0000
  H   H300      1.0  0.47917  0.69810  0.28043  1.0000
  H   H301      1.0  0.03052  0.93130  0.37371  1.0000
  C   C367      1.0  0.49336  0.83791  0.16940  1.0000
  H   H302      1.0  0.29909  0.90313  0.17529  1.0000
  C   C368      1.0  0.04502  0.99600  0.21690  1.0000
  C   C369      1.0  0.19347  0.82213  0.05384  1.0000
  H   H303      1.0  0.35306  0.89613  0.02690  1.0000
  C   C370      1.0  0.14053  0.76159  0.14133  1.0000
  C   C371      1.0  0.13683  0.78481  0.17361  1.0000
  C   C372      1.0  0.15573  0.78009  0.20958  1.0000
  C   C373      1.0  0.17814  0.75192  0.21347  1.0000
  H   H304      1.0  0.06009  0.97422  0.20627  1.0000
  H   H305      1.0  0.29810  0.76275  0.25967  1.0000
  C   C374      1.0  0.07058  0.72102  0.46757  1.0000
  H   H306      1.0  0.12568  0.76525  0.11356  1.0000
  H   H307      1.0  0.11891  0.80620  0.17106  1.0000
  H   H308      1.0  0.15261  0.79810  0.23471  1.0000
  H   H309      1.0  0.19169  0.74830  0.24211  1.0000
  C   C375      1.0  0.18249  0.72867  0.18092  1.0000
  S   S50       1.0  0.16343  0.93357  0.26644  1.0000
  H   H310      1.0  0.16584  0.84586  0.41279  1.0000
  C   C376      1.0  0.48477  0.71374  0.38186  1.0000
  H   H311      1.0  0.03100  0.83928  0.46935  1.0000
  C   C377      1.0  0.19734  0.89420  0.49014  1.0000
  S   S51       1.0  0.09671  0.95654  0.32282  1.0000
  C   C378      1.0  0.24310  0.69928  0.22551  1.0000
  H   H312      1.0  0.17974  0.83681  0.03090  1.0000
  C   C379      1.0  0.50272  0.74945  0.23007  1.0000
  P   P14       1.0  0.21079  0.69166  0.18599  1.0000
  S   S52       1.0  0.11292  0.97619  0.43668  1.0000
  C   C380      1.0  0.26554  0.69698  0.12930  1.0000
  C   C381      1.0  0.32032  0.86209  0.06204  1.0000
  C   C382      1.0  0.23222  0.68322  0.13778  1.0000
  H   H313      1.0  0.13785  0.81196  0.35733  1.0000
  H   H314      1.0  0.08802  0.77346  0.37219  1.0000
  C   C383      1.0  0.01761  0.82259  0.49063  1.0000
  C   C384      1.0  0.30269  0.80908  0.02845  1.0000
  H   H315      1.0  0.07380  0.69608  0.40862  1.0000
  H   H316      1.0  0.27608  0.95263  0.21468  1.0000
  C   C385      1.0  0.02095  0.74807  0.40641  1.0000
  Fe  Fe28      1.0  0.13973  0.98308  0.28791  1.0000
  H   H317      1.0  0.30680  0.70201  0.08494  1.0000
  C   C386      1.0  0.01706  0.99091  0.24366  1.0000
  C   C387      1.0  0.48689  0.83708  0.12754  1.0000
  H   H318      1.0  0.50500  0.82069  0.06891  1.0000
  C   C388      1.0  0.48085  0.71991  0.34021  1.0000
  S   S53       1.0  0.37023  0.66964  0.11182  1.0000
  C   C389      1.0  0.48963  0.68009  0.39583  1.0000
  H   H319      1.0  0.23681  0.88523  0.03798  1.0000
  C   C390      1.0  0.44532  0.80127  0.01643  1.0000
  S   S54       1.0  0.17586  0.98898  0.34125  1.0000
  C   C391      1.0  0.28107  0.69146  0.09128  1.0000
  C   C392      1.0  0.33815  0.87229  0.02693  1.0000
  H   H320      1.0  0.28977  0.78419  0.02994  1.0000
  H   H321      1.0  0.14028  0.68363  0.22155  1.0000
  C   C393      1.0  0.27590  0.68048  0.28494  1.0000
  H   H322      1.0  0.27610  0.66727  0.03239  1.0000
  H   H323      1.0  0.50552  0.74925  0.09213  1.0000
  H   H324      1.0  0.09159  0.80562  0.49824  1.0000
  H   H325      1.0  0.40786  0.67392  0.19019  1.0000
  C   C394      1.0  0.36745  0.71258  0.01603  1.0000
  H   H326      1.0  0.37047  0.76779  0.01421  1.0000
  C   C395      1.0  0.16209  0.94997  0.01631  1.0000
  C   C396      1.0  0.25105  0.67388  0.25446  1.0000
  C   C397      1.0  0.26379  0.67189  0.06160  1.0000
  H   H327      1.0  0.14162  0.96857  0.01054  1.0000
  Fe  Fe29      1.0  0.06326  0.83885  0.69970  1.0000
  S   S55       1.0  0.08271  0.85216  0.63735  1.0000
  S   S56       1.0  0.10028  0.82152  0.74952  1.0000
  C   C398      1.0  0.47396  0.74892  0.99426  1.0000
  Fe  Fe30      1.0  0.05292  0.90117  0.64484  1.0000
  S   S57       1.0  0.07520  0.94843  0.61478  1.0000
  S   S58       1.0  0.03689  0.89008  0.70916  1.0000
  S   S59       1.0  0.33107  0.69949  0.84756  1.0000
  C   C399      1.0  0.45997  0.81876  0.98317  1.0000
  H   H328      1.0  0.00748  0.94628  0.57038  1.0000
  C   C400      1.0  0.18375  0.88640  0.56189  1.0000
  S   S60       1.0  0.45410  0.75756  0.73792  1.0000
  C   C401      1.0  0.17693  0.82505  0.61370  1.0000
  H   H329      1.0  0.23040  0.86741  0.53200  1.0000
  H   H330      1.0  0.41350  0.98538  0.68160  1.0000
  C   C402      1.0  0.48129  0.80117  0.95519  1.0000
  H   H331      1.0  0.15519  0.79136  0.79676  1.0000
  C   C403      1.0  0.35241  0.68279  0.99932  1.0000
  C   C404      1.0  0.09752  0.68969  0.52332  1.0000
  C   C405      1.0  0.14769  0.77290  0.77354  1.0000
  Fe  Fe31      1.0  0.28572  0.66640  0.82670  1.0000
  C   C406      1.0  0.08896  0.98359  0.64455  1.0000
  H   H332      1.0  0.31158  0.81683  0.59538  1.0000
  H   H333      1.0  0.11303  0.77400  0.57249  1.0000
  H   H334      1.0  0.10453  0.68808  0.55527  1.0000
  C   C407      1.0  0.21915  0.97361  0.54741  1.0000
  H   H335      1.0  0.30923  0.91499  0.65617  1.0000
  H   H336      1.0  0.06175  0.96864  0.69913  1.0000
  C   C408      1.0  0.17726  0.76796  0.64398  1.0000
  Fe  Fe32      1.0  0.03217  0.82955  0.61451  1.0000
  H   H337      1.0  0.44076  0.79109  0.88800  1.0000
  C   C409      1.0  0.12104  0.78117  0.74576  1.0000
  C   C410      1.0  0.11134  0.75721  0.71587  1.0000
  C   C411      1.0  0.12824  0.72516  0.71383  1.0000
  H   H338      1.0  0.09077  0.76334  0.69444  1.0000
  H   H339      1.0  0.12056  0.70664  0.69076  1.0000
  C   C412      1.0  0.36356  0.71652  0.81527  1.0000
  C   C413      1.0  0.39343  0.73078  0.83348  1.0000
  C   C414      1.0  0.42140  0.74262  0.80977  1.0000
  C   C415      1.0  0.41917  0.74159  0.76737  1.0000
  C   C416      1.0  0.38894  0.72793  0.74878  1.0000
  C   C417      1.0  0.36118  0.71514  0.77274  1.0000
  H   H340      1.0  0.39512  0.73214  0.86625  1.0000
  H   H341      1.0  0.44459  0.75291  0.82436  1.0000
  H   H342      1.0  0.38713  0.72702  0.71592  1.0000
  C   C418      1.0  0.32870  0.68544  0.96705  1.0000
  H   H343      1.0  0.23857  0.92114  0.97606  1.0000
  C   C419      1.0  0.29561  0.89395  0.64106  1.0000
  C   C420      1.0  0.15211  0.90399  0.55603  1.0000
  C   C421      1.0  0.33386  0.74792  0.96929  1.0000
  C   C422      1.0  0.31937  0.71783  0.95213  1.0000
  P   P15       1.0  0.32270  0.79005  0.94997  1.0000
  C   C423      1.0  0.16483  0.74095  0.77125  1.0000
  C   C424      1.0  0.35565  0.80436  0.91428  1.0000
  C   C425      1.0  0.38999  0.79181  0.91632  1.0000
  C   C426      1.0  0.41473  0.80191  0.88731  1.0000
  C   C427      1.0  0.40562  0.82483  0.85644  1.0000
  C   C428      1.0  0.37178  0.83815  0.85482  1.0000
  C   C429      1.0  0.34691  0.82812  0.88373  1.0000
  C   C430      1.0  0.24334  0.98222  0.71628  1.0000
  C   C431      1.0  0.14342  0.91690  0.51763  1.0000
  C   C432      1.0  0.28100  0.78803  0.92369  1.0000
  C   C433      1.0  0.25010  0.79982  0.94209  1.0000
  C   C434      1.0  0.21815  0.79764  0.92120  1.0000
  C   C435      1.0  0.21682  0.78382  0.88184  1.0000
  C   C436      1.0  0.24748  0.77246  0.86318  1.0000
  C   C437      1.0  0.27940  0.77458  0.88394  1.0000
  H   H344      1.0  0.43039  0.70135  0.91113  1.0000
  C   C438      1.0  0.42484  0.67436  0.91701  1.0000
  C   C439      1.0  0.19072  0.80149  0.64181  1.0000
  C   C440      1.0  0.25920  0.89483  0.63658  1.0000
  H   H345      1.0  0.30109  0.71904  0.92702  1.0000
  C   C441      1.0  0.24129  0.86738  0.61758  1.0000
  H   H346      1.0  0.42474  0.83188  0.83350  1.0000
  H   H347      1.0  0.36473  0.85581  0.83074  1.0000
  H   H348      1.0  0.32073  0.83850  0.88184  1.0000
  H   H349      1.0  0.24522  0.91686  0.64818  1.0000
  S   S61       1.0  0.23096  0.68221  0.84269  1.0000
  H   H350      1.0  0.25047  0.81069  0.97240  1.0000
  H   H351      1.0  0.19432  0.80654  0.93548  1.0000
  H   H352      1.0  0.19206  0.78174  0.86575  1.0000
  H   H353      1.0  0.24653  0.76155  0.83273  1.0000
  H   H354      1.0  0.30286  0.76535  0.86905  1.0000
  P   P16       1.0  0.19425  0.86844  0.61110  1.0000
  C   C442      1.0  0.08010  0.71876  0.50878  1.0000
  C   C443      1.0  0.17528  0.89444  0.65110  1.0000
  C   C444      1.0  0.15939  0.87920  0.68522  1.0000
  C   C445      1.0  0.14468  0.89984  0.71563  1.0000
  C   C446      1.0  0.14607  0.93569  0.71253  1.0000
  C   C447      1.0  0.16244  0.95101  0.67915  1.0000
  C   C448      1.0  0.17661  0.93053  0.64836  1.0000
  C   C449      1.0  0.14918  0.81466  0.58825  1.0000
  C   C450      1.0  0.13536  0.78131  0.59104  1.0000
  C   C451      1.0  0.36290  0.99117  0.70962  1.0000
  C   C452      1.0  0.07845  0.98777  0.68508  1.0000
  H   H355      1.0  0.45569  0.68879  0.65912  1.0000
  H   H356      1.0  0.37177  0.98247  0.73923  1.0000
  H   H357      1.0  0.44073  0.67749  0.97967  1.0000
  C   C453      1.0  0.20621  0.88139  0.52857  1.0000
  H   H358      1.0  0.13386  0.90750  0.58094  1.0000
  H   H359      1.0  0.15743  0.85148  0.68828  1.0000
  H   H360      1.0  0.13163  0.88795  0.74133  1.0000
  H   H361      1.0  0.13402  0.95161  0.73568  1.0000
  H   H362      1.0  0.16347  0.97883  0.67679  1.0000
  H   H363      1.0  0.18838  0.94285  0.62226  1.0000
  H   H364      1.0  0.13726  0.83246  0.56714  1.0000
  H   H365      1.0  0.26590  0.94337  0.54218  1.0000
  S   S62       1.0  0.03476  0.79835  0.55615  1.0000
  S   S63       1.0  0.17703  0.67734  0.73574  1.0000
  H   H366      1.0  0.11908  0.93074  0.51337  1.0000
  H   H367      1.0  0.34265  0.86494  0.63014  1.0000
  H   H368      1.0  0.39776  0.77379  0.93966  1.0000
  C   C454      1.0  0.47451  0.67963  0.68122  1.0000
  H   H369      1.0  0.45468  0.84587  0.97891  1.0000
  H   H370      1.0  0.18766  0.74998  0.66611  1.0000
  H   H371      1.0  0.25999  0.96251  0.70347  1.0000
  H   H372      1.0  0.21147  0.80912  0.66254  1.0000
  H   H373      1.0  0.33811  0.70420  0.75840  1.0000
  H   H374      1.0  0.18556  0.73491  0.79245  1.0000
  C   C455      1.0  0.31447  0.86581  0.62633  1.0000
  H   H375      1.0  0.35335  0.85884  0.96621  1.0000
  C   C456      1.0  0.15520  0.71703  0.74123  1.0000
  C   C457      1.0  0.48783  0.76605  0.96046  1.0000
  H   H376      1.0  0.19089  0.96265  0.96195  1.0000
  C   C458      1.0  0.29695  0.83868  0.60679  1.0000
  H   H377      1.0  0.07414  0.73949  0.52971  1.0000
  C   C459      1.0  0.18990  0.94671  0.98898  1.0000
  H   H378      1.0  0.24747  0.81832  0.58675  1.0000
  C   C460      1.0  0.32059  0.81912  0.99303  1.0000
  H   H379      1.0  0.13848  0.73222  0.62133  1.0000
  H   H380      1.0  0.49243  0.81470  0.92948  1.0000
  S   S64       1.0  0.01491  0.81171  0.67647  1.0000
  C   C461      1.0  0.14952  0.75791  0.61870  1.0000
  H   H381      1.0  0.47974  0.72201  0.99895  1.0000
  C   C462      1.0  0.26056  0.83952  0.60218  1.0000
  C   C463      1.0  0.25252  0.96317  0.55938  1.0000
  H   H382      1.0  0.22040  0.94763  0.76021  1.0000
  C   C464      1.0  0.21669  0.92326  0.99687  1.0000
  C   C465      1.0  0.35831  0.74499  0.00107  1.0000
  H   H383      1.0  0.20685  0.96265  0.52062  1.0000
  C   C466      1.0  0.33833  0.85093  0.99251  1.0000
  Fe  Fe33      1.0  0.50223  0.76678  0.77665  1.0000
  H   H384      1.0  0.29422  0.96954  0.60230  1.0000
  S   S65       1.0  0.50374  0.80554  0.82762  1.0000
  C   C467      1.0  0.26862  0.97841  0.59332  1.0000
  C   C468      1.0  0.22093  0.97369  0.74840  1.0000
  C   C469      1.0  0.50451  0.69918  0.68959  1.0000
  H   H385      1.0  0.18028  0.99168  0.78854  1.0000
  C   C470      1.0  0.38647  0.99294  0.67720  1.0000
  C   C471      1.0  0.20139  0.99836  0.57007  1.0000
  C   C472      1.0  0.19825  0.99842  0.76429  1.0000
  C   C473      1.0  0.99850  0.01927  0.25892  1.0000
  H   H386      1.0  0.86601  0.05303  0.20099  1.0000
  S   S66       1.0  0.94690  0.26121  0.24465  1.0000
  H   H387      1.0  0.91661  0.21111  0.33842  1.0000
  H   H388      1.0  0.90859  0.02646  0.42191  1.0000
  C   C474      1.0  0.98754  0.29088  0.44011  1.0000
  S   S67       1.0  0.57252  0.26581  0.27302  1.0000
  H   H389      1.0  0.94064  0.19365  0.46389  1.0000
  C   C475      1.0  0.72038  0.05725  0.50349  1.0000
  P   P17       1.0  0.88867  0.14038  0.48597  1.0000
  Fe  Fe34      1.0  0.74948  0.07221  0.29703  1.0000
  S   S68       1.0  0.79396  0.08613  0.33864  1.0000
  Fe  Fe35      1.0  0.73800  0.14657  0.27187  1.0000
  S   S69       1.0  0.78230  0.16649  0.31089  1.0000
  S   S70       1.0  0.70905  0.18128  0.22838  1.0000
  Fe  Fe36      1.0  0.81166  0.12064  0.28808  1.0000
  S   S71       1.0  0.86889  0.11896  0.27271  1.0000
  Fe  Fe37      1.0  0.76061  0.13020  0.35760  1.0000
  S   S72       1.0  0.76033  0.14498  0.42356  1.0000
  S   S73       1.0  0.76966  0.10348  0.24476  1.0000
  S   S74       1.0  0.71390  0.11372  0.32060  1.0000
  C   C476      1.0  0.74469  0.11115  0.45396  1.0000
  H   H390      1.0  0.99230  0.07475  0.25542  1.0000
  C   C477      1.0  0.92512  0.00667  0.25576  1.0000
  H   H391      1.0  0.60891  0.26354  0.49684  1.0000
  C   C478      1.0  0.71536  0.05600  0.46129  1.0000
  C   C479      1.0  0.72825  0.08247  0.43640  1.0000
  C   C480      1.0  0.94678  0.10883  0.37139  1.0000
  C   C481      1.0  0.73072  0.24560  0.31399  1.0000
  C   C482      1.0  0.98404  0.28977  0.48266  1.0000
  H   H392      1.0  0.72474  0.08102  0.40376  1.0000
  C   C483      1.0  0.61130  0.24326  0.26127  1.0000
  C   C484      1.0  0.62678  0.22187  0.29065  1.0000
  C   C485      1.0  0.65702  0.20284  0.28126  1.0000
  C   C486      1.0  0.67187  0.20518  0.24243  1.0000
  C   C487      1.0  0.65675  0.22698  0.21345  1.0000
  C   C488      1.0  0.62671  0.24605  0.22285  1.0000
  H   H393      1.0  0.61498  0.21952  0.32041  1.0000
  H   H394      1.0  0.66854  0.18601  0.30369  1.0000
  H   H395      1.0  0.66804  0.22877  0.18337  1.0000
  H   H396      1.0  0.61524  0.26250  0.20012  1.0000
  C   C489      1.0  0.92518  0.22130  0.24987  1.0000
  C   C490      1.0  0.88855  0.21950  0.24773  1.0000
  C   C491      1.0  0.87103  0.18822  0.25541  1.0000
  C   C492      1.0  0.89013  0.15843  0.26362  1.0000
  C   C493      1.0  0.92673  0.16004  0.26483  1.0000
  C   C494      1.0  0.94420  0.19146  0.25836  1.0000
  H   H397      1.0  0.87375  0.24252  0.24143  1.0000
  H   H398      1.0  0.84282  0.18691  0.25497  1.0000
  H   H399      1.0  0.94162  0.13707  0.27146  1.0000
  H   H400      1.0  0.97246  0.19248  0.25991  1.0000
  C   C495      1.0  0.73024  0.30932  0.27464  1.0000
  H   H401      1.0  0.68698  0.31528  0.43498  1.0000
  H   H402      1.0  0.65244  0.10272  0.41954  1.0000
  C   C496      1.0  0.92163  0.27860  0.47573  1.0000
  C   C497      1.0  0.74828  0.24969  0.27699  1.0000
  C   C498      1.0  0.66856  0.19889  0.44855  1.0000
  S   S75       1.0  0.00024  0.23135  0.33423  1.0000
  C   C499      1.0  0.65789  0.15464  0.39726  1.0000
  C   C500      1.0  0.66442  0.18908  0.40753  1.0000
  C   C501      1.0  0.80233  0.00265  0.29155  1.0000
  C   C502      1.0  0.66191  0.13885  0.46832  1.0000
  P   P18       1.0  0.67652  0.24358  0.46194  1.0000
  C   C503      1.0  0.72270  0.25327  0.45682  1.0000
  C   C504      1.0  0.65169  0.27157  0.42873  1.0000
  H   H403      1.0  0.89218  0.29563  0.16848  1.0000
  C   C505      1.0  0.60301  0.28047  0.38209  1.0000
  C   C506      1.0  0.65656  0.12956  0.42763  1.0000
  C   C507      1.0  0.88064  0.32577  0.22176  1.0000
  C   C508      1.0  0.62062  0.25978  0.41016  1.0000
  C   C509      1.0  0.61556  0.31346  0.37327  1.0000
  C   C510      1.0  0.70396  0.31295  0.17989  1.0000
  C   C511      1.0  0.79427  0.26837  0.44794  1.0000
  C   C512      1.0  0.77929  0.24078  0.42663  1.0000
  C   C513      1.0  0.74361  0.23353  0.43064  1.0000
  H   H404      1.0  0.63650  0.23384  0.05237  1.0000
  H   H405      1.0  0.94392  0.13262  0.38805  1.0000
  C   C514      1.0  0.98009  0.09539  0.36484  1.0000
  H   H406      1.0  0.69821  0.26943  0.35899  1.0000
  C   C515      1.0  0.66807  0.17333  0.47879  1.0000
  H   H407      1.0  0.61909  0.18382  0.00956  1.0000
  C   C516      1.0  0.71266  0.27317  0.33110  1.0000
  Fe  Fe38      1.0  0.00014  0.25769  0.27391  1.0000
  H   H408      1.0  0.65439  0.14726  0.36565  1.0000
  H   H409      1.0  0.66633  0.20790  0.38334  1.0000
  H   H410      1.0  0.61024  0.23432  0.41651  1.0000
  C   C517      1.0  0.95111  0.28351  0.50049  1.0000
  H   H411      1.0  0.70154  0.03438  0.44791  1.0000
  C   C518      1.0  0.92121  0.06188  0.33251  1.0000
  S   S76       1.0  0.88009  0.26872  0.49593  1.0000
  H   H412      1.0  0.84858  0.14710  0.40933  1.0000
  H   H413      1.0  0.58000  0.27063  0.36628  1.0000
  H   H414      1.0  0.82197  0.27383  0.44471  1.0000
  H   H415      1.0  0.79543  0.22457  0.40741  1.0000
  H   H416      1.0  0.73270  0.21210  0.41364  1.0000
  C   C519      1.0  0.95478  0.04938  0.32386  1.0000
  C   C520      1.0  0.74763  0.28137  0.25656  1.0000
  H   H417      1.0  0.95506  0.21971  0.39864  1.0000
  C   C521      1.0  0.87185  0.30440  0.18898  1.0000
  H   H418      1.0  0.89143  0.10231  0.36051  1.0000
  H   H419      1.0  0.78623  0.28457  0.35532  1.0000
  C   C522      1.0  0.79601  0.18804  0.17448  1.0000
  C   C523      1.0  0.77102  0.17867  0.14532  1.0000
  C   C524      1.0  0.74518  0.20211  0.13386  1.0000
  C   C525      1.0  0.74410  0.23486  0.15182  1.0000
  C   C526      1.0  0.76903  0.24442  0.18133  1.0000
  C   C527      1.0  0.79496  0.22073  0.19242  1.0000
  H   H420      1.0  0.91585  0.06132  0.24749  1.0000
  C   C528      1.0  0.88000  0.03075  0.21219  1.0000
  H   H421      1.0  0.81563  0.16963  0.18400  1.0000
  H   H422      1.0  0.77112  0.15291  0.13249  1.0000
  H   H423      1.0  0.72515  0.19436  0.11230  1.0000
  H   H424      1.0  0.72325  0.25208  0.14333  1.0000
  H   H425      1.0  0.81399  0.22741  0.21554  1.0000
  C   C529      1.0  0.87160  0.27948  0.32759  1.0000
  C   C530      1.0  0.98405  0.06561  0.34134  1.0000
  P   P19       1.0  0.76724  0.28588  0.20669  1.0000
  H   H426      1.0  0.76112  0.22765  0.26377  1.0000
  H   H427      1.0  0.90237  0.27680  0.41419  1.0000
  S   S77       1.0  0.73235  0.01676  0.29003  1.0000
  H   H428      1.0  0.86246  0.17577  0.34474  1.0000
  H   H429      1.0  0.88989  0.26238  0.31286  1.0000
  C   C531      1.0  0.82919  0.06360  0.43575  1.0000
  C   C532      1.0  0.85412  0.04022  0.42194  1.0000
  C   C533      1.0  0.88924  0.04461  0.43273  1.0000
  C   C534      1.0  0.89976  0.07359  0.45523  1.0000
  C   C535      1.0  0.87511  0.09832  0.46740  1.0000
  C   C536      1.0  0.83961  0.09250  0.45825  1.0000
  H   H430      1.0  0.69151  0.29319  0.19823  1.0000
  C   C537      1.0  0.91733  0.09185  0.35571  1.0000
  C   C538      1.0  0.83656  0.26984  0.33208  1.0000
  C   C539      1.0  0.90799  0.03534  0.23920  1.0000
  C   C540      1.0  0.64545  0.32608  0.39306  1.0000
  C   C541      1.0  0.74867  0.11291  0.49626  1.0000
  H   H431      1.0  0.82757  0.24504  0.32067  1.0000
  C   C542      1.0  0.81129  0.30279  0.21168  1.0000
  H   H432      1.0  0.75350  0.02104  0.37833  1.0000
  H   H433      1.0  0.96024  0.28837  0.38280  1.0000
  H   H434      1.0  0.89801  0.04929  0.32043  1.0000
  C   C543      1.0  0.89485  0.16631  0.44099  1.0000
  C   C544      1.0  0.87194  0.16293  0.40757  1.0000
  C   C545      1.0  0.87952  0.17943  0.37082  1.0000
  C   C546      1.0  0.90986  0.19943  0.36726  1.0000
  C   C547      1.0  0.93170  0.20413  0.40097  1.0000
  C   C548      1.0  0.92373  0.18861  0.43803  1.0000
  H   H435      1.0  0.80185  0.06024  0.42768  1.0000
  P   P20       1.0  0.96090  0.01268  0.29103  1.0000
  C   C549      1.0  0.95786  0.28699  0.41558  1.0000
  C   C550      1.0  0.81334  0.29212  0.35157  1.0000
  H   H436      1.0  0.82003  0.11129  0.46648  1.0000
  H   H437      1.0  0.92724  0.07706  0.46133  1.0000
  C   C551      1.0  0.92506  0.28084  0.43337  1.0000
  H   H438      1.0  0.80642  0.03001  0.28820  1.0000
  H   H439      1.0  0.96113  0.12504  0.46248  1.0000
  C   C552      1.0  0.66351  0.30524  0.42067  1.0000
  H   H440      1.0  0.73007  0.22061  0.32862  1.0000
  C   C553      1.0  0.82019  0.32491  0.24407  1.0000
  H   H441      1.0  0.91079  0.31771  0.33797  1.0000
  C   C554      1.0  0.73804  0.28085  0.47846  1.0000
  C   C555      1.0  0.83724  0.29338  0.18352  1.0000
  C   C556      1.0  0.63047  0.23749  0.02036  1.0000
  C   C557      1.0  0.88343  0.31136  0.34201  1.0000
  C   C558      1.0  0.77370  0.28839  0.47387  1.0000
  Fe  Fe39      1.0  0.54810  0.29866  0.22343  1.0000
  H   H442      1.0  0.83108  0.27678  0.15789  1.0000
  H   H443      1.0  0.84628  0.01913  0.40214  1.0000
  H   H444      1.0  0.63872  0.29242  0.02243  1.0000
  S   S78       1.0  0.56286  0.30016  0.15717  1.0000
  H   H445      1.0  0.84519  0.20278  0.47820  1.0000
  C   C559      1.0  0.74063  0.31528  0.17760  1.0000
  C   C560      1.0  0.71268  0.30515  0.31166  1.0000
  H   H446      1.0  0.60215  0.32901  0.35073  1.0000
  H   H447      1.0  0.56311  0.31132  0.06041  1.0000
  C   C561      1.0  0.96091  0.13105  0.49467  1.0000
  H   H448      1.0  0.86804  0.32896  0.44773  1.0000
  H   H449      1.0  0.69825  0.32642  0.32462  1.0000
  H   H450      1.0  0.00295  0.10868  0.37678  1.0000
  H   H451      1.0  0.78568  0.30933  0.49097  1.0000
  H   H452      1.0  0.72257  0.29643  0.49900  1.0000
  C   C562      1.0  0.55947  0.32585  0.03258  1.0000
  C   C563      1.0  0.83609  0.18786  0.50390  1.0000
  C   C564      1.0  0.82521  0.32384  0.36680  1.0000
  H   H453      1.0  0.66227  0.11909  0.49161  1.0000
  H   H454      1.0  0.60702  0.32778  0.47757  1.0000
  Fe  Fe40      1.0  0.86986  0.27361  0.56319  1.0000
  H   H455      1.0  0.90785  0.20232  0.75592  1.0000
  Fe  Fe41      1.0  0.81560  0.25314  0.62778  1.0000
  S   S79       1.0  0.84169  0.28492  0.67632  1.0000
  S   S80       1.0  0.76085  0.23196  0.63393  1.0000
  C   C565      1.0  0.66892  0.31368  0.82141  1.0000
  Fe  Fe42      1.0  0.89174  0.26421  0.64987  1.0000
  S   S81       1.0  0.81766  0.29466  0.58089  1.0000
  S   S82       1.0  0.86509  0.22843  0.60540  1.0000
  H   H456      1.0  0.80005  0.13519  0.59512  1.0000
  C   C566      1.0  0.75711  0.22627  0.94472  1.0000
  C   C567      1.0  0.74486  0.24343  0.77906  1.0000
  H   H457      1.0  0.56110  0.21763  0.81977  1.0000
  Fe  Fe43      1.0  0.73625  0.04324  0.68239  1.0000
  S   S83       1.0  0.73391  0.09015  0.72293  1.0000
  S   S84       1.0  0.76817  0.04921  0.62582  1.0000
  C   C568      1.0  0.77062  0.24530  0.86375  1.0000
  C   C569      1.0  0.88332  0.24516  0.78612  1.0000
  C   C570      1.0  0.75587  0.19110  0.65622  1.0000
  C   C571      1.0  0.72661  0.17091  0.64591  1.0000
  C   C572      1.0  0.72076  0.13913  0.66507  1.0000
  C   C573      1.0  0.74368  0.12779  0.69537  1.0000
  C   C574      1.0  0.77331  0.14769  0.70522  1.0000
  C   C575      1.0  0.77967  0.17914  0.68520  1.0000
  H   H458      1.0  0.70829  0.17988  0.62321  1.0000
  H   H459      1.0  0.69794  0.12380  0.65726  1.0000
  H   H460      1.0  0.79118  0.13879  0.72844  1.0000
  H   H461      1.0  0.80234  0.19466  0.69293  1.0000
  H   H462      1.0  0.85260  0.16888  0.74890  1.0000
  C   C576      1.0  0.72958  0.23629  0.91937  1.0000
  H   H463      1.0  0.74039  0.08732  0.55373  1.0000
  C   C577      1.0  0.62328  0.27533  0.96244  1.0000
  C   C578      1.0  0.65013  0.28528  0.83610  1.0000
  C   C579      1.0  0.62241  0.29002  0.86367  1.0000
  H   H464      1.0  0.94871  0.28181  0.53324  1.0000
  H   H465      1.0  0.71149  0.23622  0.54161  1.0000
  H   H466      1.0  0.98527  0.06909  0.75535  1.0000
  C   C580      1.0  0.60880  0.21542  0.85562  1.0000
  H   H467      1.0  0.70134  0.26474  0.69207  1.0000
  C   C581      1.0  0.97787  0.04923  0.54602  1.0000
  C   C582      1.0  0.62438  0.15730  0.80789  1.0000
  C   C583      1.0  0.64792  0.16850  0.83783  1.0000
  C   C584      1.0  0.64027  0.19751  0.86151  1.0000
  C   C585      1.0  0.79323  0.17965  0.55712  1.0000
  C   C586      1.0  0.69369  0.21755  0.72538  1.0000
  H   H468      1.0  0.91051  0.00780  0.54442  1.0000
  H   H469      1.0  0.62957  0.26195  0.62523  1.0000
  C   C587      1.0  0.92693  0.02643  0.71926  1.0000
  C   C588      1.0  0.59315  0.17512  0.80162  1.0000
  C   C589      1.0  0.63861  0.25891  0.59415  1.0000
  S   S85       1.0  0.93602  0.24484  0.68865  1.0000
  H   H470      1.0  0.69431  0.17188  0.76233  1.0000
  C   C590      1.0  0.93067  0.14942  0.55567  1.0000
  C   C591      1.0  0.85194  0.25900  0.80049  1.0000
  C   C592      1.0  0.61327  0.32367  0.87523  1.0000
  H   H471      1.0  0.94867  0.24558  0.60172  1.0000
  C   C593      1.0  0.86512  0.04005  0.54551  1.0000
  H   H472      1.0  0.65729  0.25987  0.82556  1.0000
  H   H473      1.0  0.52655  0.31722  0.93688  1.0000
  H   H474      1.0  0.54213  0.22816  0.93721  1.0000
  C   C594      1.0  0.68484  0.24473  0.54663  1.0000
  C   C595      1.0  0.99375  0.14269  0.55632  1.0000
  H   H475      1.0  0.00456  0.22148  0.71158  1.0000
  C   C596      1.0  0.92937  0.13903  0.51462  1.0000
  H   H476      1.0  0.84390  0.15137  0.65307  1.0000
  S   S86       1.0  0.89933  0.30808  0.60614  1.0000
  C   C597      1.0  0.82092  0.20792  0.77736  1.0000
  C   C598      1.0  0.97303  0.23440  0.65940  1.0000
  H   H477      1.0  0.67499  0.20699  0.70378  1.0000
  H   H478      1.0  0.63037  0.13480  0.78951  1.0000
  H   H479      1.0  0.62375  0.30127  0.95065  1.0000
  C   C599      1.0  0.72968  0.21081  0.78559  1.0000
  H   H480      1.0  0.71483  0.25367  0.85981  1.0000
  C   C600      1.0  0.85324  0.15764  0.51592  1.0000
  S   S87       1.0  0.69185  0.01467  0.65152  1.0000
  C   C601      1.0  0.67308  0.24898  0.58664  1.0000
  C   C602      1.0  0.58536  0.20413  0.82531  1.0000
  H   H481      1.0  0.70312  0.23699  0.93116  1.0000
  H   H482      1.0  0.81273  0.21831  0.94955  1.0000
  H   H483      1.0  0.73832  0.19477  0.81056  1.0000
  C   C603      1.0  0.66208  0.25055  0.51370  1.0000
  C   C604      1.0  0.62065  0.20932  0.99621  1.0000
  P   P21       1.0  0.77929  0.25921  0.81223  1.0000
  H   H484      1.0  0.79722  0.19294  0.77359  1.0000
  H   H485      1.0  0.82494  0.23556  0.87883  1.0000
  C   C605      1.0  0.81056  0.15006  0.57001  1.0000
  H   H486      1.0  0.90760  0.04663  0.72046  1.0000
  H   H487      1.0  0.57493  0.16640  0.77836  1.0000
  H   H488      1.0  0.58889  0.27184  0.56746  1.0000
  C   C606      1.0  0.53913  0.32891  0.96296  1.0000
  C   C607      1.0  0.82027  0.24083  0.79533  1.0000
  C   C608      1.0  0.73629  0.24570  0.87902  1.0000
  C   C609      1.0  0.79817  0.23565  0.88959  1.0000
  C   C610      1.0  0.85241  0.19401  0.76344  1.0000
  H   H489      1.0  0.55361  0.29533  0.83310  1.0000
  C   C611      1.0  0.99890  0.09267  0.69763  1.0000
  C   C612      1.0  0.80625  0.19882  0.52460  1.0000
  C   C613      1.0  0.97220  0.23711  0.61693  1.0000
  H   H490      1.0  0.60341  0.19204  0.93739  1.0000
  C   C614      1.0  0.92794  0.09574  0.66301  1.0000
  C   C615      1.0  0.89631  0.08081  0.64986  1.0000
  C   C616      1.0  0.86604  0.10067  0.64663  1.0000
  C   C617      1.0  0.86726  0.13586  0.65577  1.0000
  C   C618      1.0  0.89867  0.15108  0.66852  1.0000
  C   C619      1.0  0.92884  0.13111  0.67253  1.0000
  C   C620      1.0  0.88354  0.21273  0.76754  1.0000
  H   H491      1.0  0.89969  0.17844  0.67537  1.0000
  H   H492      1.0  0.93607  0.06302  0.58591  1.0000
  C   C621      1.0  0.79136  0.22595  0.92983  1.0000
  Fe  Fe44      1.0  0.72658  0.01680  0.59647  1.0000
  H   H493      1.0  0.81512  0.06582  0.54526  1.0000
  H   H494      1.0  0.76895  0.18701  0.57127  1.0000
  H   H495      1.0  0.89502  0.05360  0.64269  1.0000
  H   H496      1.0  0.84160  0.08858  0.63736  1.0000
  H   H497      1.0  0.95270  0.14361  0.68277  1.0000
  H   H498      1.0  0.69066  0.24418  0.61189  1.0000
  H   H499      1.0  0.87963  0.06254  0.55530  1.0000
  P   P22       1.0  0.59959  0.25350  0.88554  1.0000
  C   C622      1.0  0.84055  0.13914  0.54952  1.0000
  C   C623      1.0  0.61575  0.26453  0.56161  1.0000
  P   P23       1.0  0.96661  0.06931  0.66827  1.0000
  C   C624      1.0  0.82886  0.04189  0.54003  1.0000
  H   H500      1.0  0.69014  0.31013  0.79994  1.0000
  C   C625      1.0  0.96362  0.05758  0.58399  1.0000
  C   C626      1.0  0.96275  0.15121  0.57628  1.0000
  H   H501      1.0  0.85351  0.11601  0.55936  1.0000
  H   H502      1.0  0.90737  0.15750  0.57159  1.0000
  C   C627      1.0  0.70447  0.19783  0.75857  1.0000
  H   H503      1.0  0.96384  0.16055  0.60736  1.0000
  C   C628      1.0  0.55295  0.26117  0.88539  1.0000
  C   C629      1.0  0.78066  0.30585  0.81010  1.0000
  S   S88       1.0  0.70487  0.02295  0.53317  1.0000
  C   C630      1.0  0.98204  0.00330  0.69559  1.0000
  C   C631      1.0  0.95718  0.02978  0.69522  1.0000
  H   H504      1.0  0.00095  0.23049  0.56102  1.0000
  C   C632      1.0  0.00185  0.22857  0.59390  1.0000
  H   H505      1.0  0.90754  0.25975  0.78864  1.0000
  H   H506      1.0  0.96127  0.04813  0.51930  1.0000
  C   C633      1.0  0.99284  0.13263  0.51551  1.0000
  C   C634      1.0  0.70849  0.25008  0.71882  1.0000
  H   H507      1.0  0.67215  0.15464  0.84255  1.0000
  C   C635      1.0  0.53783  0.28321  0.85644  1.0000
  H   H508      1.0  0.65895  0.20602  0.88428  1.0000
  H   H509      1.0  0.75196  0.21891  0.97598  1.0000
  H   H510      1.0  0.74645  0.28734  0.73844  1.0000
  H   H511      1.0  0.85247  0.28404  0.81510  1.0000
  H   H512      1.0  0.66802  0.32425  0.61482  1.0000
  C   C636      1.0  0.53141  0.24550  0.91476  1.0000
  C   C637      1.0  0.73424  0.26283  0.74526  1.0000
  Fe  Fe45      1.0  0.84644  0.32536  0.62792  1.0000
  H   H513      1.0  0.74611  0.31384  0.86165  1.0000
  C   C638      1.0  0.61200  0.21409  0.95519  1.0000
  C   C639      1.0  0.61338  0.24716  0.93783  1.0000
  Fe  Fe46      1.0  0.79233  0.99933  0.64488  1.0000
  C   C640      1.0  0.00368  0.22329  0.67873  1.0000
  C   C641      1.0  0.98496  0.05909  0.61883  1.0000
  C   C642      1.0  0.62732  0.26007  0.52155  1.0000
  C   C643      1.0  0.88261  0.00893  0.53916  1.0000
  H   H514      1.0  0.00574  0.00529  0.67781  1.0000
  C   C644      1.0  0.73711  0.08577  0.52108  1.0000
  C   C645      1.0  0.63179  0.27045  0.00347  1.0000
  C   C646      1.0  0.81002  0.01261  0.52822  1.0000
  H   H515      1.0  0.72953  0.30749  0.60210  1.0000
  H   H516      1.0  0.81363  0.30797  0.75646  1.0000
  H   H517      1.0  0.79281  0.22184  0.51499  1.0000
  H   H518      1.0  0.59154  0.32823  0.89566  1.0000
  C   C647      1.0  0.79966  0.32260  0.77927  1.0000
  H   H519      1.0  0.53538  0.28345  0.00038  1.0000
  C   C648      1.0  0.54409  0.31005  0.99865  1.0000
  H   H520      1.0  0.78186  0.01395  0.52446  1.0000
  H   H521      1.0  0.67286  0.17969  0.51041  1.0000
  C   C649      1.0  0.00228  0.08708  0.73972  1.0000
  C   C650      1.0  0.76150  0.32579  0.83797  1.0000
  H   H522      1.0  0.76075  0.13532  0.50963  1.0000
  C   C651      1.0  0.54394  0.43478  0.07284  1.0000
  H   H523      1.0  0.71785  0.66562  0.06520  1.0000
  C   C652      1.0  0.93978  0.38131  0.34082  1.0000
  Fe  Fe47      1.0  0.64008  0.57575  0.18315  1.0000
  S   S89       1.0  0.59393  0.60432  0.15825  1.0000
  S   S90       1.0  0.63155  0.53108  0.22574  1.0000
  Fe  Fe48      1.0  0.62591  0.60581  0.10058  1.0000
  C   C653      1.0  0.56433  0.44890  0.04144  1.0000
  S   S91       1.0  0.75010  0.63963  0.14291  1.0000
  H   H524      1.0  0.87877  0.49198  0.31755  1.0000
  S   S92       1.0  0.67041  0.57446  0.12479  1.0000
  S   S93       1.0  0.66669  0.62357  0.20566  1.0000
  Fe  Fe49      1.0  0.56318  0.35755  0.16556  1.0000
  S   S94       1.0  0.60586  0.38903  0.13605  1.0000
  C   C654      1.0  0.85006  0.41481  0.44501  1.0000
  H   H525      1.0  0.55149  0.54741  0.21707  1.0000
  H   H526      1.0  0.65498  0.35180  0.38631  1.0000
  C   C655      1.0  0.59683  0.34524  0.50039  1.0000
  C   C656      1.0  0.61626  0.42734  0.16217  1.0000
  C   C657      1.0  0.60885  0.43103  0.20361  1.0000
  C   C658      1.0  0.61526  0.46252  0.22339  1.0000
  C   C659      1.0  0.62791  0.49082  0.20147  1.0000
  C   C660      1.0  0.63650  0.48680  0.16039  1.0000
  C   C661      1.0  0.63136  0.45490  0.14099  1.0000
  H   H527      1.0  0.59851  0.40962  0.22059  1.0000
  H   H528      1.0  0.60970  0.46511  0.25552  1.0000
  H   H529      1.0  0.64669  0.50824  0.14330  1.0000
  H   H530      1.0  0.63754  0.45226  0.10907  1.0000
  C   C662      1.0  0.53076  0.52843  0.21293  1.0000
  C   C663      1.0  0.68301  0.33637  0.15891  1.0000
  C   C664      1.0  0.62459  0.65825  0.36753  1.0000
  H   H531      1.0  0.68052  0.66184  0.36264  1.0000
  C   C665      1.0  0.97856  0.37301  0.41231  1.0000
  C   C666      1.0  0.64092  0.42291  0.02271  1.0000
  H   H532      1.0  0.51928  0.58347  0.05709  1.0000
  H   H533      1.0  0.58062  0.37252  0.05776  1.0000
  H   H534      1.0  0.62956  0.41570  0.05170  1.0000
  C   C667      1.0  0.60403  0.59127  0.29332  1.0000
  P   P24       1.0  0.87496  0.37591  0.37916  1.0000
  C   C668      1.0  0.85865  0.40977  0.34659  1.0000
  H   H535      1.0  0.98971  0.38228  0.31024  1.0000
  C   C669      1.0  0.54083  0.45236  0.10992  1.0000
  H   H536      1.0  0.68200  0.38064  0.11963  1.0000
  H   H537      1.0  0.58628  0.54245  0.31639  1.0000
  H   H538      1.0  0.86172  0.35326  0.27396  1.0000
  C   C670      1.0  0.56885  0.36073  0.03117  1.0000
  C   C671      1.0  0.87674  0.44137  0.34444  1.0000
  C   C672      1.0  0.86460  0.46771  0.31918  1.0000
  C   C673      1.0  0.83427  0.46280  0.29599  1.0000
  C   C674      1.0  0.81596  0.43157  0.29814  1.0000
  C   C675      1.0  0.82799  0.40518  0.32341  1.0000
  C   C676      1.0  0.92228  0.37744  0.37819  1.0000
  H   H539      1.0  0.52783  0.44017  0.13542  1.0000
  H   H540      1.0  0.85016  0.43687  0.42497  1.0000
  H   H541      1.0  0.78416  0.34334  0.15101  1.0000
  H   H542      1.0  0.63133  0.58377  0.29256  1.0000
  C   C677      1.0  0.74647  0.62862  0.02989  1.0000
  H   H543      1.0  0.55552  0.49744  0.14434  1.0000
  H   H544      1.0  0.58771  0.52465  0.08750  1.0000
  H   H545      1.0  0.92514  0.38387  0.31271  1.0000
  C   C678      1.0  0.57853  0.56798  0.30673  1.0000
  C   C679      1.0  0.85995  0.35423  0.45787  1.0000
  H   H546      1.0  0.90025  0.44571  0.36232  1.0000
  C   C680      1.0  0.85087  0.35902  0.49868  1.0000
  H   H547      1.0  0.74677  0.38464  0.11428  1.0000
  C   C681      1.0  0.97634  0.38045  0.33925  1.0000
  H   H548      1.0  0.61409  0.64214  0.27000  1.0000
  S   S95       1.0  0.59800  0.59098  0.04209  1.0000
  C   C682      1.0  0.69843  0.36224  0.13537  1.0000
  H   H549      1.0  0.82492  0.48323  0.27636  1.0000
  H   H550      1.0  0.79240  0.42785  0.28015  1.0000
  H   H551      1.0  0.81331  0.38135  0.32446  1.0000
  C   C683      1.0  0.57932  0.48185  0.04667  1.0000
  C   C684      1.0  0.73489  0.36450  0.13250  1.0000
  H   H552      1.0  0.55366  0.49245  0.25467  1.0000
  C   C685      1.0  0.85999  0.38211  0.43080  1.0000
  C   C686      1.0  0.59430  0.62397  0.28007  1.0000
  H   H553      1.0  0.59514  0.49342  0.02292  1.0000
  H   H554      1.0  0.67302  0.57832  0.03504  1.0000
  C   C687      1.0  0.54322  0.57734  0.30679  1.0000
  H   H555      1.0  0.92952  0.36942  0.44316  1.0000
  S   S96       1.0  0.55211  0.35585  0.23249  1.0000
  H   H556      1.0  0.62489  0.63139  0.37642  1.0000
  H   H557      1.0  0.54743  0.35158  0.46963  1.0000
  C   C688      1.0  0.57505  0.49979  0.08321  1.0000
  Fe  Fe50      1.0  0.69286  0.62540  0.14506  1.0000
  C   C689      1.0  0.53319  0.60988  0.29232  1.0000
  C   C690      1.0  0.94200  0.37338  0.41400  1.0000
  H   H558      1.0  0.53142  0.40987  0.06946  1.0000
  Fe  Fe51      1.0  0.62334  0.65257  0.17537  1.0000
  H   H559      1.0  0.83333  0.44474  0.49693  1.0000
  H   H560      1.0  0.53590  0.64531  0.06511  1.0000
  C   C691      1.0  0.53212  0.49735  0.23408  1.0000
  C   C692      1.0  0.55641  0.48472  0.11508  1.0000
  H   H561      1.0  0.55205  0.65877  0.26898  1.0000
  H   H562      1.0  0.73442  0.63457  0.25058  1.0000
  C   C693      1.0  0.75599  0.34107  0.15347  1.0000
  C   C694      1.0  0.85472  0.33657  0.24879  1.0000
  H   H563      1.0  0.69332  0.42415  0.04688  1.0000
  C   C695      1.0  0.74265  0.65601  0.26961  1.0000
  H   H564      1.0  0.59598  0.66513  0.05049  1.0000
  H   H565      1.0  0.75980  0.61809  0.05624  1.0000
  H   H566      1.0  0.52183  0.61592  0.21023  1.0000
  C   C696      1.0  0.99571  0.37615  0.37498  1.0000
  C   C697      1.0  0.55907  0.63330  0.27960  1.0000
  H   H567      1.0  0.79729  0.64889  0.25643  1.0000
  C   C698      1.0  0.84051  0.41942  0.48585  1.0000
  S   S97       1.0  0.65111  0.65712  0.11539  1.0000
  C   C699      1.0  0.72258  0.65535  0.03497  1.0000
  C   C700      1.0  0.66017  0.56908  0.00774  1.0000
  C   C701      1.0  0.77822  0.66412  0.27280  1.0000
  C   C702      1.0  0.67713  0.42746  0.02008  1.0000
  H   H568      1.0  0.65471  0.33470  0.16124  1.0000
  H   H569      1.0  0.80703  0.34050  0.38256  1.0000
  H   H570      1.0  0.52412  0.55905  0.31796  1.0000
  H   H571      1.0  0.99364  0.36860  0.43980  1.0000
  H   H572      1.0  0.56837  0.66191  0.36933  1.0000
  C   C703      1.0  0.56325  0.35871  0.49584  1.0000
  H   H573      1.0  0.72936  0.33409  0.25957  1.0000
  S   S98       1.0  0.50693  0.36422  0.14759  1.0000
  C   C704      1.0  0.86029  0.33398  0.36158  1.0000
  H   H574      1.0  0.50731  0.48691  0.02572  1.0000
  H   H575      1.0  0.90772  0.33341  0.22648  1.0000
  H   H576      1.0  0.80072  0.33274  0.26601  1.0000
  Fe  Fe52      1.0  0.66354  0.50068  0.84586  1.0000
  S   S99       1.0  0.68427  0.50542  0.78176  1.0000
  S   S100      1.0  0.68992  0.52422  0.90135  1.0000
  Fe  Fe53      1.0  0.60369  0.45330  0.82031  1.0000
  S   S101      1.0  0.61750  0.45540  0.75434  1.0000
  S   S102      1.0  0.56436  0.41885  0.85061  1.0000
  Fe  Fe54      1.0  0.67300  0.44859  0.77509  1.0000
  S   S103      1.0  0.69972  0.40085  0.75113  1.0000
  Fe  Fe55      1.0  0.62736  0.51184  0.76592  1.0000
  S   S104      1.0  0.61020  0.55195  0.72090  1.0000
  S   S105      1.0  0.65832  0.44343  0.84069  1.0000
  S   S106      1.0  0.60744  0.51037  0.83002  1.0000
  H   H577      1.0  0.57986  0.56349  0.96361  1.0000
  H   H578      1.0  0.55011  0.57368  0.79216  1.0000
  C   C705      1.0  0.61147  0.59469  0.73894  1.0000
  C   C706      1.0  0.61776  0.60208  0.78005  1.0000
  C   C707      1.0  0.61868  0.63643  0.79374  1.0000
  C   C708      1.0  0.60658  0.62178  0.71150  1.0000
  H   H579      1.0  0.62227  0.58139  0.80129  1.0000
  H   H580      1.0  0.62401  0.64198  0.82546  1.0000
  H   H581      1.0  0.60200  0.61624  0.67962  1.0000
  C   C709      1.0  0.73460  0.39721  0.71651  1.0000
  C   C710      1.0  0.75444  0.42560  0.70387  1.0000
  C   C711      1.0  0.78379  0.42060  0.67866  1.0000
  C   C712      1.0  0.79342  0.38727  0.66636  1.0000
  H   H582      1.0  0.52121  0.54293  0.99370  1.0000
  C   C713      1.0  0.74353  0.36412  0.70297  1.0000
  H   H583      1.0  0.74768  0.45121  0.71420  1.0000
  H   H584      1.0  0.79950  0.44250  0.66939  1.0000
  C   C714      1.0  0.68653  0.34341  0.60428  1.0000
  H   H585      1.0  0.81475  0.37129  0.75295  1.0000
  C   C715      1.0  0.52858  0.40553  0.82090  1.0000
  C   C716      1.0  0.67608  0.37774  0.59879  1.0000
  H   H586      1.0  0.54868  0.60499  0.91725  1.0000
  H   H587      1.0  0.78012  0.40595  0.80163  1.0000
  H   H588      1.0  0.54572  0.37730  0.93284  1.0000
  C   C717      1.0  0.52700  0.41203  0.77901  1.0000
  C   C718      1.0  0.57843  0.36686  0.66024  1.0000
  C   C719      1.0  0.61915  0.45865  0.58416  1.0000
  H   H589      1.0  0.77215  0.59525  0.98703  1.0000
  H   H590      1.0  0.54866  0.42464  0.76404  1.0000
  C   C720      1.0  0.53617  0.60424  0.88766  1.0000
  H   H591      1.0  0.52412  0.39209  0.52136  1.0000
  C   C721      1.0  0.68010  0.55419  0.97635  1.0000
  C   C722      1.0  0.66401  0.54254  0.94036  1.0000
  C   C723      1.0  0.62783  0.54630  0.93588  1.0000
  C   C724      1.0  0.60782  0.56091  0.96734  1.0000
  H   H592      1.0  0.64321  0.34351  0.53689  1.0000
  C   C725      1.0  0.61940  0.49431  0.59080  1.0000
  H   H593      1.0  0.61525  0.53793  0.90821  1.0000
  H   H594      1.0  0.51343  0.59044  0.67956  1.0000
  P   P25       1.0  0.57256  0.42576  0.99471  1.0000
  H   H595      1.0  0.54285  0.48405  0.68132  1.0000
  P   P26       1.0  0.63103  0.38998  0.60703  1.0000
  C   C726      1.0  0.69730  0.65293  0.87125  1.0000
  C   C727      1.0  0.69821  0.59989  0.83171  1.0000
  C   C728      1.0  0.69398  0.61694  0.86891  1.0000
  H   H596      1.0  0.77989  0.33335  0.66861  1.0000
  H   H597      1.0  0.74592  0.37706  0.85580  1.0000
  H   H598      1.0  0.55964  0.37289  0.63686  1.0000
  C   C729      1.0  0.63055  0.43614  0.61488  1.0000
  C   C730      1.0  0.53002  0.50572  0.69568  1.0000
  C   C731      1.0  0.58921  0.34874  0.72969  1.0000
  H   H599      1.0  0.65443  0.43344  0.67482  1.0000
  C   C732      1.0  0.66020  0.34692  0.83406  1.0000
  H   H600      1.0  0.69577  0.57209  0.83034  1.0000
  H   H601      1.0  0.68772  0.60201  0.89576  1.0000
  H   H602      1.0  0.77263  0.35159  0.57944  1.0000
  H   H603      1.0  0.67481  0.36889  0.82277  1.0000
  C   C733      1.0  0.53663  0.58640  0.81694  1.0000
  C   C734      1.0  0.54023  0.49708  0.91081  1.0000
  C   C735      1.0  0.55265  0.58767  0.85526  1.0000
  C   C736      1.0  0.64462  0.48566  0.65753  1.0000
  C   C737      1.0  0.63187  0.50777  0.62763  1.0000
  H   H604      1.0  0.57818  0.57631  0.85970  1.0000
  H   H605      1.0  0.65486  0.49625  0.68578  1.0000
  H   H606      1.0  0.63191  0.53537  0.63313  1.0000
  C   C738      1.0  0.62388  0.57221  0.00347  1.0000
  C   C739      1.0  0.54907  0.36354  0.96124  1.0000
  C   C740      1.0  0.62515  0.35226  0.72327  1.0000
  H   H607      1.0  0.54016  0.64997  0.76408  1.0000
  H   H608      1.0  0.61017  0.51161  0.56734  1.0000
  H   H609      1.0  0.70811  0.55171  0.97999  1.0000
  C   C741      1.0  0.57061  0.39091  0.55865  1.0000
  H   H610      1.0  0.62505  0.37774  0.86993  1.0000
  H   H611      1.0  0.66571  0.36733  0.68207  1.0000
  C   C742      1.0  0.51325  0.56587  0.69505  1.0000
  H   H612      1.0  0.61910  0.43960  0.92394  1.0000
  H   H613      1.0  0.54032  0.54042  0.64607  1.0000
  C   C743      1.0  0.70435  0.61872  0.79622  1.0000
  H   H614      1.0  0.68324  0.44939  0.92049  1.0000
  C   C744      1.0  0.78083  0.37813  0.80457  1.0000
  C   C745      1.0  0.56230  0.38023  0.99604  1.0000
  H   H615      1.0  0.83466  0.39522  0.54467  1.0000
  C   C746      1.0  0.77297  0.35908  0.67829  1.0000
  C   C747      1.0  0.52176  0.65779  0.74082  1.0000
  H   H616      1.0  0.56019  0.40911  0.58053  1.0000
  H   H617      1.0  0.58574  0.48880  0.94769  1.0000
  S   S107      1.0  0.83115  0.38110  0.63644  1.0000
  C   C748      1.0  0.64401  0.45002  0.65128  1.0000
  C   C749      1.0  0.61459  0.37109  0.65374  1.0000
  C   C750      1.0  0.69224  0.43722  0.98317  1.0000
  C   C751      1.0  0.75342  0.61583  0.99093  1.0000
  C   C752      1.0  0.70607  0.65470  0.79793  1.0000
  H   H618      1.0  0.69360  0.42885  0.58080  1.0000
  C   C753      1.0  0.52848  0.53747  0.67578  1.0000
  C   C754      1.0  0.71143  0.65579  0.96200  1.0000
  C   C755      1.0  0.61943  0.42861  0.98862  1.0000
  H   H619      1.0  0.51774  0.47794  0.75050  1.0000
  H   H620      1.0  0.61048  0.44895  0.55492  1.0000
  C   C756      1.0  0.73537  0.39258  0.57828  1.0000
  C   C757      1.0  0.63224  0.35190  0.86068  1.0000
  C   C758      1.0  0.70073  0.40219  0.58530  1.0000
  C   C759      1.0  0.63780  0.36340  0.68559  1.0000
  C   C760      1.0  0.60438  0.37736  0.56367  1.0000
  C   C761      1.0  0.67123  0.44139  0.94872  1.0000
  C   C762      1.0  0.63493  0.43647  0.95108  1.0000
  C   C763      1.0  0.73630  0.62958  0.95701  1.0000
  C   C764      1.0  0.51609  0.50229  0.73475  1.0000
  C   C765      1.0  0.72118  0.33380  0.59681  1.0000
  C   C766      1.0  0.55014  0.38152  0.52498  1.0000
  C   C767      1.0  0.54720  0.44857  0.95679  1.0000
  C   C768      1.0  0.56016  0.47905  0.93938  1.0000
  H   H621      1.0  0.72804  0.34217  0.71242  1.0000
  H   H622      1.0  0.72019  0.44185  0.98122  1.0000
  H   H623      1.0  0.85231  0.33757  0.51962  1.0000
  H   H624      1.0  0.70633  0.60548  0.76721  1.0000
  H   H625      1.0  0.55077  0.52010  0.89683  1.0000
  H   H626      1.0  0.57942  0.34133  0.75941  1.0000
  H   H627      1.0  0.98395  0.41887  0.91639  1.0000
  H   H628      1.0  0.57769  0.64106  0.98487  1.0000
  H   H629      1.0  0.64186  0.64032  0.97769  1.0000
  C   C769      1.0  0.80023  0.35856  0.77704  1.0000
  C   C770      1.0  0.60881  0.65612  0.72489  1.0000
  C   C771      1.0  0.76143  0.36176  0.83498  1.0000
  H   H630      1.0  0.74283  0.61972  0.92720  1.0000
  C   C772      1.0  0.56586  0.35573  0.69805  1.0000
  H   H631      1.0  0.75468  0.41172  0.56948  1.0000
  C   C773      1.0  0.74552  0.35846  0.58384  1.0000
  C   C774      1.0  0.62648  0.65522  0.95649  1.0000
  C   C775      1.0  0.59008  0.65547  0.96070  1.0000
  C   C776      1.0  0.51300  0.43766  0.94696  1.0000
  H   H632      1.0  0.64332  0.34762  0.74795  1.0000
  H   H633      1.0  0.53791  0.35337  0.70325  1.0000
  C   C777      1.0  0.61731  0.35437  0.53418  1.0000
  C   C778      1.0  0.84112  0.39156  0.51275  1.0000
  C   C779      1.0  0.61436  0.66355  0.76614  1.0000
  C   C780      1.0  0.50701  0.48503  0.89970  1.0000
  Fe  Fe56      1.0  0.90928  0.80430  0.27014  1.0000
  S   S108      1.0  0.90787  0.83549  0.32749  1.0000
  Fe  Fe57      1.0  0.83028  0.79509  0.26648  1.0000
  S   S109      1.0  0.82252  0.82595  0.32372  1.0000
  S   S110      1.0  0.77870  0.77928  0.23837  1.0000
  Fe  Fe58      1.0  0.86251  0.86187  0.29757  1.0000
  S   S111      1.0  0.86437  0.91961  0.29929  1.0000
  Fe  Fe59      1.0  0.86821  0.79660  0.34852  1.0000
  S   S112      1.0  0.86383  0.77641  0.41298  1.0000
  S   S113      1.0  0.86691  0.83368  0.23834  1.0000
  S   S114      1.0  0.87292  0.76258  0.29333  1.0000
  C   C781      1.0  0.00112  0.84333  0.27244  1.0000
  C   C782      1.0  0.62380  0.72755  0.34458  1.0000
  C   C783      1.0  0.62675  0.84437  0.37536  1.0000
  C   C784      1.0  0.96192  0.79805  0.45272  1.0000
  C   C785      1.0  0.93241  0.79318  0.42790  1.0000
  C   C786      1.0  0.90063  0.78411  0.44421  1.0000
  C   C787      1.0  0.52551  0.73118  0.08301  1.0000
  C   C788      1.0  0.65585  0.71005  0.34672  1.0000
  H   H634      1.0  0.92901  0.95096  0.25390  1.0000
  C   C789      1.0  0.87545  0.88789  0.45842  1.0000
  C   C790      1.0  0.82674  0.94519  0.29615  1.0000
  C   C791      1.0  0.99927  0.81212  0.25059  1.0000
  C   C792      1.0  0.52404  0.82363  0.18493  1.0000
  C   C793      1.0  0.80676  0.83149  0.47636  1.0000
  C   C794      1.0  0.76372  0.95305  0.29409  1.0000
  C   C795      1.0  0.79292  0.93109  0.29603  1.0000
  C   C796      1.0  0.65604  0.67549  0.35929  1.0000
  C   C797      1.0  0.87069  0.92262  0.46902  1.0000
  H   H635      1.0  0.73752  0.94235  0.29425  1.0000
  H   H636      1.0  0.78931  0.90345  0.29741  1.0000
  C   C798      1.0  0.77227  0.74060  0.21112  1.0000
  C   C799      1.0  0.80014  0.72096  0.19635  1.0000
  C   C800      1.0  0.73106  0.69872  0.18289  1.0000
  C   C801      1.0  0.73785  0.72945  0.20412  1.0000
  H   H637      1.0  0.82679  0.72950  0.20152  1.0000
  H   H638      1.0  0.71639  0.74439  0.21590  1.0000
  C   C802      1.0  0.56794  0.71753  0.21860  1.0000
  C   C803      1.0  0.54014  0.70999  0.19213  1.0000
  H   H639      1.0  0.95027  0.72922  0.32351  1.0000
  H   H640      1.0  0.74015  0.77326  0.49639  1.0000
  H   H641      1.0  0.63400  0.83302  0.07256  1.0000
  C   C804      1.0  0.56312  0.74110  0.25035  1.0000
  H   H642      1.0  0.54385  0.69198  0.16734  1.0000
  C   C805      1.0  0.85508  0.94484  0.44074  1.0000
  C   C806      1.0  0.68179  0.87503  0.38343  1.0000
  C   C807      1.0  0.84149  0.93202  0.40426  1.0000
  H   H643      1.0  0.82997  0.81602  0.48036  1.0000
  C   C808      1.0  0.74701  0.87205  0.46506  1.0000
  C   C809      1.0  0.70520  0.78307  0.44619  1.0000
  C   C810      1.0  0.76416  0.71389  0.31413  1.0000
  C   C811      1.0  0.69149  0.76925  0.30454  1.0000
  C   C812      1.0  0.66667  0.76875  0.27295  1.0000
  C   C813      1.0  0.66347  0.79700  0.24690  1.0000
  C   C814      1.0  0.68620  0.82518  0.25089  1.0000
  C   C815      1.0  0.71172  0.82539  0.28146  1.0000
  C   C816      1.0  0.71425  0.79764  0.30838  1.0000
  C   C817      1.0  0.94171  0.93045  0.36552  1.0000
  H   H644      1.0  0.62296  0.75459  0.33675  1.0000
  C   C818      1.0  0.76645  0.98213  0.42250  1.0000
  S   S115      1.0  0.95943  0.79148  0.23766  1.0000
  C   C819      1.0  0.83124  0.98096  0.29460  1.0000
  H   H645      1.0  0.64413  0.79646  0.22273  1.0000
  H   H646      1.0  0.68476  0.84641  0.22959  1.0000
  H   H647      1.0  0.73047  0.84645  0.28332  1.0000
  H   H648      1.0  0.73505  0.79768  0.33083  1.0000
  H   H649      1.0  0.91137  0.96708  0.33185  1.0000
  C   C820      1.0  0.73761  0.72731  0.40794  1.0000
  C   C821      1.0  0.79333  0.69018  0.17471  1.0000
  H   H650      1.0  0.74988  0.70507  0.39425  1.0000
  C   C822      1.0  0.91564  0.97349  0.24246  1.0000
  C   C823      1.0  0.97524  0.92013  0.37716  1.0000
  H   H651      1.0  0.70437  0.69017  0.17833  1.0000
  H   H652      1.0  0.82889  0.94908  0.38272  1.0000
  H   H653      1.0  0.52860  0.82377  0.21749  1.0000
  H   H654      1.0  0.93085  0.96155  0.44965  1.0000
  C   C824      1.0  0.96347  0.79406  0.49774  1.0000
  H   H655      1.0  0.76897  0.72385  0.46237  1.0000
  H   H656      1.0  0.97853  0.89770  0.39637  1.0000
  H   H657      1.0  0.98519  0.78274  0.32094  1.0000
  S   S116      1.0  0.60940  0.69864  0.21403  1.0000
  C   C825      1.0  0.86244  0.87531  0.42143  1.0000
  C   C826      1.0  0.71151  0.74566  0.38718  1.0000
  C   C827      1.0  0.50751  0.72617  0.19775  1.0000
  C   C828      1.0  0.57621  0.68354  0.05937  1.0000
  H   H658      1.0  0.77284  0.93980  0.46333  1.0000
  H   H659      1.0  0.65045  0.74618  0.26762  1.0000
  H   H660      1.0  0.65993  0.85953  0.32562  1.0000
  C   C829      1.0  0.75874  0.67890  0.16825  1.0000
  C   C830      1.0  0.73189  0.76534  0.46617  1.0000
  H   H661      1.0  0.86602  0.84857  0.41320  1.0000
  C   C831      1.0  0.97500  0.71110  0.37858  1.0000
  C   C832      1.0  0.58502  0.71834  0.06290  1.0000
  H   H662      1.0  0.77289  0.73719  0.32946  1.0000
  H   H663      1.0  0.67456  0.78745  0.39154  1.0000
  H   H664      1.0  0.69327  0.83196  0.10253  1.0000
  C   C833      1.0  0.98327  0.96413  0.47307  1.0000
  H   H665      1.0  0.70462  0.88686  0.36955  1.0000
  C   C834      1.0  0.64685  0.86104  0.44271  1.0000
  C   C835      1.0  0.88791  0.96898  0.21502  1.0000
  C   C836      1.0  0.74477  0.99800  0.39402  1.0000
  H   H666      1.0  0.95870  0.68824  0.38065  1.0000
  H   H667      1.0  0.88899  0.87033  0.47838  1.0000
  H   H668      1.0  0.60718  0.83252  0.35577  1.0000
  C   C837      1.0  0.89792  0.78167  0.48598  1.0000
  C   C838      1.0  0.93747  0.95906  0.34023  1.0000
  H   H669      1.0  0.91892  0.91597  0.37539  1.0000
  H   H670      1.0  0.52720  0.77450  0.28136  1.0000
  H   H671      1.0  0.84760  0.99393  0.18011  1.0000
  H   H672      1.0  0.74361  0.84654  0.40620  1.0000
  C   C839      1.0  0.53064  0.75660  0.25638  1.0000
  H   H673      1.0  0.70964  0.78607  0.15139  1.0000
  C   C840      1.0  0.94725  0.95775  0.47616  1.0000
  C   C841      1.0  0.67704  0.87616  0.42587  1.0000
  H   H674      1.0  0.93476  0.79576  0.39525  1.0000
  C   C842      1.0  0.72237  0.93773  0.43342  1.0000
  H   H675      1.0  0.61160  0.72643  0.05629  1.0000
  H   H676      1.0  0.59859  0.83373  0.43071  1.0000
  C   C843      1.0  0.86978  0.99755  0.20032  1.0000
  H   H677      1.0  0.69255  0.80449  0.46119  1.0000
  C   C844      1.0  0.75544  0.95198  0.44192  1.0000
  C   C845      1.0  0.57219  0.80887  0.03399  1.0000
  C   C846      1.0  0.74815  0.73754  0.44700  1.0000
  P   P27       1.0  0.70858  0.89835  0.45802  1.0000
  C   C847      1.0  0.71139  0.98459  0.38629  1.0000
  C   C848      1.0  0.62195  0.84506  0.41753  1.0000
  C   C849      1.0  0.78741  0.82868  0.44038  1.0000
  C   C850      1.0  0.00025  0.96736  0.33852  1.0000
  H   H678      1.0  0.79563  0.81085  0.41679  1.0000
  H   H679      1.0  0.60651  0.74263  0.14223  1.0000
  C   C851      1.0  0.65659  0.85944  0.35836  1.0000
  C   C852      1.0  0.96673  0.97679  0.32516  1.0000
  C   C853      1.0  0.84451  0.89713  0.39508  1.0000
  H   H680      1.0  0.58458  0.74728  0.27060  1.0000
  H   H681      1.0  0.98388  0.80528  0.43410  1.0000
  H   H682      1.0  0.87974  0.94316  0.20637  1.0000
  H   H683      1.0  0.83370  0.88733  0.36693  1.0000
  H   H684      1.0  0.85315  0.97203  0.44686  1.0000
  C   C854      1.0  0.69991  0.95495  0.40646  1.0000
  H   H685      1.0  0.66583  0.74146  0.17075  1.0000
  H   H686      1.0  0.67368  0.94548  0.40060  1.0000
  C   C855      1.0  0.54217  0.67243  0.06758  1.0000
  C   C856      1.0  0.55995  0.74231  0.07573  1.0000
  H   H687      1.0  0.85724  0.99205  0.29496  1.0000
  P   P28       1.0  0.57244  0.78689  0.08242  1.0000
  C   C857      1.0  0.54191  0.80736  0.11659  1.0000
  C   C858      1.0  0.61572  0.78774  0.10490  1.0000
  C   C859      1.0  0.62517  0.76223  0.13303  1.0000
  C   C860      1.0  0.65891  0.76151  0.14937  1.0000
  C   C861      1.0  0.68346  0.78664  0.13845  1.0000
  C   C862      1.0  0.67418  0.81247  0.11093  1.0000
  C   C863      1.0  0.64047  0.81301  0.09407  1.0000
  C   C864      1.0  0.54815  0.80814  0.15876  1.0000
  H   H688      1.0  0.56761  0.72343  0.34924  1.0000
  P   P29       1.0  0.69671  0.73237  0.33725  1.0000
  C   C865      1.0  0.72845  0.70509  0.31258  1.0000
  C   C866      1.0  0.71774  0.67671  0.28884  1.0000
  C   C867      1.0  0.69519  0.77344  0.40674  1.0000
  C   C868      1.0  0.59274  0.67547  0.36371  1.0000
  C   C869      1.0  0.51094  0.82173  0.10119  1.0000
  H   H689      1.0  0.57057  0.85996  0.06070  1.0000
  H   H690      1.0  0.57118  0.79637  0.17173  1.0000
  C   C870      1.0  0.75780  0.84902  0.43455  1.0000
  H   H691      1.0  0.97728  0.85648  0.28075  1.0000
  C   C871      1.0  0.76849  0.98893  0.29174  1.0000
  C   C872      1.0  0.78895  0.69319  0.29482  1.0000
  C   C873      1.0  0.59234  0.71012  0.35234  1.0000
  C   C874      1.0  0.00004  0.71820  0.40868  1.0000
  C   C875      1.0  0.57121  0.84506  0.03275  1.0000
  C   C876      1.0  0.51666  0.69629  0.07893  1.0000
  C   C877      1.0  0.97012  0.73414  0.34652  1.0000
  C   C878      1.0  0.99015  0.76428  0.34470  1.0000
  H   H692      1.0  0.79174  0.99322  0.42946  1.0000
  H   H693      1.0  0.64213  0.86186  0.47517  1.0000
  H   H694      1.0  0.81484  0.67494  0.16339  1.0000
  H   H695      1.0  0.67548  0.96041  0.49207  1.0000
  H   H696      1.0  0.81635  0.70057  0.29542  1.0000
  C   C879      1.0  0.76730  0.87546  0.50069  1.0000
  H   H697      1.0  0.99445  0.97254  0.44444  1.0000
  H   H698      1.0  0.69446  0.99737  0.36460  1.0000
  C   C880      1.0  0.00450  0.93891  0.36415  1.0000
  H   H699      1.0  0.00243  0.70084  0.43428  1.0000
  H   H700      1.0  0.69025  0.67102  0.28417  1.0000
  H   H701      1.0  0.87291  0.77497  0.49927  1.0000
  C   C881      1.0  0.79697  0.85511  0.50632  1.0000
  H   H702      1.0  0.94183  0.94727  0.76012  1.0000
  H   H703      1.0  0.91055  0.80246  0.74778  1.0000
  S   S117      1.0  0.93451  0.86896  0.70455  1.0000
  H   H704      1.0  0.70213  0.69969  0.83551  1.0000
  C   C882      1.0  0.97673  0.97400  0.71950  1.0000
  Fe  Fe60      1.0  0.57554  0.74062  0.79440  1.0000
  S   S118      1.0  0.55531  0.78111  0.75168  1.0000
  S   S119      1.0  0.62188  0.70631  0.78193  1.0000
  C   C883      1.0  0.56952  0.67405  0.93349  1.0000
  Fe  Fe61      1.0  0.55878  0.81649  0.80587  1.0000
  S   S120      1.0  0.58008  0.87119  0.80508  1.0000
  S   S121      1.0  0.58286  0.77704  0.84692  1.0000
  H   H705      1.0  0.90896  0.76320  0.80731  1.0000
  H   H706      1.0  0.57174  0.79289  0.93196  1.0000
  Fe  Fe62      1.0  0.98990  0.86405  0.68104  1.0000
  Fe  Fe63      1.0  0.72185  0.96688  0.66762  1.0000
  S   S122      1.0  0.69966  0.91343  0.67977  1.0000
  S   S123      1.0  0.75375  0.96718  0.61005  1.0000
  C   C884      1.0  0.61343  0.88270  0.77021  1.0000
  C   C885      1.0  0.62981  0.85793  0.74592  1.0000
  C   C886      1.0  0.65614  0.86787  0.71837  1.0000
  C   C887      1.0  0.66628  0.90260  0.71476  1.0000
  C   C888      1.0  0.65019  0.92737  0.73928  1.0000
  C   C889      1.0  0.62389  0.91740  0.76697  1.0000
  H   H707      1.0  0.62222  0.83111  0.74841  1.0000
  H   H708      1.0  0.66871  0.84851  0.69979  1.0000
  H   H709      1.0  0.65791  0.95416  0.73686  1.0000
  H   H710      1.0  0.61142  0.93667  0.78577  1.0000
  C   C890      1.0  0.82738  0.98149  0.52202  1.0000
  H   H711      1.0  0.65984  0.76460  0.81517  1.0000
  H   H712      1.0  0.74046  0.76650  0.72472  1.0000
  H   H713      1.0  0.77931  0.76422  0.89587  1.0000
  C   C891      1.0  0.89478  0.87801  0.56119  1.0000
  C   C892      1.0  0.91141  0.90500  0.68654  1.0000
  C   C893      1.0  0.92717  0.92852  0.66009  1.0000
  C   C894      1.0  0.90843  0.95713  0.64610  1.0000
  C   C895      1.0  0.87369  0.96210  0.65801  1.0000
  C   C896      1.0  0.85794  0.93898  0.68505  1.0000
  C   C897      1.0  0.87685  0.91043  0.69921  1.0000
  H   H714      1.0  0.95408  0.92525  0.65119  1.0000
  H   H715      1.0  0.92089  0.97547  0.62596  1.0000
  H   H716      1.0  0.83111  0.94277  0.69447  1.0000
  H   H717      1.0  0.86462  0.89228  0.71951  1.0000
  C   C898      1.0  0.97326  0.81391  0.56430  1.0000
  H   H718      1.0  0.64959  0.92863  0.61329  1.0000
  H   H719      1.0  0.75628  0.70449  0.89538  1.0000
  C   C899      1.0  0.62148  0.69130  0.89670  1.0000
  C   C900      1.0  0.58519  0.69142  0.90112  1.0000
  H   H720      1.0  0.60671  0.67690  0.70316  1.0000
  H   H721      1.0  0.68665  0.74052  0.75286  1.0000
  C   C901      1.0  0.64244  0.67383  0.92491  1.0000
  H   H722      1.0  0.55110  0.70367  0.72611  1.0000
  C   C902      1.0  0.73949  0.72541  0.90494  1.0000
  H   H723      1.0  0.74994  0.86288  0.61179  1.0000
  C   C903      1.0  0.73151  0.78629  0.91841  1.0000
  P   P30       1.0  0.68923  0.67470  0.91892  1.0000
  H   H724      1.0  0.68724  0.81448  0.85014  1.0000
  C   C904      1.0  0.68401  0.74601  0.93079  1.0000
  H   H725      1.0  0.72830  0.93939  0.77102  1.0000
  C   C905      1.0  0.94636  0.97060  0.74277  1.0000
  H   H726      1.0  0.63318  0.70495  0.87134  1.0000
  H   H727      1.0  0.56914  0.70511  0.87953  1.0000
  C   C906      1.0  0.99062  0.94914  0.54399  1.0000
  C   C907      1.0  0.00144  0.75192  0.52180  1.0000
  C   C908      1.0  0.92691  0.78757  0.51144  1.0000
  C   C909      1.0  0.75262  0.75916  0.90529  1.0000
  H   H728      1.0  0.65762  0.74148  0.94157  1.0000
  H   H729      1.0  0.50882  0.72349  0.67417  1.0000
  H   H730      1.0  0.76052  0.89416  0.52394  1.0000
  C   C910      1.0  0.86386  0.97940  0.52720  1.0000
  H   H731      1.0  0.67389  0.87088  0.59977  1.0000
  P   P31       1.0  0.88611  0.93919  0.51730  1.0000
  H   H732      1.0  0.54137  0.67467  0.93710  1.0000
  H   H733      1.0  0.85637  0.82905  0.72274  1.0000
  C   C911      1.0  0.87508  0.90823  0.55654  1.0000
  C   C912      1.0  0.57259  0.79022  0.99729  1.0000
  H   H734      1.0  0.99582  0.95353  0.71930  1.0000
  H   H735      1.0  0.80682  0.77186  0.69413  1.0000
  H   H736      1.0  0.85261  0.75095  0.84210  1.0000
  H   H737      1.0  0.79801  0.77789  0.81785  1.0000
  C   C913      1.0  0.66046  0.94762  0.55301  1.0000
  C   C914      1.0  0.57223  0.80753  0.96004  1.0000
  C   C915      1.0  0.99260  0.84018  0.52862  1.0000
  S   S124      1.0  0.52236  0.72321  0.81448  1.0000
  Fe  Fe64      1.0  0.52774  0.76289  0.86389  1.0000
  H   H738      1.0  0.77302  0.81013  0.57811  1.0000
  H   H739      1.0  0.91919  0.78530  0.54296  1.0000
  C   C916      1.0  0.88538  0.85361  0.59062  1.0000
  C   C917      1.0  0.85676  0.85934  0.61597  1.0000
  C   C918      1.0  0.83707  0.88921  0.61155  1.0000
  C   C919      1.0  0.84616  0.91355  0.58217  1.0000
  H   H740      1.0  0.99034  0.86786  0.53092  1.0000
  H   H741      1.0  0.57029  0.85668  0.92988  1.0000
  H   H742      1.0  0.72869  0.87796  0.75253  1.0000
  H   H743      1.0  0.00442  0.72430  0.52001  1.0000
  C   C920      1.0  0.57118  0.84347  0.95896  1.0000
  H   H744      1.0  0.78279  0.96826  0.79506  1.0000
  C   C921      1.0  0.97786  0.76953  0.56093  1.0000
  C   C922      1.0  0.70499  0.71864  0.91731  1.0000
  H   H745      1.0  0.74175  0.81241  0.91889  1.0000
  C   C923      1.0  0.68820  0.88243  0.53752  1.0000
  H   H746      1.0  0.74203  0.83990  0.82402  1.0000
  C   C924      1.0  0.52818  0.68816  0.71916  1.0000
  H   H747      1.0  0.85046  0.84115  0.63983  1.0000
  H   H748      1.0  0.81565  0.89447  0.63216  1.0000
  H   H749      1.0  0.83109  0.93693  0.58103  1.0000
  H   H750      1.0  0.96666  0.75307  0.58404  1.0000
  H   H751      1.0  0.65029  0.97312  0.55929  1.0000
  H   H752      1.0  0.95946  0.82493  0.58975  1.0000
  H   H753      1.0  0.91754  0.87339  0.54239  1.0000
  C   C925      1.0  0.67391  0.88998  0.57571  1.0000
  H   H754      1.0  0.56951  0.89014  0.99451  1.0000
  H   H755      1.0  0.90056  0.83048  0.59454  1.0000
  H   H756      1.0  0.80183  0.76500  0.61962  1.0000
  H   H757      1.0  0.75630  0.87061  0.68537  1.0000
  C   C926      1.0  0.66011  0.92259  0.58345  1.0000
  C   C927      1.0  0.95469  0.94243  0.54709  1.0000
  C   C928      1.0  0.69721  0.77972  0.93110  1.0000
  H   H758      1.0  0.81270  0.85794  0.53362  1.0000
  H   H759      1.0  0.83781  0.93487  0.80072  1.0000
  H   H760      1.0  0.94414  0.93410  0.57594  1.0000
  C   C929      1.0  0.93275  0.94651  0.51316  1.0000
  H   H761      1.0  0.68086  0.80072  0.94146  1.0000
  H   H762      1.0  0.83862  0.87341  0.78291  1.0000
  C   C930      1.0  0.69908  0.76216  0.76826  1.0000
  C   C931      1.0  0.68392  0.77565  0.80348  1.0000
  C   C932      1.0  0.69950  0.80369  0.82330  1.0000
  C   C933      1.0  0.73034  0.81826  0.80801  1.0000
  C   C934      1.0  0.74510  0.80568  0.77174  1.0000
  C   C935      1.0  0.72956  0.77706  0.75239  1.0000
  P   P32       1.0  0.78374  0.82598  0.75054  1.0000
  C   C936      1.0  0.82307  0.80535  0.76837  1.0000
  C   C937      1.0  0.78178  0.82182  0.69560  1.0000
  C   C938      1.0  0.76602  0.84731  0.67172  1.0000
  C   C939      1.0  0.76256  0.84298  0.62961  1.0000
  C   C940      1.0  0.77552  0.81337  0.61077  1.0000
  C   C941      1.0  0.79175  0.78799  0.63416  1.0000
  C   C942      1.0  0.79475  0.79209  0.67641  1.0000
  C   C943      1.0  0.82231  0.78324  0.80213  1.0000
  C   C944      1.0  0.85320  0.76794  0.81599  1.0000
  C   C945      1.0  0.88496  0.77476  0.79637  1.0000
  C   C946      1.0  0.88586  0.79673  0.76275  1.0000
  C   C947      1.0  0.85504  0.81183  0.74864  1.0000
  C   C948      1.0  0.78382  0.87103  0.76526  1.0000
  C   C949      1.0  0.75272  0.89002  0.76306  1.0000
  C   C950      1.0  0.75235  0.92486  0.77387  1.0000
  C   C951      1.0  0.78301  0.94107  0.78736  1.0000
  C   C952      1.0  0.81397  0.92227  0.79046  1.0000
  C   C953      1.0  0.81434  0.88731  0.77987  1.0000
  C   C954      1.0  0.70234  0.67180  0.83523  1.0000
  H   H763      1.0  0.68672  0.68970  0.00574  1.0000
  H   H764      1.0  0.69868  0.85700  0.53202  1.0000
  S   S125      1.0  0.00378  0.87979  0.61758  1.0000
  C   C955      1.0  0.67497  0.94031  0.51490  1.0000
  S   S126      1.0  0.51283  0.74218  0.92570  1.0000
  C   C956      1.0  0.70512  0.66892  0.00122  1.0000
  C   C957      1.0  0.57068  0.86225  0.99535  1.0000
  C   C958      1.0  0.68926  0.90777  0.50698  1.0000
  S   S127      1.0  0.76335  0.99520  0.70378  1.0000
  H   H765      1.0  0.89751  0.99380  0.75988  1.0000
  C   C959      1.0  0.00498  0.95959  0.50692  1.0000
  H   H766      1.0  0.70889  0.66939  0.77013  1.0000
  H   H767      1.0  0.81232  0.95888  0.51365  1.0000
  H   H768      1.0  0.57242  0.76233  0.99699  1.0000
  S   S128      1.0  0.85069  0.99692  0.63737  1.0000
  C   C960      1.0  0.92139  0.99673  0.74248  1.0000
