data_image0
_chemical_formula_structural       FeSH2CPCSH2C2H2FeS2C2HC4H2C4SH4C2HC3H2C2H2C5HCH3CH3CH3C2HC3H2C2HC3SCHCHSC3HCFeC2HFeC3S2H3SC3H2SC3H3PC3HC3FeCH2C3HC2H3FeC2HCH2C2HCH3C3HCH2C2H2C3PC5SH2C4H4CHC7H3CH3CH3CFeHCSHCHFeCSCH2CHC2H3CH2FeH2FeC2HSHCHSH5CHS2HC6H3C4H2CHCH2C4SCHC2HCHCHC5PCHCHCH3CH2C2H3FeHSC2H4C2HSC2HCHCHCHC2HC3HC6SHC3H4C3SC2H2CHCHC2HC2SH2CH4C2HC3H2C7SH3CH2CPCHCHCHC2H6C2HC4HCH2C3HCH2C2H2PCHC2PCHSHC2FeCH2SC3HC4SFeHFeS2FeSHFeSFeHSFeSHFeSHFeCFeS3CH2C6H4C2HSHC4FeHCPC3HCH4CH2SC3HC2H3C2HSHC2HCHC6HC3PCHCH2C3H2CSHC2SCHC4H2CHCHC5HC2HSHC2H3CHCH6C3H5C3PHC2HC2HC2H2C3H2CHCHCHC7HCHC2HCH2CH7CHC2H4CHC5HCH2PHC3HCH2CSHCH2C5HCHC4HFeSHFeSCFeSFeHSCH2FeSC2HS2FeSCFeSCFeSFeS3FeCFeCSHFeHS2CH2CHCHCH2CHCH2C2HCHCH2CFeCH2CHCHCHC2SHC8H5C2HC2HCHC2H3C2H3CHCH5C2SC3P2C3H2CSCH2CHPCH2C2SH2CH3CHC2PC2HC6H3C2H3C4H2FeHCHC3HPC2H2CH2C2H2CHCSCHC2HCHC2H2C3HC8PC18H6C2PCHCHC2HCH2CHC3HC3H4CSCH2CH2C3HC4H2SH2C2HC2SHC3HC2H2C2FePC8H2C2H8CHCH3CH9CHC2H2C4HC5H2C3HC3HCHCHC2PC3H3C2HC2PCH2CHCHCPHCHCH2C3FeC3HC2HC4SCSC6HCSH3C4HC2H2C3H2C3HC4SHC2H2CH2CHCHC2HCH2C2HC2SH2SFeCSFeSHCHCSCFeSHC2HFeH2FeSHFeCS2H3SHC2Fe2CFeCFeHSH3S2H8C3HFeH2FeC5H2CHC2HCH2CFeCHS2HC2HC2H4C3SH2CH2C2H2CHC4SC4PC4HFeCH3CSC2H2C5H7CPHCH2CPHFeSC2H3PHCH3CHPHCHC2HCHC5HC6PC18H8C6H3CHCHCH2C2H3CHC2HC4HCH2CSC4HCSC4HC2HCSHCHCHCH5C4HC2HC2HS2CHCH4C2SH4PH2CHCFeCHCHC2H5C7H2C2HC3HCHC4PHC2HCHC2HC10HCH4C2H3S2C2H2C3H3C3FeC3H5CH3C3H7C2HC3SC2SH3SHCHC4FeH2CHCH2C2H3C4H2C2H2C6HC4HC2SC2HCH4C2H2CH2CHC2HC3H6CSCSHCHCSHC2H2FeHFeCSFeSFeS2FeSFeC2FeCS2FeSHFeCSHCHC3HFeC5H3S2C3HC3H2CSHCH5CSC2H2FeCHCH2C3HCHS2C3H3PH2CPC9HSCH3SHC2H3CH4C2HCHC5HC3PC9H2C8H18C6PCH4CSC11H5C2H6CSCH5SHCSC3HCHCSC2HC2HC3HC2HC3HC4H4CHFeCHSC3HC2FeSHFeS2FeCFeSCSFeC2FeS2CH2CS2C3H2C2H2C8SFeCH2CPH2C8H4C5HC2H3CHCH2C2HC3HCH2SH3C2H7C2SC6HCHC3H4SH2CHC2H3C2H2FeHCH2C7PC18H20C3PC8HCHCHC2H2CH4SHCHPHSHPHCH2SCHCHCH2CHCHC2H5C7H2C4HC3HCHC3FeSCFeS2FeSFePSHFeCSFeS2FeC3S2H3CHCH2C6H5C2H5C8HCHFeC3HC2HC4H2C4SHC7HCH2CHCHCH7C4H2PHCH4CH3CHC3H5C2HCH2C7PC3PC4HC9H2SH3C2H4CHC2H3CHC3HSHPCHC2H2C5H2CSHC2HC2HCH2CH2CHC5HC2H3C3HC2H2CH5CH2C2H2CHCHCH2CHCFeS2HCFeSHSCSCSCFeC2H2C2SCHFeSHSCHCFeH3SC2H4C5HC3HCH2C2HPC3HCH2C6H6CH2C4HC3S2C2PC2H3SCH3CHC5H2FeH4C5H2C3H3CH3CH2CHC2H2C3HC7PCHC2HCH3PH2C4H4CHCH2C3SHC2SC3HCH4CHCHCHCSHCHCH2C4HC2PHCHC2H3C2HC6HCH2CH2CHCHC2HC2H2CH2CFeSCFeHFe2CFeHSCSC2HFeHS2FeSHFeHFeHSFeHFeSFeCS2FeHFeHCFeCS2CSC2HC2HC2SHC2FeH2C3HC4H2CH7CH2C2SCHCHCH2C2HPHC2SCHCH2C6PC4HC13H7SH9CH2CH3CSCPH3C2HCH2CHC7FeCHCHC2H3C2H2SC2HCFeCSC5HC5H2C5HC2H2CSC3HCHC3HCHCHCHC2H3CH3C2HP2SCSH2CH2C2HCHCHC3H2C2HCH2C4SHCH2C2HCHC2HC5HCH2C2FeCHC8PC9HC8H20SCHC3HCH2CHCH6CH2C2H3C3HCH2C4H3C2HC2HCHCHC2HCHC2SC4HCHCHC2H2C5HCSC2H2CH4CSHCS2H2CHC2H3C3H2C2H2C2H3SH3CHSC2HC3S2C2H4CSHC3HFeSHFeSCFeCFeSCSFeCFeCHFeCS2FeSCFeSHFeHFeSCSCFeS3FeSFeHSHC2HC6H2CH2CH2C3H2SCHCH2C6H4PC4HC2HC5HC3HCHCFeH2CH2PC3HC2HPC3H3CH2C3HCH5CHSHCH3C2HC2HCHCHCH4CHCSCHCH2C4H2C2H2CHPC16HC2HC5HPH3CH2CH4C2H3C4HC2HC6HC2HC3PHCSHCH5C3HCH5C2FeH2SHC3HC3H2CH2SC2H2CHCH2C2H3C2HSHC7H4C3HSC11HC5HSHCHC5HC2HCH2CPHC2HCHCHC2HSHSHC2HCHCH2C6H3CHC2H2CH2C4H5SHCHC2H2C2HC2HCH2CHCH2CSHSH3C6FeCFeS2FeSFeS3FeSHFeSCFeHFeSHSHC6H6C2H3C4H3C2H4PHC2HC2SCHCHC4H2C2HC4HC5HC8HCHCH2C2H2CH2CH6CHC2SC2HC3P2C10HCHCHC2PHCH2CH6CH4CHC2H4C5H2CSHC2H2SCH3C2SC3HC2SHC4HCH2SH4CH2CH2CH3C4FeH2CHSC2HC4HC2HC2HFeCSFeS2C2H2C2HSH2SH2S3PH2CHC2H2CH3CH2C2FeC3H2C2HCHCH2SC4HCH3C4HCFeC2SHCHC2HCH2CSCHCH3C2H3SCH3C3PC2H3PC3SC2H3CH2C2H2CHCHCH3C2HCHCSCSHC4H4C2HCHC2H2C3PC2H2CHCH2CHC5HSC7H4C2SHC3H4CHCHC4H2C3HC2HCH2CH2CH2CHC2SC4H2SC6HC5HCHCH3CHPC3H2C3H2CHCHCHC2H2CH2C4H2C4H2SCHCH3C2H3CHC2HSHC2SHCHC2FeSHCHCFeCHC3SFeSCFeHC4HC2FeC2H2CH3C4H5CH2SFeHC2HSCHSCHCH3CH2C3HCH2CSC4HSHPH2C2H2C
_chemical_formula_sum              "Fe144 S288 H1728 C2160 P72"
_cell_length_a       81.0781
_cell_length_b       80.8686
_cell_length_c       37.456
_cell_angle_alpha    91.5658
_cell_angle_beta     91.6142
_cell_angle_gamma    116.085

_space_group_name_H-M_alt    "P 1"
_space_group_IT_number       1

loop_
  _space_group_symop_operation_xyz
  'x, y, z'

loop_
  _atom_site_type_symbol
  _atom_site_label
  _atom_site_symmetry_multiplicity
  _atom_site_fract_x
  _atom_site_fract_y
  _atom_site_fract_z
  _atom_site_occupancy
  Fe  Fe1       1.0  0.41442  0.01332  0.41182  1.0000
  S   S1        1.0  0.42779  0.00888  0.36291  1.0000
  H   H1        1.0  0.44139  0.04152  0.29239  1.0000
  H   H2        1.0  0.41110  0.05693  0.26738  1.0000
  C   C1        1.0  0.45883  0.09241  0.07477  1.0000
  P   P1        1.0  0.36737  0.00734  0.18443  1.0000
  C   C2        1.0  0.48447  0.08277  0.10898  1.0000
  S   S2        1.0  0.41996  0.04400  0.41844  1.0000
  H   H3        1.0  0.47233  0.04056  0.14877  1.0000
  H   H4        1.0  0.43823  0.08345  0.41190  1.0000
  C   C3        1.0  0.34535  0.02324  0.21047  1.0000
  C   C4        1.0  0.40047  0.03559  0.08727  1.0000
  H   H5        1.0  0.35697  0.03204  0.22787  1.0000
  H   H6        1.0  0.47980  0.12035  0.08047  1.0000
  Fe  Fe2       1.0  0.41572  0.00655  0.02092  1.0000
  S   S3        1.0  0.42929  0.00443  0.15341  1.0000
  S   S4        1.0  0.43968  0.01262  0.05853  1.0000
  C   C5        1.0  0.45415  0.07398  0.08121  1.0000
  C   C6        1.0  0.42582  0.00364  0.22599  1.0000
  H   H7        1.0  0.39445  0.04430  0.20932  1.0000
  C   C7        1.0  0.46728  0.04340  0.45740  1.0000
  C   C8        1.0  0.47779  0.04440  0.34434  1.0000
  C   C9        1.0  0.39949  0.03083  0.29240  1.0000
  C   C10       1.0  0.39267  0.03509  0.23087  1.0000
  H   H8        1.0  0.48430  0.09530  0.17793  1.0000
  H   H9        1.0  0.43958  0.06096  0.34339  1.0000
  C   C11       1.0  0.37164  0.02268  0.11715  1.0000
  C   C12       1.0  0.38045  0.01967  0.14740  1.0000
  C   C13       1.0  0.46506  0.03948  0.31528  1.0000
  C   C14       1.0  0.47915  0.02062  0.12272  1.0000
  S   S5        1.0  0.42537  0.99812  0.44732  1.0000
  H   H10       1.0  0.46278  0.22082  0.44313  1.0000
  H   H11       1.0  0.43762  0.01698  0.22680  1.0000
  H   H12       1.0  0.42384  0.03610  0.11707  1.0000
  H   H13       1.0  0.44079  0.06339  0.07198  1.0000
  C   C15       1.0  0.41876  0.99408  0.19295  1.0000
  C   C16       1.0  0.39939  0.02485  0.14727  1.0000
  H   H14       1.0  0.44422  0.13438  0.44996  1.0000
  C   C17       1.0  0.40204  0.04234  0.26383  1.0000
  C   C18       1.0  0.44002  0.08092  0.43961  1.0000
  C   C19       1.0  0.45153  0.04576  0.31446  1.0000
  H   H15       1.0  0.46207  0.07000  0.39404  1.0000
  H   H16       1.0  0.40636  0.02219  0.16988  1.0000
  C   C20       1.0  0.40935  0.03276  0.11732  1.0000
  C   C21       1.0  0.44039  0.15778  0.46895  1.0000
  H   H17       1.0  0.45224  0.04923  0.01311  1.0000
  H   H18       1.0  0.35701  0.01852  0.11610  1.0000
  C   C22       1.0  0.38165  0.03064  0.08725  1.0000
  C   C23       1.0  0.47362  0.23147  0.45960  1.0000
  C   C24       1.0  0.46328  0.06172  0.37199  1.0000
  C   C25       1.0  0.43273  0.06257  0.45050  1.0000
  C   C26       1.0  0.44949  0.09605  0.46420  1.0000
  H   H19       1.0  0.46535  0.03035  0.29384  1.0000
  C   C27       1.0  0.41756  0.99615  0.25800  1.0000
  H   H20       1.0  0.47540  0.08157  0.00632  1.0000
  H   H21       1.0  0.40655  0.03636  0.31815  1.0000
  H   H22       1.0  0.37478  0.03258  0.06362  1.0000
  C   C28       1.0  0.44853  0.05855  0.99854  1.0000
  H   H23       1.0  0.40803  0.04125  0.06362  1.0000
  H   H24       1.0  0.32823  0.03525  0.23063  1.0000
  H   H25       1.0  0.45499  0.10996  0.45518  1.0000
  C   C29       1.0  0.45055  0.05674  0.34300  1.0000
  H   H26       1.0  0.44916  0.09603  0.06038  1.0000
  H   H27       1.0  0.45797  0.04687  0.44161  1.0000
  H   H28       1.0  0.46295  0.05470  0.10176  1.0000
  C   C30       1.0  0.43506  0.05968  0.48661  1.0000
  C   C31       1.0  0.47617  0.10609  0.08590  1.0000
  H   H29       1.0  0.44692  0.16609  0.44661  1.0000
  C   C32       1.0  0.46691  0.06912  0.09797  1.0000
  C   C33       1.0  0.32903  0.02512  0.21213  1.0000
  C   C34       1.0  0.38088  0.01615  0.22600  1.0000
  H   H30       1.0  0.42298  0.00373  0.28318  1.0000
  H   H31       1.0  0.46713  0.00903  0.13179  1.0000
  C   C35       1.0  0.48207  0.03859  0.13200  1.0000
  C   C36       1.0  0.47722  0.05586  0.37275  1.0000
  H   H32       1.0  0.47954  0.09500  0.24260  1.0000
  C   C37       1.0  0.48422  0.04035  0.99954  1.0000
  C   C38       1.0  0.48383  0.22642  0.48446  1.0000
  C   C39       1.0  0.38769  0.01207  0.28792  1.0000
  S   S6        1.0  0.41299  0.02980  0.99131  1.0000
  C   C40       1.0  0.34646  0.01006  0.18670  1.0000
  H   H33       1.0  0.30111  0.01537  0.19143  1.0000
  C   C41       1.0  0.48543  0.04889  0.44746  1.0000
  H   H34       1.0  0.30291  0.99211  0.14916  1.0000
  S   S7        1.0  0.46705  0.99838  0.39263  1.0000
  C   C42       1.0  0.37848  0.00472  0.25490  1.0000
  C   C43       1.0  0.47591  0.99476  0.43318  1.0000
  C   C44       1.0  0.33103  0.99887  0.16458  1.0000
  H   H35       1.0  0.38577  0.00311  0.31004  1.0000
  C   C45       1.0  0.31375  0.01392  0.19007  1.0000
  Fe  Fe3       1.0  0.41981  0.99335  0.09609  1.0000
  C   C46       1.0  0.46169  0.07693  0.99454  1.0000
  C   C47       1.0  0.43896  0.13998  0.47091  1.0000
  H   H36       1.0  0.48029  0.03053  0.02055  1.0000
  Fe  Fe4       1.0  0.43755  0.99283  0.39787  1.0000
  C   C48       1.0  0.31476  0.00081  0.16628  1.0000
  C   C49       1.0  0.43283  0.02476  0.90436  1.0000
  C   C50       1.0  0.43974  0.16987  0.62471  1.0000
  S   S8        1.0  0.46196  0.11164  0.53363  1.0000
  S   S9        1.0  0.46892  0.16420  0.56054  1.0000
  H   H37       1.0  0.44348  0.08415  0.62899  1.0000
  H   H38       1.0  0.46356  0.01690  0.82775  1.0000
  H   H39       1.0  0.43711  0.14323  0.69515  1.0000
  S   S10       1.0  0.46275  0.14940  0.90914  1.0000
  C   C51       1.0  0.46494  0.07386  0.81822  1.0000
  C   C52       1.0  0.47399  0.19864  0.80840  1.0000
  C   C53       1.0  0.45028  0.17766  0.84501  1.0000
  H   H40       1.0  0.45941  0.09568  0.89263  1.0000
  H   H41       1.0  0.45671  0.17397  0.67257  1.0000
  S   S11       1.0  0.47445  0.11258  0.97282  1.0000
  C   C54       1.0  0.42611  0.06485  0.96551  1.0000
  C   C55       1.0  0.43937  0.08317  0.96098  1.0000
  C   C56       1.0  0.36485  0.13942  0.51992  1.0000
  H   H42       1.0  0.41226  0.06031  0.95445  1.0000
  H   H43       1.0  0.43564  0.09253  0.94658  1.0000
  H   H44       1.0  0.40941  0.12148  0.65946  1.0000
  P   P2        1.0  0.41780  0.16424  0.56192  1.0000
  C   C57       1.0  0.48073  0.04745  0.93796  1.0000
  C   C58       1.0  0.46764  0.05870  0.87183  1.0000
  C   C59       1.0  0.41305  0.99197  0.90453  1.0000
  H   H45       1.0  0.46492  0.07464  0.78940  1.0000
  C   C60       1.0  0.41596  0.19813  0.56324  1.0000
  C   C61       1.0  0.44620  0.19968  0.55630  1.0000
  C   C62       1.0  0.45363  0.21885  0.55504  1.0000
  Fe  Fe5       1.0  0.47969  0.15173  0.86060  1.0000
  C   C63       1.0  0.46175  0.08569  0.87626  1.0000
  H   H46       1.0  0.44869  0.18330  0.61558  1.0000
  H   H47       1.0  0.35797  0.13376  0.49412  1.0000
  C   C64       1.0  0.43340  0.14725  0.66993  1.0000
  C   C65       1.0  0.41309  0.14023  0.61721  1.0000
  C   C66       1.0  0.46448  0.07167  0.89246  1.0000
  H   H48       1.0  0.43502  0.17890  0.49379  1.0000
  C   C67       1.0  0.42344  0.21733  0.56167  1.0000
  C   C68       1.0  0.45723  0.08942  0.97590  1.0000
  H   H49       1.0  0.46389  0.07080  0.92114  1.0000
  H   H50       1.0  0.40102  0.13049  0.60192  1.0000
  H   H51       1.0  0.45500  0.06750  0.66988  1.0000
  Fe  Fe6       1.0  0.47949  0.13682  0.93660  1.0000
  C   C69       1.0  0.43052  0.05246  0.98465  1.0000
  C   C70       1.0  0.47013  0.20870  0.86768  1.0000
  H   H52       1.0  0.41462  0.22419  0.56355  1.0000
  C   C71       1.0  0.46766  0.05978  0.83445  1.0000
  H   H53       1.0  0.43935  0.16407  0.84896  1.0000
  H   H54       1.0  0.45977  0.09769  0.82667  1.0000
  C   C72       1.0  0.42730  0.18911  0.56049  1.0000
  C   C73       1.0  0.44439  0.16462  0.65729  1.0000
  H   H55       1.0  0.42979  0.11565  0.50165  1.0000
  C   C74       1.0  0.38260  0.15391  0.58653  1.0000
  H   H56       1.0  0.43444  0.03870  0.90840  1.0000
  H   H57       1.0  0.40402  0.01296  0.91498  1.0000
  H   H58       1.0  0.46823  0.22682  0.55175  1.0000
  C   C75       1.0  0.45944  0.18132  0.81309  1.0000
  C   C76       1.0  0.45722  0.09108  0.64133  1.0000
  C   C77       1.0  0.46198  0.08681  0.83913  1.0000
  H   H59       1.0  0.44556  0.07225  0.53920  1.0000
  C   C78       1.0  0.44789  0.02130  0.89650  1.0000
  H   H60       1.0  0.45700  0.99996  0.88984  1.0000
  H   H61       1.0  0.35541  0.14568  0.60579  1.0000
  C   C79       1.0  0.47955  0.21252  0.83576  1.0000
  C   C80       1.0  0.47700  0.15195  0.69732  1.0000
  H   H62       1.0  0.48273  0.09091  0.56897  1.0000
  H   H63       1.0  0.46340  0.11668  0.61619  1.0000
  C   C81       1.0  0.44430  0.07480  0.51130  1.0000
  C   C82       1.0  0.42612  0.15483  0.52619  1.0000
  C   C83       1.0  0.46375  0.08172  0.66427  1.0000
  P   P3        1.0  0.47045  0.04024  0.89335  1.0000
  C   C84       1.0  0.43379  0.16511  0.49619  1.0000
  C   C85       1.0  0.48162  0.09062  0.67958  1.0000
  C   C86       1.0  0.41780  0.13504  0.64983  1.0000
  C   C87       1.0  0.47775  0.02145  0.83676  1.0000
  C   C88       1.0  0.42391  0.15780  0.60449  1.0000
  S   S12       1.0  0.46855  0.14121  0.80313  1.0000
  H   H64       1.0  0.46011  0.22098  0.98110  1.0000
  H   H65       1.0  0.46966  0.04977  0.81773  1.0000
  C   C89       1.0  0.44544  0.00299  0.89402  1.0000
  C   C90       1.0  0.47091  0.14307  0.72970  1.0000
  C   C91       1.0  0.41548  0.01014  0.90813  1.0000
  C   C92       1.0  0.45553  0.19139  0.87217  1.0000
  H   H66       1.0  0.38929  0.15955  0.61246  1.0000
  H   H67       1.0  0.44700  0.02915  0.49565  1.0000
  H   H68       1.0  0.46037  0.12898  0.72892  1.0000
  H   H69       1.0  0.45525  0.19312  0.55364  1.0000
  C   C93       1.0  0.47584  0.03483  0.96534  1.0000
  H   H70       1.0  0.46560  0.02070  0.96048  1.0000
  C   C94       1.0  0.39304  0.15436  0.55694  1.0000
  C   C95       1.0  0.35454  0.13884  0.54956  1.0000
  C   C96       1.0  0.47256  0.02825  0.50844  1.0000
  C   C97       1.0  0.36341  0.14612  0.58282  1.0000
  C   C98       1.0  0.38404  0.14719  0.52352  1.0000
  C   C99       1.0  0.42447  0.13682  0.52763  1.0000
  C   C100      1.0  0.44227  0.22768  0.55749  1.0000
  H   H71       1.0  0.40135  0.19047  0.56636  1.0000
  H   H72       1.0  0.44867  0.18846  0.89729  1.0000
  H   H73       1.0  0.39177  0.14752  0.50021  1.0000
  C   C101      1.0  0.47451  0.23039  0.97958  1.0000
  H   H74       1.0  0.41850  0.12845  0.55011  1.0000
  H   H75       1.0  0.48088  0.20083  0.78357  1.0000
  H   H76       1.0  0.47429  0.21889  0.88967  1.0000
  C   C102      1.0  0.43085  0.12945  0.50007  1.0000
  H   H77       1.0  0.33966  0.13272  0.54674  1.0000
  H   H78       1.0  0.45554  0.17055  0.79225  1.0000
  H   H79       1.0  0.46742  0.01982  0.53132  1.0000
  C   C103      1.0  0.47799  0.15242  0.76305  1.0000
  Fe  Fe7       1.0  0.47797  0.14347  0.53698  1.0000
  H   H80       1.0  0.47106  0.14473  0.67201  1.0000
  C   C104      1.0  0.46844  0.10942  0.63413  1.0000
  S   S13       1.0  0.47793  0.19955  0.95361  1.0000
  H   H81       1.0  0.42910  0.04578  0.49580  1.0000
  C   C105      1.0  0.45146  0.09313  0.50045  1.0000
  H   H82       1.0  0.48289  0.00554  0.79518  1.0000
  Fe  Fe8       1.0  0.48558  0.17749  0.92763  1.0000
  C   C106      1.0  0.48495  0.03311  0.86751  1.0000
  S   S14       1.0  0.47850  0.20244  0.48782  1.0000
  C   C107      1.0  0.46101  0.03336  0.48808  1.0000
  H   H83       1.0  0.46859  0.28133  0.30843  1.0000
  H   H84       1.0  0.01105  0.30272  0.16117  1.0000
  C   C108      1.0  0.40325  0.35006  0.48270  1.0000
  H   H85       1.0  0.42193  0.35050  0.05626  1.0000
  C   C109      1.0  0.46487  0.35443  0.20986  1.0000
  C   C110      1.0  0.47967  0.45333  0.18159  1.0000
  H   H86       1.0  0.11569  0.46130  0.43289  1.0000
  H   H87       1.0  0.02874  0.42628  0.12530  1.0000
  H   H88       1.0  0.01954  0.39121  0.26923  1.0000
  C   C111      1.0  0.99677  0.34263  0.15428  1.0000
  H   H89       1.0  0.43525  0.31860  0.32232  1.0000
  H   H90       1.0  0.36532  0.47281  0.32672  1.0000
  Fe  Fe9       1.0  0.47887  0.33038  0.03259  1.0000
  H   H91       1.0  0.34617  0.26762  0.43016  1.0000
  H   H92       1.0  0.48341  0.40165  0.05227  1.0000
  Fe  Fe10      1.0  0.48430  0.32589  0.37124  1.0000
  C   C112      1.0  0.01870  0.33023  0.14382  1.0000
  C   C113      1.0  0.41182  0.44266  0.40750  1.0000
  H   H93       1.0  0.03862  0.46943  0.40508  1.0000
  S   S15       1.0  0.46798  0.31300  0.41992  1.0000
  H   H94       1.0  0.18715  0.48722  0.20116  1.0000
  C   C114      1.0  0.42499  0.46613  0.10037  1.0000
  H   H95       1.0  0.40147  0.36027  0.46694  1.0000
  S   S16       1.0  0.47887  0.30677  0.06433  1.0000
  H   H96       1.0  0.99756  0.42808  0.23955  1.0000
  H   H97       1.0  0.42752  0.47975  0.09207  1.0000
  H   H98       1.0  0.10579  0.43852  0.47993  1.0000
  H   H99       1.0  0.47877  0.36509  0.12544  1.0000
  H   H100      1.0  0.17073  0.46724  0.44530  1.0000
  C   C115      1.0  0.41090  0.45953  0.40785  1.0000
  H   H101      1.0  0.01779  0.46693  0.00628  1.0000
  S   S17       1.0  0.99237  0.43957  0.07750  1.0000
  S   S18       1.0  0.45260  0.33115  0.00991  1.0000
  H   H102      1.0  0.37430  0.45385  0.46477  1.0000
  C   C116      1.0  0.05866  0.45353  0.44815  1.0000
  C   C117      1.0  0.37495  0.28332  0.44495  1.0000
  C   C118      1.0  0.03901  0.47661  0.38098  1.0000
  C   C119      1.0  0.45168  0.37539  0.45094  1.0000
  C   C120      1.0  0.02313  0.41203  0.11561  1.0000
  C   C121      1.0  0.03879  0.43968  0.99225  1.0000
  H   H103      1.0  0.40057  0.28135  0.39751  1.0000
  H   H104      1.0  0.46819  0.27078  0.37013  1.0000
  H   H105      1.0  0.35523  0.44115  0.01356  1.0000
  C   C122      1.0  0.43421  0.44151  0.10513  1.0000
  C   C123      1.0  0.99043  0.31189  0.17266  1.0000
  C   C124      1.0  0.00496  0.37947  0.12536  1.0000
  C   C125      1.0  0.12546  0.45712  0.44512  1.0000
  H   H106      1.0  0.17741  0.43944  0.42970  1.0000
  H   H107      1.0  0.34189  0.46360  0.01480  1.0000
  C   C126      1.0  0.47075  0.31286  0.24149  1.0000
  H   H108      1.0  0.45453  0.37053  0.42578  1.0000
  C   C127      1.0  0.35760  0.26844  0.44711  1.0000
  H   H109      1.0  0.00840  0.48058  0.42667  1.0000
  H   H110      1.0  0.43924  0.33651  0.43241  1.0000
  C   C128      1.0  0.47487  0.47797  0.44290  1.0000
  C   C129      1.0  0.45056  0.40292  0.07688  1.0000
  C   C130      1.0  0.41850  0.30883  0.41923  1.0000
  C   C131      1.0  0.46971  0.45895  0.05820  1.0000
  S   S19       1.0  0.42374  0.40459  0.48248  1.0000
  C   C132      1.0  0.20689  0.45306  0.42935  1.0000
  H   H111      1.0  0.01058  0.40166  0.16477  1.0000
  C   C133      1.0  0.44181  0.38612  0.45133  1.0000
  C   C134      1.0  0.19375  0.47936  0.02746  1.0000
  H   H112      1.0  0.42247  0.27436  0.45542  1.0000
  C   C135      1.0  0.22331  0.46254  0.44965  1.0000
  H   H113      1.0  0.12957  0.37666  0.46526  1.0000
  C   C136      1.0  0.43193  0.28422  0.47524  1.0000
  H   H114      1.0  0.44753  0.36133  0.10101  1.0000
  C   C137      1.0  0.24714  0.48263  0.16386  1.0000
  C   C138      1.0  0.46637  0.47739  0.47528  1.0000
  C   C139      1.0  0.44057  0.47370  0.38127  1.0000
  C   C140      1.0  0.42963  0.36514  0.06276  1.0000
  C   C141      1.0  0.40837  0.45517  0.11577  1.0000
  P   P4        1.0  0.45893  0.47320  0.07287  1.0000
  C   C142      1.0  0.03418  0.49069  0.45779  1.0000
  H   H115      1.0  0.32825  0.49051  0.21300  1.0000
  C   C143      1.0  0.40464  0.43738  0.12577  1.0000
  H   H116      1.0  0.03172  0.33183  0.13383  1.0000
  C   C144      1.0  0.00665  0.37834  0.21816  1.0000
  H   H117      1.0  0.14830  0.47574  0.41598  1.0000
  H   H118      1.0  0.02303  0.35735  0.13012  1.0000
  H   H119      1.0  0.46273  0.34387  0.22887  1.0000
  C   C145      1.0  0.47841  0.31589  0.20745  1.0000
  H   H120      1.0  0.46920  0.25361  0.43654  1.0000
  H   H121      1.0  0.48091  0.46614  0.19396  1.0000
  C   C146      1.0  0.20616  0.47200  0.03418  1.0000
  C   C147      1.0  0.42710  0.44130  0.39420  1.0000
  H   H122      1.0  0.23641  0.46769  0.43697  1.0000
  H   H123      1.0  0.99174  0.45538  0.46591  1.0000
  H   H124      1.0  0.22935  0.47393  0.06564  1.0000
  Fe  Fe11      1.0  0.99084  0.42043  0.03177  1.0000
  H   H125      1.0  0.39232  0.48148  0.01184  1.0000
  S   S20       1.0  0.46936  0.35657  0.48470  1.0000
  C   C148      1.0  0.11987  0.44419  0.47164  1.0000
  C   C149      1.0  0.39158  0.48305  0.35546  1.0000
  H   H126      1.0  0.40611  0.33526  0.43701  1.0000
  H   H127      1.0  0.20727  0.45062  0.40088  1.0000
  H   H128      1.0  0.41452  0.41667  0.12773  1.0000
  H   H129      1.0  0.38098  0.48776  0.06890  1.0000
  C   C150      1.0  0.15098  0.44713  0.47862  1.0000
  C   C151      1.0  0.15649  0.46021  0.45215  1.0000
  H   H130      1.0  0.46158  0.39463  0.20216  1.0000
  S   S21       1.0  0.47081  0.31817  0.31464  1.0000
  C   C152      1.0  0.40615  0.33597  0.46588  1.0000
  C   C153      1.0  0.00667  0.38322  0.25431  1.0000
  H   H131      1.0  0.45313  0.44914  0.00881  1.0000
  C   C154      1.0  0.43800  0.45933  0.09476  1.0000
  H   H132      1.0  0.06519  0.46053  0.42461  1.0000
  C   C155      1.0  0.47047  0.38166  0.16038  1.0000
  H   H133      1.0  0.13924  0.41002  0.46217  1.0000
  C   C156      1.0  0.35816  0.45086  0.99258  1.0000
  H   H134      1.0  0.44952  0.34280  0.37065  1.0000
  C   C157      1.0  0.48051  0.27499  0.35513  1.0000
  C   C158      1.0  0.45277  0.48194  0.03331  1.0000
  H   H135      1.0  0.45489  0.49022  0.14107  1.0000
  C   C159      1.0  0.21975  0.47972  0.06161  1.0000
  C   C160      1.0  0.01285  0.39794  0.13806  1.0000
  C   C161      1.0  0.27025  0.47758  0.11536  1.0000
  H   H136      1.0  0.01901  0.38638  0.03957  1.0000
  C   C162      1.0  0.19002  0.44690  0.44572  1.0000
  C   C163      1.0  0.00708  0.31384  0.15928  1.0000
  C   C164      1.0  0.40898  0.32304  0.48630  1.0000
  C   C165      1.0  0.42532  0.47527  0.39492  1.0000
  C   C166      1.0  0.42985  0.29998  0.48583  1.0000
  C   C167      1.0  0.43794  0.39275  0.48370  1.0000
  S   S22       1.0  0.30262  0.48383  0.03674  1.0000
  H   H137      1.0  0.45342  0.45586  0.37105  1.0000
  C   C168      1.0  0.46347  0.36848  0.99974  1.0000
  C   C169      1.0  0.03524  0.46686  0.34802  1.0000
  C   C170      1.0  0.01365  0.34464  0.14150  1.0000
  H   H138      1.0  0.03322  0.41869  0.06271  1.0000
  H   H139      1.0  0.40090  0.43073  0.41852  1.0000
  H   H140      1.0  0.03251  0.46818  0.29096  1.0000
  H   H141      1.0  0.41426  0.37286  0.02433  1.0000
  C   C171      1.0  0.03107  0.43151  0.47574  1.0000
  C   C172      1.0  0.00593  0.46462  0.47258  1.0000
  C   C173      1.0  0.24912  0.49039  0.13015  1.0000
  S   S23       1.0  0.01463  0.42469  0.99450  1.0000
  C   C174      1.0  0.46406  0.44880  0.02549  1.0000
  C   C175      1.0  0.02556  0.40780  0.08033  1.0000
  H   H142      1.0  0.98999  0.38167  0.29922  1.0000
  H   H143      1.0  0.27954  0.47590  0.09706  1.0000
  C   C176      1.0  0.47396  0.36656  0.15151  1.0000
  H   H144      1.0  0.43129  0.48789  0.46912  1.0000
  C   C177      1.0  0.43587  0.39661  0.05158  1.0000
  H   H145      1.0  0.07681  0.46993  0.04149  1.0000
  C   C178      1.0  0.46232  0.43858  0.17485  1.0000
  C   C179      1.0  0.46071  0.42206  0.15886  1.0000
  H   H146      1.0  0.18368  0.47382  0.00529  1.0000
  C   C180      1.0  0.47106  0.35299  0.17604  1.0000
  C   C181      1.0  0.03557  0.47580  0.31648  1.0000
  S   S24       1.0  0.29017  0.49043  0.39353  1.0000
  H   H147      1.0  0.45883  0.41757  0.08116  1.0000
  H   H148      1.0  0.43297  0.40631  0.03630  1.0000
  C   C182      1.0  0.43544  0.47201  0.01568  1.0000
  H   H149      1.0  0.45011  0.43995  0.18207  1.0000
  H   H150      1.0  0.44716  0.41072  0.15391  1.0000
  H   H151      1.0  0.36116  0.46710  0.41917  1.0000
  H   H152      1.0  0.20565  0.46066  0.01732  1.0000
  C   C183      1.0  0.03971  0.44118  0.44594  1.0000
  C   C184      1.0  0.48076  0.28103  0.32046  1.0000
  H   H153      1.0  0.45222  0.48550  0.37208  1.0000
  C   C185      1.0  0.45479  0.39040  0.09573  1.0000
  C   C186      1.0  0.43258  0.32601  0.41136  1.0000
  C   C187      1.0  0.41673  0.29862  0.35700  1.0000
  H   H154      1.0  0.01963  0.38235  0.20553  1.0000
  H   H155      1.0  0.48308  0.36463  0.31283  1.0000
  C   C188      1.0  0.26085  0.48787  0.10603  1.0000
  C   C189      1.0  0.26828  0.46999  0.14890  1.0000
  C   C190      1.0  0.35776  0.46732  0.44683  1.0000
  C   C191      1.0  0.06931  0.45670  0.48029  1.0000
  C   C192      1.0  0.00722  0.37537  0.08965  1.0000
  C   C193      1.0  0.25674  0.47252  0.17315  1.0000
  C   C194      1.0  0.45754  0.37078  0.48307  1.0000
  S   S25       1.0  0.09338  0.47212  0.48072  1.0000
  H   H156      1.0  0.34145  0.24329  0.47316  1.0000
  H   H157      1.0  0.45683  0.37066  0.24546  1.0000
  H   H158      1.0  0.37676  0.29401  0.42645  1.0000
  C   C195      1.0  0.34598  0.47521  0.45641  1.0000
  H   H159      1.0  0.47596  0.37100  0.01490  1.0000
  H   H160      1.0  0.39915  0.46036  0.41930  1.0000
  C   C196      1.0  0.06868  0.46169  0.01852  1.0000
  P   P5        1.0  0.47412  0.39888  0.12790  1.0000
  C   C197      1.0  0.48384  0.45790  0.07920  1.0000
  H   H161      1.0  0.04311  0.45111  0.04616  1.0000
  C   C198      1.0  0.36528  0.45981  0.47268  1.0000
  H   H162      1.0  0.42801  0.42833  0.39502  1.0000
  C   C199      1.0  0.35060  0.46361  0.99341  1.0000
  H   H163      1.0  0.03190  0.45231  0.34707  1.0000
  C   C200      1.0  0.41757  0.43057  0.12051  1.0000
  C   C201      1.0  0.46430  0.38312  0.19447  1.0000
  H   H164      1.0  0.39161  0.42880  0.13713  1.0000
  H   H165      1.0  0.03185  0.43868  0.42092  1.0000
  H   H166      1.0  0.44389  0.43590  0.10074  1.0000
  H   H167      1.0  0.27623  0.46270  0.15648  1.0000
  H   H168      1.0  0.25570  0.46711  0.19959  1.0000
  H   H169      1.0  0.42539  0.45919  0.02561  1.0000
  C   C202      1.0  0.44138  0.45677  0.38077  1.0000
  C   C203      1.0  0.42532  0.37772  0.04472  1.0000
  H   H170      1.0  0.45631  0.30371  0.24360  1.0000
  C   C204      1.0  0.41083  0.29501  0.39191  1.0000
  C   C205      1.0  0.01758  0.38949  0.06733  1.0000
  C   C206      1.0  0.14376  0.46516  0.43546  1.0000
  C   C207      1.0  0.47646  0.42020  0.14930  1.0000
  H   H171      1.0  0.38767  0.47044  0.36943  1.0000
  C   C208      1.0  0.46156  0.36954  0.21914  1.0000
  H   H172      1.0  0.43692  0.38912  0.42632  1.0000
  H   H173      1.0  0.00061  0.36131  0.07880  1.0000
  C   C209      1.0  0.38983  0.28444  0.46666  1.0000
  C   C210      1.0  0.99007  0.37776  0.27130  1.0000
  C   C211      1.0  0.43844  0.32959  0.37645  1.0000
  H   H174      1.0  0.39821  0.46033  0.11935  1.0000
  C   C212      1.0  0.01549  0.47903  0.45038  1.0000
  H   H175      1.0  0.47367  0.34137  0.16851  1.0000
  H   H176      1.0  0.41095  0.28792  0.33597  1.0000
  C   C213      1.0  0.44432  0.37141  0.08812  1.0000
  C   C214      1.0  0.43045  0.31593  0.34925  1.0000
  H   H177      1.0  0.20170  0.48371  0.14636  1.0000
  H   H178      1.0  0.46989  0.30905  0.18380  1.0000
  P   P6        1.0  0.99012  0.36114  0.15251  1.0000
  C   C215      1.0  0.47296  0.43851  0.01323  1.0000
  H   H179      1.0  0.47080  0.39731  0.99323  1.0000
  C   C216      1.0  0.37879  0.48436  0.33128  1.0000
  C   C217      1.0  0.04950  0.45095  0.02129  1.0000
  P   P7        1.0  0.41183  0.30423  0.46482  1.0000
  C   C218      1.0  0.48153  0.32164  0.27268  1.0000
  H   H180      1.0  0.47103  0.25398  0.00022  1.0000
  S   S26       1.0  0.00739  0.41484  0.47383  1.0000
  H   H181      1.0  0.47345  0.46533  0.42972  1.0000
  C   C219      1.0  0.45002  0.35036  0.99320  1.0000
  C   C220      1.0  0.35493  0.25476  0.47140  1.0000
  Fe  Fe12      1.0  0.48053  0.34214  0.44455  1.0000
  C   C221      1.0  0.98997  0.36845  0.19846  1.0000
  H   H182      1.0  0.44859  0.26955  0.48027  1.0000
  H   H183      1.0  0.23860  0.48467  0.18347  1.0000
  S   S27       1.0  0.33723  0.48475  0.42230  1.0000
  C   C222      1.0  0.47729  0.25015  0.45569  1.0000
  C   C223      1.0  0.48068  0.24919  0.99053  1.0000
  C   C224      1.0  0.18946  0.45055  0.48244  1.0000
  H   H184      1.0  0.45831  0.46428  0.48688  1.0000
  C   C225      1.0  0.14595  0.40517  0.48182  1.0000
  C   C226      1.0  0.14051  0.38622  0.48329  1.0000
  C   C227      1.0  0.22288  0.46570  0.48637  1.0000
  C   C228      1.0  0.00487  0.46710  0.80525  1.0000
  S   S28       1.0  0.14096  0.47903  0.90855  1.0000
  Fe  Fe13      1.0  0.12372  0.48875  0.94239  1.0000
  H   H185      1.0  0.99045  0.49140  0.60330  1.0000
  Fe  Fe14      1.0  0.39465  0.44351  0.54350  1.0000
  S   S29       1.0  0.41627  0.46248  0.58368  1.0000
  S   S30       1.0  0.36976  0.45021  0.54247  1.0000
  Fe  Fe15      1.0  0.41912  0.42396  0.52326  1.0000
  S   S31       1.0  0.44204  0.44225  0.56163  1.0000
  H   H186      1.0  0.99284  0.47483  0.65644  1.0000
  Fe  Fe16      1.0  0.42006  0.43803  0.60082  1.0000
  S   S32       1.0  0.42995  0.43928  0.65881  1.0000
  Fe  Fe17      1.0  0.43622  0.46505  0.54204  1.0000
  H   H187      1.0  0.47561  0.30420  0.86283  1.0000
  S   S33       1.0  0.39693  0.41816  0.56367  1.0000
  Fe  Fe18      1.0  0.39772  0.42938  0.92692  1.0000
  S   S34       1.0  0.40472  0.44170  0.87348  1.0000
  H   H188      1.0  0.47311  0.45723  0.62541  1.0000
  Fe  Fe19      1.0  0.42438  0.41103  0.92140  1.0000
  S   S35       1.0  0.43337  0.42235  0.86710  1.0000
  H   H189      1.0  0.46880  0.42511  0.56035  1.0000
  Fe  Fe20      1.0  0.43375  0.44844  0.88955  1.0000
  C   C229      1.0  0.28411  0.48596  0.91780  1.0000
  Fe  Fe21      1.0  0.40356  0.41463  0.85440  1.0000
  S   S36       1.0  0.38960  0.40273  0.79992  1.0000
  S   S37       1.0  0.42718  0.43820  0.94463  1.0000
  S   S38       1.0  0.39412  0.40118  0.90721  1.0000
  C   C230      1.0  0.47662  0.31140  0.83854  1.0000
  H   H190      1.0  0.46733  0.29201  0.96729  1.0000
  H   H191      1.0  0.46786  0.45350  0.91711  1.0000
  C   C231      1.0  0.41791  0.42934  0.69747  1.0000
  C   C232      1.0  0.39936  0.41653  0.69597  1.0000
  C   C233      1.0  0.39074  0.40855  0.72755  1.0000
  C   C234      1.0  0.40055  0.41338  0.76080  1.0000
  C   C235      1.0  0.41897  0.42644  0.76227  1.0000
  C   C236      1.0  0.42758  0.43433  0.73080  1.0000
  H   H192      1.0  0.39175  0.41255  0.67050  1.0000
  H   H193      1.0  0.37647  0.39849  0.72619  1.0000
  H   H194      1.0  0.42668  0.43027  0.78762  1.0000
  H   H195      1.0  0.44191  0.44424  0.73228  1.0000
  C   C237      1.0  0.18054  0.48041  0.58607  1.0000
  C   C238      1.0  0.45220  0.34598  0.86600  1.0000
  H   H196      1.0  0.05469  0.48323  0.97838  1.0000
  S   S39       1.0  0.41478  0.44760  0.50058  1.0000
  H   H197      1.0  0.41790  0.47011  0.96986  1.0000
  C   C239      1.0  0.34869  0.46869  0.81514  1.0000
  C   C240      1.0  0.44201  0.36996  0.87320  1.0000
  C   C241      1.0  0.47312  0.32695  0.83777  1.0000
  C   C242      1.0  0.00860  0.42647  0.85360  1.0000
  Fe  Fe22      1.0  0.11925  0.48791  0.51817  1.0000
  H   H198      1.0  0.41843  0.35970  0.94579  1.0000
  C   C243      1.0  0.48161  0.30494  0.80763  1.0000
  P   P8        1.0  0.01526  0.46239  0.87444  1.0000
  C   C244      1.0  0.13206  0.49180  0.76304  1.0000
  C   C245      1.0  0.47824  0.25202  0.85751  1.0000
  C   C246      1.0  0.42612  0.34464  0.83007  1.0000
  H   H199      1.0  0.12821  0.42980  0.51001  1.0000
  C   C247      1.0  0.40303  0.35131  0.51991  1.0000
  H   H200      1.0  0.44131  0.39337  0.54092  1.0000
  H   H201      1.0  0.07583  0.46166  0.86328  1.0000
  H   H202      1.0  0.37218  0.44986  0.84925  1.0000
  H   H203      1.0  0.47121  0.29253  0.52351  1.0000
  C   C248      1.0  0.40595  0.46155  0.79381  1.0000
  H   H204      1.0  0.01947  0.45321  0.94787  1.0000
  H   H205      1.0  0.34030  0.44237  0.65347  1.0000
  S   S40       1.0  0.45538  0.47664  0.87897  1.0000
  C   C249      1.0  0.45667  0.31785  0.90857  1.0000
  C   C250      1.0  0.04939  0.46182  0.86813  1.0000
  C   C251      1.0  0.48325  0.31399  0.77573  1.0000
  H   H206      1.0  0.06704  0.49041  0.91842  1.0000
  C   C252      1.0  0.07559  0.48592  0.84158  1.0000
  C   C253      1.0  0.03880  0.47133  0.86121  1.0000
  H   H207      1.0  0.46436  0.36931  0.90413  1.0000
  H   H208      1.0  0.34550  0.46764  0.54574  1.0000
  H   H209      1.0  0.06855  0.44922  0.53509  1.0000
  C   C254      1.0  0.01610  0.47377  0.91711  1.0000
  C   C255      1.0  0.30055  0.48485  0.91217  1.0000
  H   H210      1.0  0.48190  0.31651  0.92455  1.0000
  S   S41       1.0  0.44152  0.39998  0.95420  1.0000
  H   H211      1.0  0.46790  0.32061  0.54186  1.0000
  C   C256      1.0  0.44432  0.38038  0.96787  1.0000
  C   C257      1.0  0.33953  0.47942  0.82298  1.0000
  H   H212      1.0  0.36817  0.48543  0.91751  1.0000
  C   C258      1.0  0.36943  0.45052  0.96489  1.0000
  H   H213      1.0  0.42929  0.31607  0.90070  1.0000
  C   C259      1.0  0.99077  0.42921  0.90228  1.0000
  C   C260      1.0  0.37309  0.46319  0.93796  1.0000
  C   C261      1.0  0.47356  0.48186  0.91014  1.0000
  C   C262      1.0  0.00024  0.40731  0.85616  1.0000
  C   C263      1.0  0.16017  0.44222  0.57586  1.0000
  C   C264      1.0  0.45950  0.29443  0.51356  1.0000
  H   H214      1.0  0.33180  0.47714  0.84705  1.0000
  C   C265      1.0  0.43112  0.47809  0.98376  1.0000
  C   C266      1.0  0.47528  0.26441  0.88021  1.0000
  C   C267      1.0  0.35396  0.44949  0.70587  1.0000
  P   P9        1.0  0.46763  0.33611  0.87796  1.0000
  C   C268      1.0  0.17956  0.47190  0.55255  1.0000
  H   H215      1.0  0.15370  0.44273  0.63128  1.0000
  C   C269      1.0  0.99337  0.46969  0.77974  1.0000
  H   H216      1.0  0.35652  0.47549  0.61805  1.0000
  H   H217      1.0  0.40011  0.44675  0.78892  1.0000
  C   C270      1.0  0.43807  0.33706  0.83966  1.0000
  C   C271      1.0  0.14924  0.37960  0.50781  1.0000
  C   C272      1.0  0.16118  0.45077  0.60938  1.0000
  H   H218      1.0  0.40116  0.36252  0.53275  1.0000
  H   H219      1.0  0.44215  0.32567  0.51754  1.0000
  C   C273      1.0  0.35765  0.42053  0.85205  1.0000
  S   S42       1.0  0.37877  0.43424  0.96573  1.0000
  H   H220      1.0  0.30192  0.47252  0.91875  1.0000
  C   C274      1.0  0.20606  0.45967  0.50280  1.0000
  C   C275      1.0  0.42959  0.29678  0.93831  1.0000
  S   S43       1.0  0.14030  0.47928  0.54183  1.0000
  C   C276      1.0  0.38441  0.44998  0.67180  1.0000
  H   H221      1.0  0.43400  0.27958  0.97670  1.0000
  C   C277      1.0  0.17144  0.46983  0.61452  1.0000
  C   C278      1.0  0.34841  0.40370  0.83288  1.0000
  C   C279      1.0  0.44287  0.31300  0.51016  1.0000
  C   C280      1.0  0.06063  0.44717  0.51025  1.0000
  H   H222      1.0  0.43621  0.32418  0.82674  1.0000
  H   H223      1.0  0.41521  0.33771  0.80982  1.0000
  C   C281      1.0  0.40810  0.32402  0.52365  1.0000
  H   H224      1.0  0.33562  0.48382  0.65355  1.0000
  C   C282      1.0  0.48175  0.42428  0.56340  1.0000
  H   H225      1.0  0.44810  0.24253  0.55597  1.0000
  C   C283      1.0  0.35269  0.41977  0.77764  1.0000
  C   C284      1.0  0.07745  0.46200  0.98632  1.0000
  C   C285      1.0  0.47998  0.32956  0.77475  1.0000
  C   C286      1.0  0.16897  0.41089  0.52935  1.0000
  C   C287      1.0  0.16964  0.45272  0.54734  1.0000
  H   H226      1.0  0.34773  0.45828  0.83352  1.0000
  C   C288      1.0  0.45396  0.37768  0.51542  1.0000
  C   C289      1.0  0.04311  0.48767  0.48789  1.0000
  H   H227      1.0  0.43274  0.46380  0.80872  1.0000
  S   S44       1.0  0.10192  0.47550  0.98503  1.0000
  H   H228      1.0  0.35985  0.42081  0.88084  1.0000
  C   C290      1.0  0.42812  0.36111  0.84678  1.0000
  C   C291      1.0  0.42445  0.47117  0.80491  1.0000
  H   H229      1.0  0.03951  0.43129  0.93746  1.0000
  H   H230      1.0  0.22826  0.47324  0.95074  1.0000
  H   H231      1.0  0.20616  0.46221  0.53131  1.0000
  C   C292      1.0  0.35887  0.48976  0.62102  1.0000
  H   H232      1.0  0.47290  0.34838  0.80455  1.0000
  C   C293      1.0  0.47505  0.33609  0.80566  1.0000
  H   H233      1.0  0.41882  0.36699  0.83953  1.0000
  H   H234      1.0  0.07304  0.45109  0.93208  1.0000
  H   H235      1.0  0.36742  0.24558  0.51297  1.0000
  H   H236      1.0  0.34358  0.39093  0.84673  1.0000
  H   H237      1.0  0.04373  0.44902  0.88187  1.0000
  H   H238      1.0  0.39806  0.45612  0.72338  1.0000
  C   C294      1.0  0.04174  0.43453  0.50782  1.0000
  C   C295      1.0  0.43775  0.31070  0.91414  1.0000
  C   C296      1.0  0.06765  0.46901  0.85794  1.0000
  H   H239      1.0  0.34190  0.44882  0.71877  1.0000
  H   H240      1.0  0.98658  0.43735  0.91997  1.0000
  H   H241      1.0  0.99603  0.46948  0.75163  1.0000
  H   H242      1.0  0.40505  0.33919  0.56925  1.0000
  H   H243      1.0  0.47222  0.40409  0.60363  1.0000
  C   C297      1.0  0.36822  0.44612  0.65186  1.0000
  C   C298      1.0  0.16002  0.41761  0.50529  1.0000
  C   C299      1.0  0.98736  0.39913  0.88206  1.0000
  P   P10       1.0  0.16758  0.44212  0.50336  1.0000
  H   H244      1.0  0.38180  0.46320  0.91662  1.0000
  C   C300      1.0  0.44667  0.28143  0.48921  1.0000
  C   C301      1.0  0.35874  0.47145  0.78404  1.0000
  H   H245      1.0  0.27262  0.47445  0.92862  1.0000
  C   C302      1.0  0.16351  0.39194  0.53073  1.0000
  C   C303      1.0  0.00436  0.43762  0.87741  1.0000
  H   H246      1.0  0.04053  0.47046  0.53236  1.0000
  C   C304      1.0  0.35297  0.44580  0.66892  1.0000
  C   C305      1.0  0.40295  0.49006  0.79629  1.0000
  H   H247      1.0  0.45844  0.37430  0.54048  1.0000
  H   H248      1.0  0.46173  0.26389  0.88128  1.0000
  C   C306      1.0  0.39508  0.47092  0.78917  1.0000
  C   C307      1.0  0.43381  0.34735  0.97349  1.0000
  C   C308      1.0  0.36537  0.47583  0.93861  1.0000
  H   H249      1.0  0.33927  0.39021  0.78084  1.0000
  H   H250      1.0  0.17192  0.47649  0.64032  1.0000
  C   C309      1.0  0.22883  0.48636  0.95939  1.0000
  H   H251      1.0  0.48521  0.43628  0.88438  1.0000
  C   C310      1.0  0.40536  0.33824  0.54039  1.0000
  H   H252      1.0  0.14503  0.36492  0.50887  1.0000
  C   C311      1.0  0.44436  0.38865  0.51578  1.0000
  H   H253      1.0  0.44326  0.38255  0.88647  1.0000
  C   C312      1.0  0.45397  0.36241  0.88301  1.0000
  C   C313      1.0  0.03343  0.47320  0.51005  1.0000
  C   C314      1.0  0.35937  0.48510  0.76096  1.0000
  C   C315      1.0  0.46053  0.38334  0.98740  1.0000
  C   C316      1.0  0.00136  0.46719  0.84174  1.0000
  C   C317      1.0  0.43100  0.36225  0.96070  1.0000
  C   C318      1.0  0.45761  0.31021  0.52397  1.0000
  H   H254      1.0  0.36742  0.44307  0.62325  1.0000
  C   C319      1.0  0.46723  0.31091  0.92776  1.0000
  H   H255      1.0  0.18019  0.42034  0.54699  1.0000
  C   C320      1.0  0.01793  0.46581  0.94882  1.0000
  C   C321      1.0  0.45902  0.29697  0.95184  1.0000
  H   H256      1.0  0.46687  0.24200  0.84097  1.0000
  C   C322      1.0  0.34912  0.46765  0.51819  1.0000
  H   H257      1.0  0.42331  0.33340  0.96827  1.0000
  H   H258      1.0  0.35096  0.41904  0.74883  1.0000
  C   C323      1.0  0.06661  0.45123  0.95692  1.0000
  H   H259      1.0  0.01629  0.46473  0.79646  1.0000
  H   H260      1.0  0.48433  0.29298  0.80859  1.0000
  H   H261      1.0  0.47625  0.48193  0.58474  1.0000
  H   H262      1.0  0.47213  0.40617  0.91278  1.0000
  H   H263      1.0  0.01841  0.43254  0.83314  1.0000
  H   H264      1.0  0.18623  0.48030  0.53050  1.0000
  H   H265      1.0  0.15167  0.42754  0.57218  1.0000
  C   C324      1.0  0.35405  0.47613  0.96629  1.0000
  H   H266      1.0  0.17042  0.38683  0.54949  1.0000
  C   C325      1.0  0.36460  0.43698  0.83402  1.0000
  C   C326      1.0  0.38545  0.45365  0.70872  1.0000
  H   H267      1.0  0.00381  0.39878  0.83817  1.0000
  H   H268      1.0  0.36700  0.48742  0.73688  1.0000
  H   H269      1.0  0.41512  0.29170  0.94333  1.0000
  H   H270      1.0  0.39610  0.44974  0.65875  1.0000
  C   C327      1.0  0.37028  0.45363  0.72608  1.0000
  H   H271      1.0  0.03534  0.42701  0.53099  1.0000
  C   C328      1.0  0.36206  0.43676  0.79672  1.0000
  C   C329      1.0  0.44021  0.28994  0.95715  1.0000
  C   C330      1.0  0.04755  0.43999  0.96008  1.0000
  C   C331      1.0  0.34593  0.40332  0.79573  1.0000
  C   C332      1.0  0.04702  0.48849  0.84546  1.0000
  H   H272      1.0  0.40961  0.31384  0.53983  1.0000
  C   C333      1.0  0.47626  0.46770  0.92589  1.0000
  H   H273      1.0  0.00752  0.44994  0.51858  1.0000
  H   H274      1.0  0.20237  0.48054  0.93379  1.0000
  P   P11       1.0  0.37131  0.45821  0.77395  1.0000
  H   H275      1.0  0.48140  0.33668  0.75009  1.0000
  C   C334      1.0  0.48373  0.41248  0.58789  1.0000
  C   C335      1.0  0.36099  0.45987  0.50862  1.0000
  C   C336      1.0  0.01485  0.46165  0.50236  1.0000
  H   H276      1.0  0.47829  0.34937  0.95242  1.0000
  C   C337      1.0  0.01528  0.49006  0.98378  1.0000
  H   H277      1.0  0.23568  0.47323  0.50191  1.0000
  H   H278      1.0  0.33255  0.48109  0.50027  1.0000
  C   C338      1.0  0.13260  0.43929  0.48853  1.0000
  S   S45       1.0  0.12369  0.48766  0.80732  1.0000
  H   H279      1.0  0.39801  0.27187  0.50977  1.0000
  C   C339      1.0  0.01717  0.47371  0.98202  1.0000
  H   H280      1.0  0.10482  0.48119  0.73836  1.0000
  H   H281      1.0  0.41718  0.48786  0.52654  1.0000
  C   C340      1.0  0.43219  0.49016  0.81211  1.0000
  C   C341      1.0  0.00120  0.48958  0.65560  1.0000
  C   C342      1.0  0.01481  0.49051  0.91908  1.0000
  C   C343      1.0  0.12519  0.48956  0.69802  1.0000
  C   C344      1.0  0.11934  0.48708  0.73360  1.0000
  H   H282      1.0  0.11520  0.48561  0.67582  1.0000
  C   C345      1.0  0.21405  0.49046  0.94969  1.0000
  H   H283      1.0  0.08979  0.49144  0.83392  1.0000
  C   C346      1.0  0.48605  0.46493  0.61280  1.0000
  C   C347      1.0  0.34174  0.47533  0.49240  1.0000
  C   C348      1.0  0.36958  0.25604  0.49375  1.0000
  C   C349      1.0  0.38695  0.27091  0.49165  1.0000
  H   H284      1.0  0.46896  0.43132  0.98730  1.0000
  Fe  Fe23      1.0  0.18439  0.68597  0.01385  1.0000
  S   S46       1.0  0.19329  0.67318  0.05830  1.0000
  H   H285      1.0  0.10446  0.50606  0.05412  1.0000
  Fe  Fe24      1.0  0.14303  0.65791  0.02113  1.0000
  S   S47       1.0  0.14979  0.64396  0.06678  1.0000
  C   C350      1.0  0.19482  0.49439  0.04831  1.0000
  Fe  Fe25      1.0  0.16922  0.67226  0.08874  1.0000
  S   S48       1.0  0.17714  0.67922  0.14889  1.0000
  Fe  Fe26      1.0  0.17322  0.64562  0.03412  1.0000
  H   H286      1.0  0.40338  0.52847  0.30719  1.0000
  S   S49       1.0  0.16113  0.68675  0.04511  1.0000
  C   C351      1.0  0.47444  0.56757  0.31175  1.0000
  H   H287      1.0  0.40221  0.68340  0.01061  1.0000
  H   H288      1.0  0.36399  0.55014  0.34854  1.0000
  Fe  Fe27      1.0  0.32944  0.53669  0.03415  1.0000
  S   S50       1.0  0.34635  0.56770  0.03226  1.0000
  C   C352      1.0  0.35968  0.62637  0.45736  1.0000
  C   C353      1.0  0.21301  0.73408  0.45641  1.0000
  H   H289      1.0  0.08340  0.61819  0.41674  1.0000
  S   S51       1.0  0.30414  0.52337  0.06665  1.0000
  S   S52       1.0  0.34257  0.51925  0.05419  1.0000
  Fe  Fe28      1.0  0.13296  0.64869  0.43205  1.0000
  S   S53       1.0  0.13079  0.63087  0.38343  1.0000
  C   C354      1.0  0.48513  0.49490  0.42767  1.0000
  Fe  Fe29      1.0  0.17471  0.67440  0.42181  1.0000
  S   S54       1.0  0.17467  0.65750  0.37245  1.0000
  C   C355      1.0  0.03976  0.49453  0.31795  1.0000
  Fe  Fe30      1.0  0.14772  0.65725  0.35605  1.0000
  S   S55       1.0  0.13787  0.65918  0.29871  1.0000
  Fe  Fe31      1.0  0.15788  0.63249  0.40323  1.0000
  S   S56       1.0  0.16258  0.60672  0.39935  1.0000
  S   S57       1.0  0.14820  0.67540  0.40389  1.0000
  S   S58       1.0  0.15949  0.64900  0.45337  1.0000
  Fe  Fe32      1.0  0.30135  0.51161  0.35097  1.0000
  C   C356      1.0  0.24165  0.69620  0.99339  1.0000
  Fe  Fe33      1.0  0.32751  0.54124  0.40575  1.0000
  C   C357      1.0  0.47486  0.49203  0.10210  1.0000
  S   S59       1.0  0.35023  0.57051  0.40378  1.0000
  H   H290      1.0  0.20586  0.50170  0.41757  1.0000
  Fe  Fe34      1.0  0.28926  0.51348  0.42832  1.0000
  H   H291      1.0  0.11737  0.60454  0.44432  1.0000
  S   S60       1.0  0.33059  0.52033  0.36951  1.0000
  S   S61       1.0  0.29877  0.53388  0.38483  1.0000
  C   C358      1.0  0.38618  0.71244  0.46117  1.0000
  H   H292      1.0  0.43281  0.72751  0.47994  1.0000
  H   H293      1.0  0.42683  0.67081  0.46431  1.0000
  C   C359      1.0  0.47528  0.72817  0.43446  1.0000
  H   H294      1.0  0.21465  0.66368  0.14820  1.0000
  C   C360      1.0  0.23107  0.56361  0.42761  1.0000
  H   H295      1.0  0.47677  0.51630  0.17945  1.0000
  C   C361      1.0  0.45546  0.56055  0.30507  1.0000
  H   H296      1.0  0.31343  0.60728  0.44076  1.0000
  H   H297      1.0  0.48265  0.56363  0.29423  1.0000
  C   C362      1.0  0.23309  0.63240  0.40934  1.0000
  H   H298      1.0  0.23963  0.53173  0.06488  1.0000
  C   C363      1.0  0.48137  0.51212  0.15546  1.0000
  H   H299      1.0  0.12411  0.62018  0.28604  1.0000
  H   H300      1.0  0.11209  0.57441  0.14519  1.0000
  C   C364      1.0  0.24453  0.51575  0.99137  1.0000
  C   C365      1.0  0.15844  0.59313  0.43738  1.0000
  H   H301      1.0  0.29430  0.57468  0.08338  1.0000
  C   C366      1.0  0.47256  0.57210  0.03660  1.0000
  H   H302      1.0  0.27610  0.52657  0.14536  1.0000
  C   C367      1.0  0.08127  0.50735  0.43022  1.0000
  H   H303      1.0  0.08735  0.57727  0.11037  1.0000
  H   H304      1.0  0.20629  0.65675  0.21109  1.0000
  C   C368      1.0  0.30035  0.50712  0.25073  1.0000
  Fe  Fe35      1.0  0.31635  0.50442  0.08338  1.0000
  C   C369      1.0  0.12205  0.53459  0.04373  1.0000
  H   H305      1.0  0.44570  0.66279  0.42333  1.0000
  H   H306      1.0  0.15450  0.51594  0.41418  1.0000
  C   C370      1.0  0.11846  0.51654  0.05213  1.0000
  H   H307      1.0  0.08877  0.52809  0.16299  1.0000
  C   C371      1.0  0.24095  0.72138  0.25911  1.0000
  H   H308      1.0  0.23768  0.50487  0.41309  1.0000
  C   C372      1.0  0.43619  0.66278  0.03221  1.0000
  H   H309      1.0  0.43903  0.66578  0.10584  1.0000
  C   C373      1.0  0.23678  0.52298  0.18276  1.0000
  C   C374      1.0  0.47241  0.58503  0.36354  1.0000
  S   S62       1.0  0.11026  0.64247  0.47264  1.0000
  H   H310      1.0  0.47919  0.50585  0.03061  1.0000
  C   C375      1.0  0.20919  0.49543  0.16470  1.0000
  C   C376      1.0  0.47221  0.64325  0.39317  1.0000
  C   C377      1.0  0.14888  0.66324  0.25698  1.0000
  C   C378      1.0  0.16781  0.66912  0.25474  1.0000
  C   C379      1.0  0.17613  0.67377  0.22145  1.0000
  C   C380      1.0  0.16561  0.67197  0.18970  1.0000
  C   C381      1.0  0.14659  0.66555  0.19182  1.0000
  C   C382      1.0  0.13833  0.66133  0.22523  1.0000
  H   H311      1.0  0.17607  0.67071  0.27890  1.0000
  H   H312      1.0  0.19086  0.67903  0.22026  1.0000
  H   H313      1.0  0.13831  0.66444  0.16791  1.0000
  H   H314      1.0  0.12369  0.65690  0.22657  1.0000
  H   H315      1.0  0.23008  0.53278  0.99109  1.0000
  C   C383      1.0  0.26647  0.55420  0.07144  1.0000
  C   C384      1.0  0.44467  0.72776  0.46699  1.0000
  H   H316      1.0  0.24137  0.71388  0.46972  1.0000
  C   C385      1.0  0.25592  0.52685  0.10657  1.0000
  C   C386      1.0  0.40682  0.55671  0.37664  1.0000
  H   H317      1.0  0.39602  0.51904  0.09836  1.0000
  C   C387      1.0  0.23828  0.73795  0.35127  1.0000
  H   H318      1.0  0.39662  0.50959  0.41927  1.0000
  C   C388      1.0  0.39790  0.72140  0.43400  1.0000
  C   C389      1.0  0.02928  0.55423  0.41542  1.0000
  H   H319      1.0  0.30042  0.55664  0.12996  1.0000
  H   H320      1.0  0.15775  0.59236  0.30514  1.0000
  H   H321      1.0  0.08952  0.60814  0.09815  1.0000
  C   C390      1.0  0.23675  0.73615  0.00501  1.0000
  C   C391      1.0  0.19312  0.71870  0.36107  1.0000
  H   H322      1.0  0.01416  0.49592  0.00943  1.0000
  H   H323      1.0  0.18551  0.50039  0.04218  1.0000
  H   H324      1.0  0.38631  0.60057  0.40618  1.0000
  C   C392      1.0  0.47364  0.53390  0.36128  1.0000
  H   H325      1.0  0.11686  0.63627  0.12052  1.0000
  C   C393      1.0  0.45520  0.52829  0.42503  1.0000
  H   H326      1.0  0.13941  0.60758  0.32812  1.0000
  H   H327      1.0  0.14200  0.63374  0.15466  1.0000
  H   H328      1.0  0.12736  0.61797  0.22121  1.0000
  H   H329      1.0  0.16104  0.58965  0.23992  1.0000
  H   H330      1.0  0.40863  0.61772  0.45619  1.0000
  C   C394      1.0  0.28360  0.56137  0.08977  1.0000
  C   C395      1.0  0.16225  0.71001  0.33699  1.0000
  S   S63       1.0  0.26732  0.51223  0.46828  1.0000
  C   C396      1.0  0.46338  0.69204  0.10896  1.0000
  C   C397      1.0  0.19890  0.71715  0.32672  1.0000
  C   C398      1.0  0.38311  0.50068  0.31375  1.0000
  P   P12       1.0  0.22201  0.72008  0.32094  1.0000
  P   P13       1.0  0.10305  0.54018  0.03597  1.0000
  C   C399      1.0  0.22104  0.69780  0.32918  1.0000
  C   C400      1.0  0.22437  0.69350  0.36386  1.0000
  C   C401      1.0  0.22230  0.67580  0.37080  1.0000
  H   H331      1.0  0.47697  0.66349  0.35361  1.0000
  H   H332      1.0  0.14800  0.70683  0.34103  1.0000
  C   C402      1.0  0.21504  0.68397  0.30177  1.0000
  S   S64       1.0  0.20330  0.69628  0.44471  1.0000
  C   C403      1.0  0.07105  0.51697  0.43907  1.0000
  H   H333      1.0  0.41501  0.63718  0.01004  1.0000
  H   H334      1.0  0.01383  0.51143  0.44743  1.0000
  C   C404      1.0  0.18963  0.56138  0.37544  1.0000
  H   H335      1.0  0.26052  0.63462  0.41413  1.0000
  P   P14       1.0  0.21359  0.57130  0.43582  1.0000
  C   C405      1.0  0.25468  0.73739  0.36264  1.0000
  H   H336      1.0  0.22791  0.70358  0.38590  1.0000
  H   H337      1.0  0.22424  0.67251  0.39797  1.0000
  C   C406      1.0  0.47264  0.54299  0.42289  1.0000
  C   C407      1.0  0.41294  0.50942  0.00782  1.0000
  S   S65       1.0  0.11502  0.64859  0.98981  1.0000
  H   H338      1.0  0.46579  0.62042  0.42673  1.0000
  H   H339      1.0  0.48092  0.53592  0.33677  1.0000
  C   C408      1.0  0.47886  0.68558  0.00383  1.0000
  H   H340      1.0  0.25609  0.52554  0.00759  1.0000
  H   H341      1.0  0.08456  0.58250  0.43481  1.0000
  H   H342      1.0  0.16449  0.61796  0.11136  1.0000
  C   C409      1.0  0.04348  0.50430  0.35097  1.0000
  H   H343      1.0  0.00463  0.53645  0.44069  1.0000
  C   C410      1.0  0.44257  0.58406  0.43046  1.0000
  C   C411      1.0  0.45099  0.57338  0.44332  1.0000
  P   P15       1.0  0.44077  0.58731  0.38339  1.0000
  C   C412      1.0  0.45339  0.57815  0.35697  1.0000
  C   C413      1.0  0.41651  0.57571  0.37160  1.0000
  H   H344      1.0  0.29036  0.54450  0.02378  1.0000
  C   C414      1.0  0.06130  0.53466  0.10027  1.0000
  C   C415      1.0  0.40211  0.69401  0.42106  1.0000
  C   C416      1.0  0.17497  0.71555  0.36605  1.0000
  C   C417      1.0  0.44497  0.56596  0.32737  1.0000
  C   C418      1.0  0.45149  0.61157  0.37471  1.0000
  C   C419      1.0  0.46323  0.62459  0.40073  1.0000
  H   H345      1.0  0.14846  0.52470  0.35398  1.0000
  H   H346      1.0  0.44985  0.51033  0.33969  1.0000
  H   H347      1.0  0.99464  0.52287  0.15842  1.0000
  C   C420      1.0  0.44971  0.61739  0.34044  1.0000
  C   C421      1.0  0.42111  0.52735  0.02353  1.0000
  H   H348      1.0  0.45677  0.56697  0.42516  1.0000
  H   H349      1.0  0.41374  0.60022  0.35722  1.0000
  H   H350      1.0  0.41383  0.54909  0.38739  1.0000
  C   C422      1.0  0.15097  0.52459  0.05176  1.0000
  C   C423      1.0  0.44964  0.67622  0.12306  1.0000
  C   C424      1.0  0.40157  0.50511  0.44243  1.0000
  C   C425      1.0  0.40579  0.71217  0.41392  1.0000
  H   H351      1.0  0.43046  0.56099  0.32078  1.0000
  H   H352      1.0  0.16851  0.55230  0.03733  1.0000
  Fe  Fe36      1.0  0.32823  0.50006  0.00677  1.0000
  H   H353      1.0  0.21654  0.67155  0.99917  1.0000
  C   C426      1.0  0.38263  0.69435  0.46871  1.0000
  H   H354      1.0  0.44145  0.60745  0.31947  1.0000
  C   C427      1.0  0.01769  0.53796  0.43114  1.0000
  C   C428      1.0  0.12720  0.59609  0.04914  1.0000
  C   C429      1.0  0.22134  0.59514  0.42455  1.0000
  H   H355      1.0  0.05890  0.52956  0.15650  1.0000
  P   P16       1.0  0.38764  0.66239  0.46143  1.0000
  C   C430      1.0  0.47037  0.71984  0.05580  1.0000
  C   C431      1.0  0.12253  0.57748  0.05296  1.0000
  H   H356      1.0  0.34837  0.56590  0.48059  1.0000
  H   H357      1.0  0.39983  0.57864  0.00565  1.0000
  C   C432      1.0  0.47998  0.68894  0.04102  1.0000
  H   H358      1.0  0.06501  0.54446  0.39836  1.0000
  H   H359      1.0  0.42810  0.60006  0.44514  1.0000
  C   C433      1.0  0.21296  0.66627  0.30874  1.0000
  C   C434      1.0  0.39245  0.49870  0.05678  1.0000
  H   H360      1.0  0.37309  0.60423  0.01711  1.0000
  H   H361      1.0  0.17741  0.63044  0.22467  1.0000
  C   C435      1.0  0.10247  0.56979  0.99975  1.0000
  H   H362      1.0  0.45735  0.64048  0.30641  1.0000
  C   C436      1.0  0.08411  0.53055  0.13718  1.0000
  S   S66       1.0  0.29100  0.50954  0.29222  1.0000
  C   C437      1.0  0.17363  0.54990  0.35538  1.0000
  H   H363      1.0  0.25470  0.72159  0.21055  1.0000
  C   C438      1.0  0.07932  0.53313  0.46107  1.0000
  C   C439      1.0  0.18595  0.71122  0.29776  1.0000
  H   H364      1.0  0.25079  0.53283  0.17872  1.0000
  C   C440      1.0  0.02303  0.52382  0.43496  1.0000
  H   H365      1.0  0.21439  0.64831  0.34889  1.0000
  C   C441      1.0  0.41538  0.53052  0.05702  1.0000
  C   C442      1.0  0.24254  0.54544  0.39253  1.0000
  H   H366      1.0  0.23760  0.64680  0.40389  1.0000
  H   H367      1.0  0.19396  0.64377  0.09882  1.0000
  C   C443      1.0  0.09950  0.51389  0.44292  1.0000
  C   C444      1.0  0.42287  0.64545  0.38796  1.0000
  C   C445      1.0  0.46305  0.72915  0.07770  1.0000
  H   H368      1.0  0.44895  0.55122  0.28214  1.0000
  C   C446      1.0  0.15763  0.57542  0.43439  1.0000
  C   C447      1.0  0.07656  0.61622  0.44175  1.0000
  C   C448      1.0  0.13549  0.54738  0.17124  1.0000
  C   C449      1.0  0.14701  0.54654  0.14491  1.0000
  C   C450      1.0  0.15898  0.56264  0.12914  1.0000
  C   C451      1.0  0.15938  0.57957  0.13936  1.0000
  C   C452      1.0  0.14790  0.58059  0.16588  1.0000
  C   C453      1.0  0.13586  0.56431  0.18158  1.0000
  P   P17       1.0  0.14740  0.60219  0.17814  1.0000
  C   C454      1.0  0.12898  0.60390  0.15268  1.0000
  C   C455      1.0  0.14389  0.60298  0.22550  1.0000
  C   C456      1.0  0.13364  0.61177  0.23890  1.0000
  C   C457      1.0  0.13185  0.61318  0.27576  1.0000
  C   C458      1.0  0.14048  0.60611  0.29951  1.0000
  C   C459      1.0  0.15084  0.59750  0.28644  1.0000
  C   C460      1.0  0.15257  0.59594  0.24957  1.0000
  C   C461      1.0  0.13008  0.62128  0.14548  1.0000
  C   C462      1.0  0.11583  0.62276  0.12610  1.0000
  C   C463      1.0  0.10044  0.60691  0.11347  1.0000
  C   C464      1.0  0.09922  0.58953  0.12046  1.0000
  C   C465      1.0  0.11338  0.58800  0.14014  1.0000
  C   C466      1.0  0.16891  0.62162  0.16903  1.0000
  C   C467      1.0  0.18087  0.63284  0.19703  1.0000
  C   C468      1.0  0.19738  0.64786  0.18952  1.0000
  C   C469      1.0  0.20210  0.65179  0.15413  1.0000
  C   C470      1.0  0.19031  0.64073  0.12624  1.0000
  C   C471      1.0  0.17364  0.62595  0.13355  1.0000
  H   H369      1.0  0.12624  0.53490  0.18355  1.0000
  H   H370      1.0  0.14668  0.53344  0.13665  1.0000
  H   H371      1.0  0.16802  0.56208  0.10888  1.0000
  H   H372      1.0  0.16874  0.59169  0.12640  1.0000
  H   H373      1.0  0.12667  0.56469  0.20169  1.0000
  H   H374      1.0  0.04832  0.53544  0.09745  1.0000
  C   C472      1.0  0.29406  0.51187  0.21893  1.0000
  C   C473      1.0  0.40693  0.58544  0.35934  1.0000
  P   P18       1.0  0.42424  0.49719  0.39738  1.0000
  C   C474      1.0  0.38794  0.54745  0.36815  1.0000
  H   H375      1.0  0.38054  0.58356  0.34166  1.0000
  C   C475      1.0  0.10716  0.58847  0.99608  1.0000
  H   H376      1.0  0.12163  0.53486  0.47487  1.0000
  C   C476      1.0  0.11946  0.60161  0.02081  1.0000
  C   C477      1.0  0.41301  0.51457  0.34492  1.0000
  H   H377      1.0  0.24099  0.53612  0.36996  1.0000
  C   C478      1.0  0.45970  0.55348  0.03234  1.0000
  H   H378      1.0  0.23614  0.53595  0.23338  1.0000
  H   H379      1.0  0.38010  0.71966  0.47670  1.0000
  C   C479      1.0  0.10936  0.59776  0.46679  1.0000
  H   H380      1.0  0.15936  0.57009  0.40871  1.0000
  C   C480      1.0  0.09087  0.58527  0.46149  1.0000
  C   C481      1.0  0.45609  0.51935  0.36311  1.0000
  C   C482      1.0  0.09030  0.52537  0.99827  1.0000
  H   H381      1.0  0.36519  0.54073  0.44199  1.0000
  C   C483      1.0  0.24598  0.62553  0.41520  1.0000
  C   C484      1.0  0.04634  0.55654  0.40386  1.0000
  C   C485      1.0  0.14021  0.54745  0.03841  1.0000
  H   H382      1.0  0.04654  0.51872  0.35139  1.0000
  H   H383      1.0  0.26390  0.56189  0.05052  1.0000
  H   H384      1.0  0.38261  0.50896  0.47628  1.0000
  H   H385      1.0  0.14330  0.56111  0.02979  1.0000
  C   C486      1.0  0.46556  0.49810  0.01856  1.0000
  S   S67       1.0  0.31835  0.52254  0.45181  1.0000
  C   C487      1.0  0.39051  0.68493  0.44863  1.0000
  H   H386      1.0  0.17063  0.71677  0.39268  1.0000
  H   H387      1.0  0.06593  0.56807  0.48583  1.0000
  C   C488      1.0  0.45881  0.63606  0.33287  1.0000
  H   H388      1.0  0.38038  0.53282  0.37229  1.0000
  H   H389      1.0  0.26289  0.49402  0.08015  1.0000
  C   C489      1.0  0.41696  0.56444  0.00474  1.0000
  C   C490      1.0  0.08888  0.53596  0.07401  1.0000
  C   C491      1.0  0.06606  0.60365  0.00804  1.0000
  H   H390      1.0  0.02512  0.56517  0.41258  1.0000
  C   C492      1.0  0.24595  0.72646  0.22418  1.0000
  C   C493      1.0  0.41882  0.65157  0.01654  1.0000
  C   C494      1.0  0.21853  0.71992  0.45736  1.0000
  C   C495      1.0  0.38299  0.59656  0.43329  1.0000
  H   H391      1.0  0.19948  0.57384  0.36398  1.0000
  H   H392      1.0  0.45307  0.72181  0.09716  1.0000
  S   S68       1.0  0.47236  0.69550  0.46211  1.0000
  H   H393      1.0  0.47915  0.55204  0.44612  1.0000
  H   H394      1.0  0.47918  0.59477  0.38573  1.0000
  C   C496      1.0  0.25267  0.53701  0.07975  1.0000
  C   C497      1.0  0.24623  0.56871  0.45188  1.0000
  H   H395      1.0  0.37885  0.63883  0.39555  1.0000
  C   C498      1.0  0.06729  0.53139  0.13353  1.0000
  C   C499      1.0  0.10768  0.53009  0.46436  1.0000
  S   S69       1.0  0.18162  0.62223  0.03155  1.0000
  H   H396      1.0  0.33865  0.59834  0.45187  1.0000
  C   C500      1.0  0.40403  0.63875  0.38027  1.0000
  C   C501      1.0  0.46316  0.54013  0.05001  1.0000
  C   C502      1.0  0.27325  0.53411  0.12457  1.0000
  H   H397      1.0  0.40722  0.55314  0.01910  1.0000
  C   C503      1.0  0.20851  0.60217  0.41823  1.0000
  C   C504      1.0  0.04302  0.49537  0.38284  1.0000
  H   H398      1.0  0.39770  0.62977  0.35683  1.0000
  H   H399      1.0  0.18231  0.53623  0.45002  1.0000
  C   C505      1.0  0.18004  0.54027  0.42370  1.0000
  C   C506      1.0  0.39332  0.64377  0.40265  1.0000
  Fe  Fe37      1.0  0.31985  0.50086  0.41452  1.0000
  P   P19       1.0  0.23815  0.50490  0.11891  1.0000
  C   C507      1.0  0.20094  0.49731  0.19586  1.0000
  C   C508      1.0  0.16088  0.53359  0.36941  1.0000
  C   C509      1.0  0.31301  0.49972  0.24829  1.0000
  C   C510      1.0  0.40090  0.51632  0.07326  1.0000
  C   C511      1.0  0.15461  0.56457  0.46453  1.0000
  C   C512      1.0  0.28703  0.55127  0.11615  1.0000
  C   C513      1.0  0.46993  0.64901  0.35934  1.0000
  C   C514      1.0  0.40884  0.49812  0.36243  1.0000
  H   H400      1.0  0.43260  0.70319  0.03897  1.0000
  H   H401      1.0  0.46274  0.68510  0.21143  1.0000
  C   C515      1.0  0.31251  0.50137  0.18273  1.0000
  C   C516      1.0  0.41159  0.67758  0.01707  1.0000
  H   H402      1.0  0.39450  0.56635  0.46500  1.0000
  H   H403      1.0  0.19394  0.59341  0.41946  1.0000
  H   H404      1.0  0.20429  0.51329  0.24487  1.0000
  H   H405      1.0  0.25776  0.72632  0.35328  1.0000
  H   H406      1.0  0.20887  0.51367  0.09200  1.0000
  H   H407      1.0  0.40881  0.68742  0.40561  1.0000
  H   H408      1.0  0.05538  0.56930  0.39209  1.0000
  H   H409      1.0  0.20788  0.65555  0.28769  1.0000
  C   C517      1.0  0.29633  0.55191  0.00021  1.0000
  H   H410      1.0  0.44851  0.52631  0.45018  1.0000
  C   C518      1.0  0.32742  0.61785  0.44533  1.0000
  H   H411      1.0  0.13690  0.60617  0.06818  1.0000
  H   H412      1.0  0.21775  0.54761  0.37888  1.0000
  H   H413      1.0  0.24088  0.70228  0.01905  1.0000
  C   C519      1.0  0.37077  0.54030  0.46846  1.0000
  H   H414      1.0  0.15736  0.61364  0.47353  1.0000
  H   H415      1.0  0.19905  0.73089  0.44784  1.0000
  H   H416      1.0  0.47056  0.58275  0.02308  1.0000
  H   H417      1.0  0.43121  0.64173  0.37050  1.0000
  H   H418      1.0  0.32038  0.64036  0.43872  1.0000
  H   H419      1.0  0.17109  0.55368  0.32900  1.0000
  H   H420      1.0  0.37303  0.50170  0.29538  1.0000
  H   H421      1.0  0.12844  0.57348  0.07546  1.0000
  H   H422      1.0  0.07505  0.49446  0.41462  1.0000
  C   C520      1.0  0.21664  0.66219  0.34323  1.0000
  H   H423      1.0  0.04000  0.50146  0.29350  1.0000
  C   C521      1.0  0.46898  0.49733  0.13348  1.0000
  C   C522      1.0  0.44975  0.71328  0.47224  1.0000
  H   H424      1.0  0.45362  0.52567  0.04666  1.0000
  H   H425      1.0  0.16205  0.52055  0.05353  1.0000
  C   C523      1.0  0.37865  0.55715  0.35481  1.0000
  C   C524      1.0  0.16773  0.70778  0.30290  1.0000
  C   C525      1.0  0.38810  0.57610  0.35061  1.0000
  C   C526      1.0  0.44682  0.51626  0.39516  1.0000
  H   H426      1.0  0.21144  0.68672  0.27528  1.0000
  C   C527      1.0  0.24447  0.51059  0.46939  1.0000
  C   C528      1.0  0.08453  0.61729  0.01184  1.0000
  C   C529      1.0  0.05769  0.60388  0.44311  1.0000
  C   C530      1.0  0.47871  0.51064  0.47735  1.0000
  C   C531      1.0  0.25924  0.56197  0.44674  1.0000
  H   H427      1.0  0.10803  0.53247  0.11090  1.0000
  H   H428      1.0  0.05021  0.59663  0.41884  1.0000
  C   C532      1.0  0.05175  0.54246  0.40765  1.0000
  C   C533      1.0  0.45234  0.57128  0.48007  1.0000
  C   C534      1.0  0.36385  0.64517  0.45643  1.0000
  H   H429      1.0  0.40118  0.73563  0.42882  1.0000
  C   C535      1.0  0.46516  0.71338  0.45616  1.0000
  C   C536      1.0  0.21467  0.50482  0.44147  1.0000
  C   C537      1.0  0.33137  0.63648  0.44420  1.0000
  H   H430      1.0  0.37046  0.62209  0.46142  1.0000
  C   C538      1.0  0.04008  0.52591  0.42302  1.0000
  H   H431      1.0  0.06745  0.53983  0.04507  1.0000
  C   C539      1.0  0.47917  0.54531  0.07155  1.0000
  H   H432      1.0  0.12312  0.61607  0.01755  1.0000
  C   C540      1.0  0.23280  0.50668  0.43880  1.0000
  C   C541      1.0  0.43100  0.65716  0.41801  1.0000
  P   P20       1.0  0.04696  0.50750  0.42593  1.0000
  C   C542      1.0  0.38733  0.55468  0.48139  1.0000
  C   C543      1.0  0.39564  0.60630  0.46158  1.0000
  C   C544      1.0  0.22709  0.50840  0.15766  1.0000
  H   H433      1.0  0.31168  0.57788  0.02910  1.0000
  H   H434      1.0  0.12987  0.49741  0.06112  1.0000
  H   H435      1.0  0.26720  0.54470  0.41371  1.0000
  C   C545      1.0  0.36597  0.58183  0.43995  1.0000
  C   C546      1.0  0.17631  0.58962  0.99727  1.0000
  H   H436      1.0  0.41526  0.71936  0.39350  1.0000
  C   C547      1.0  0.40130  0.65511  0.43358  1.0000
  C   C548      1.0  0.31886  0.49670  0.21452  1.0000
  P   P21       1.0  0.46379  0.69564  0.06152  1.0000
  C   C549      1.0  0.17037  0.60351  0.00027  1.0000
  H   H437      1.0  0.43878  0.66152  0.17060  1.0000
  H   H438      1.0  0.09294  0.61787  0.03516  1.0000
  C   C550      1.0  0.11036  0.56420  0.02798  1.0000
  H   H439      1.0  0.29524  0.51283  0.16115  1.0000
  C   C551      1.0  0.21435  0.62070  0.41080  1.0000
  H   H440      1.0  0.06051  0.59383  0.02867  1.0000
  C   C552      1.0  0.16419  0.52870  0.40340  1.0000
  P   P22       1.0  0.43952  0.54616  0.00264  1.0000
  H   H441      1.0  0.44560  0.65682  0.03765  1.0000
  C   C553      1.0  0.19275  0.55684  0.41011  1.0000
  H   H442      1.0  0.15418  0.55104  0.46202  1.0000
  C   C554      1.0  0.42025  0.66178  0.44109  1.0000
  H   H443      1.0  0.48108  0.65325  0.41356  1.0000
  H   H444      1.0  0.24774  0.57752  0.47526  1.0000
  C   C555      1.0  0.21059  0.51198  0.22048  1.0000
  C   C556      1.0  0.24016  0.60698  0.42283  1.0000
  C   C557      1.0  0.04839  0.60114  0.47532  1.0000
  Fe  Fe38      1.0  0.29170  0.50387  0.01834  1.0000
  C   C558      1.0  0.42085  0.49281  0.47053  1.0000
  C   C559      1.0  0.13287  0.51159  0.05624  1.0000
  C   C560      1.0  0.09493  0.53290  0.10754  1.0000
  H   H445      1.0  0.35216  0.66433  0.44739  1.0000
  C   C561      1.0  0.34160  0.61281  0.45178  1.0000
  C   C562      1.0  0.48189  0.54575  0.39111  1.0000
  H   H446      1.0  0.07150  0.54033  0.46955  1.0000
  C   C563      1.0  0.22937  0.55197  0.39777  1.0000
  C   C564      1.0  0.44143  0.68152  0.04043  1.0000
  C   C565      1.0  0.22920  0.72725  0.27650  1.0000
  C   C566      1.0  0.41498  0.49866  0.43983  1.0000
  S   S70       1.0  0.02445  0.58530  0.47516  1.0000
  C   C567      1.0  0.37263  0.59507  0.99510  1.0000
  S   S71       1.0  0.31945  0.49611  0.14065  1.0000
  C   C568      1.0  0.47696  0.70525  0.13224  1.0000
  C   C569      1.0  0.20778  0.50677  0.47468  1.0000
  C   C570      1.0  0.43345  0.56467  0.99338  1.0000
  C   C571      1.0  0.40656  0.65898  0.00870  1.0000
  C   C572      1.0  0.40023  0.51576  0.32046  1.0000
  C   C573      1.0  0.48322  0.72972  0.03071  1.0000
  H   H447      1.0  0.42183  0.54411  0.07017  1.0000
  C   C574      1.0  0.25739  0.55034  0.41710  1.0000
  S   S72       1.0  0.18452  0.50389  0.47614  1.0000
  H   H448      1.0  0.42587  0.52665  0.35073  1.0000
  H   H449      1.0  0.15768  0.70273  0.28065  1.0000
  H   H450      1.0  0.06957  0.50490  0.02959  1.0000
  C   C575      1.0  0.42891  0.68880  0.03312  1.0000
  C   C576      1.0  0.09770  0.53986  0.47303  1.0000
  C   C577      1.0  0.43493  0.59202  0.45463  1.0000
  C   C578      1.0  0.36153  0.57708  0.47518  1.0000
  H   H451      1.0  0.20424  0.62595  0.40658  1.0000
  C   C579      1.0  0.20820  0.50198  0.07614  1.0000
  C   C580      1.0  0.07210  0.53704  0.07063  1.0000
  H   H452      1.0  0.39325  0.65032  0.99588  1.0000
  H   H453      1.0  0.18972  0.70877  0.27133  1.0000
  C   C581      1.0  0.15460  0.54246  0.04257  1.0000
  C   C582      1.0  0.39870  0.49520  0.02441  1.0000
  C   C583      1.0  0.34950  0.65010  0.44947  1.0000
  H   H454      1.0  0.10715  0.50609  0.43703  1.0000
  H   H455      1.0  0.23212  0.73075  0.03087  1.0000
  C   C584      1.0  0.44945  0.67374  0.15989  1.0000
  C   C585      1.0  0.22851  0.52477  0.21396  1.0000
  C   C586      1.0  0.39370  0.50505  0.47506  1.0000
  H   H456      1.0  0.28418  0.51746  0.22031  1.0000
  C   C587      1.0  0.23682  0.72459  0.46891  1.0000
  C   C588      1.0  0.30030  0.50928  0.18528  1.0000
  C   C589      1.0  0.30807  0.57074  0.00312  1.0000
  C   C590      1.0  0.07471  0.50876  0.00324  1.0000
  S   S73       1.0  0.45236  0.64089  0.47785  1.0000
  H   H457      1.0  0.31786  0.49582  0.27232  1.0000
  C   C591      1.0  0.22091  0.49482  0.08283  1.0000
  C   C592      1.0  0.08646  0.62627  0.47258  1.0000
  H   H458      1.0  0.99084  0.55460  0.39267  1.0000
  H   H459      1.0  0.34837  0.51436  0.47980  1.0000
  C   C593      1.0  0.46295  0.68700  0.18289  1.0000
  H   H460      1.0  0.48193  0.53495  0.08462  1.0000
  H   H461      1.0  0.24613  0.71278  0.27239  1.0000
  C   C594      1.0  0.47671  0.70274  0.16905  1.0000
  H   H462      1.0  0.20254  0.72200  0.38410  1.0000
  C   C595      1.0  0.48290  0.57978  0.34102  1.0000
  H   H463      1.0  0.18792  0.59065  0.01375  1.0000
  C   C596      1.0  0.23952  0.73766  0.20664  1.0000
  C   C597      1.0  0.36057  0.57620  0.99566  1.0000
  H   H464      1.0  0.98789  0.58036  0.42438  1.0000
  C   C598      1.0  0.22337  0.73908  0.25921  1.0000
  H   H465      1.0  0.25040  0.60204  0.42753  1.0000
  H   H466      1.0  0.19729  0.58939  0.48335  1.0000
  C   C599      1.0  0.41257  0.57888  0.99686  1.0000
  C   C600      1.0  0.15633  0.59990  0.47076  1.0000
  H   H467      1.0  0.27054  0.56535  0.46616  1.0000
  C   C601      1.0  0.20843  0.56938  0.48262  1.0000
  C   C602      1.0  0.39984  0.73896  0.99720  1.0000
  S   S74       1.0  0.26178  0.49214  0.99405  1.0000
  H   H468      1.0  0.24315  0.74136  0.17937  1.0000
  H   H469      1.0  0.41065  0.74041  0.05103  1.0000
  S   S75       1.0  0.16579  0.65809  0.98751  1.0000
  Fe  Fe39      1.0  0.00272  0.57436  0.51798  1.0000
  C   C603      1.0  0.07892  0.60514  0.58506  1.0000
  S   S76       1.0  0.00630  0.56109  0.56772  1.0000
  Fe  Fe40      1.0  0.00622  0.57028  0.93506  1.0000
  S   S77       1.0  0.00642  0.55094  0.89087  1.0000
  H   H470      1.0  0.43692  0.51565  0.63012  1.0000
  C   C604      1.0  0.99958  0.59016  0.72124  1.0000
  H   H471      1.0  0.33614  0.56026  0.89897  1.0000
  C   C605      1.0  0.38923  0.53031  0.83794  1.0000
  S   S78       1.0  0.16277  0.52191  0.88150  1.0000
  C   C606      1.0  0.39811  0.58350  0.81061  1.0000
  Fe  Fe41      1.0  0.14453  0.52854  0.91736  1.0000
  S   S79       1.0  0.14108  0.55492  0.91900  1.0000
  H   H472      1.0  0.41820  0.57913  0.73450  1.0000
  C   C607      1.0  0.41100  0.58390  0.75292  1.0000
  C   C608      1.0  0.24413  0.49883  0.98067  1.0000
  H   H473      1.0  0.36973  0.50780  0.86698  1.0000
  Fe  Fe42      1.0  0.42454  0.62439  0.90017  1.0000
  H   H474      1.0  0.29087  0.65750  0.83293  1.0000
  H   H475      1.0  0.11355  0.63893  0.91403  1.0000
  Fe  Fe43      1.0  0.45171  0.64430  0.84242  1.0000
  S   S80       1.0  0.45105  0.63584  0.78288  1.0000
  H   H476      1.0  0.22017  0.51467  0.85593  1.0000
  Fe  Fe44      1.0  0.44817  0.66655  0.90860  1.0000
  C   C609      1.0  0.46847  0.66573  0.73941  1.0000
  S   S81       1.0  0.44714  0.61982  0.87537  1.0000
  S   S82       1.0  0.42790  0.64772  0.86539  1.0000
  H   H477      1.0  0.45477  0.52126  0.57553  1.0000
  H   H478      1.0  0.42097  0.60460  0.97090  1.0000
  H   H479      1.0  0.09411  0.52007  0.90889  1.0000
  S   S83       1.0  0.16677  0.52302  0.56135  1.0000
  H   H480      1.0  0.06906  0.53474  0.88110  1.0000
  C   C610      1.0  0.45250  0.52825  0.89317  1.0000
  C   C611      1.0  0.99576  0.57898  0.68974  1.0000
  Fe  Fe45      1.0  0.14455  0.52877  0.53611  1.0000
  Fe  Fe46      1.0  0.98693  0.55856  0.85925  1.0000
  C   C612      1.0  0.11739  0.60206  0.50130  1.0000
  Fe  Fe47      1.0  0.46790  0.66008  0.57618  1.0000
  C   C613      1.0  0.07496  0.58526  0.71125  1.0000
  Fe  Fe48      1.0  0.43555  0.63499  0.52659  1.0000
  H   H481      1.0  0.19677  0.73976  0.52183  1.0000
  S   S84       1.0  0.40623  0.61372  0.53324  1.0000
  H   H482      1.0  0.17232  0.56406  0.96988  1.0000
  H   H483      1.0  0.46950  0.73508  0.52629  1.0000
  H   H484      1.0  0.44695  0.57880  0.53263  1.0000
  S   S85       1.0  0.45597  0.63008  0.56066  1.0000
  S   S86       1.0  0.44628  0.66479  0.54512  1.0000
  H   H485      1.0  0.07167  0.50904  0.82373  1.0000
  H   H486      1.0  0.08108  0.63197  0.60002  1.0000
  H   H487      1.0  0.21630  0.54730  0.49112  1.0000
  H   H488      1.0  0.22690  0.71904  0.61573  1.0000
  H   H489      1.0  0.05368  0.61520  0.92866  1.0000
  H   H490      1.0  0.42745  0.51430  0.81384  1.0000
  H   H491      1.0  0.04298  0.56451  0.60399  1.0000
  H   H492      1.0  0.21199  0.73096  0.66309  1.0000
  C   C614      1.0  0.24532  0.51340  0.84248  1.0000
  C   C615      1.0  0.98716  0.55231  0.72621  1.0000
  C   C616      1.0  0.44723  0.56234  0.83260  1.0000
  H   H493      1.0  0.38516  0.52256  0.81266  1.0000
  Fe  Fe49      1.0  0.46478  0.67078  0.49876  1.0000
  H   H494      1.0  0.09422  0.50326  0.70605  1.0000
  H   H495      1.0  0.43912  0.54841  0.84059  1.0000
  Fe  Fe50      1.0  0.16595  0.50552  0.92744  1.0000
  C   C617      1.0  0.99703  0.58242  0.75513  1.0000
  C   C618      1.0  0.45810  0.64668  0.74151  1.0000
  C   C619      1.0  0.46919  0.66244  0.67409  1.0000
  C   C620      1.0  0.45869  0.64339  0.67614  1.0000
  C   C621      1.0  0.45330  0.63559  0.70965  1.0000
  H   H496      1.0  0.45499  0.63469  0.65198  1.0000
  H   H497      1.0  0.44547  0.62084  0.71099  1.0000
  C   C622      1.0  0.44213  0.72141  0.96578  1.0000
  H   H498      1.0  0.07340  0.58523  0.93188  1.0000
  C   C623      1.0  0.31419  0.51631  0.89315  1.0000
  C   C624      1.0  0.43648  0.59008  0.49133  1.0000
  H   H499      1.0  0.03722  0.50256  0.55894  1.0000
  C   C625      1.0  0.22968  0.51981  0.98193  1.0000
  H   H500      1.0  0.08772  0.60958  0.89289  1.0000
  H   H501      1.0  0.38388  0.54231  0.74876  1.0000
  C   C626      1.0  0.41470  0.59726  0.63550  1.0000
  Fe  Fe51      1.0  0.14382  0.49982  0.58784  1.0000
  C   C627      1.0  0.25591  0.70601  0.97093  1.0000
  H   H502      1.0  0.05765  0.49596  0.49387  1.0000
  S   S87       1.0  0.98797  0.57953  0.90223  1.0000
  S   S88       1.0  0.31640  0.51857  0.98528  1.0000
  H   H503      1.0  0.20552  0.72812  0.72702  1.0000
  C   C628      1.0  0.39842  0.60533  0.76736  1.0000
  C   C629      1.0  0.09267  0.57172  0.63051  1.0000
  H   H504      1.0  0.34879  0.58239  0.79516  1.0000
  C   C630      1.0  0.46678  0.53825  0.91827  1.0000
  C   C631      1.0  0.37131  0.57155  0.93804  1.0000
  H   H505      1.0  0.43556  0.59186  0.66213  1.0000
  H   H506      1.0  0.01260  0.51110  0.95353  1.0000
  H   H507      1.0  0.43576  0.54093  0.77139  1.0000
  H   H508      1.0  0.12639  0.58712  0.87322  1.0000
  C   C632      1.0  0.04374  0.58169  0.70674  1.0000
  C   C633      1.0  0.15546  0.60212  0.97870  1.0000
  C   C634      1.0  0.34983  0.51278  0.64342  1.0000
  S   S89       1.0  0.47254  0.66463  0.88342  1.0000
  H   H509      1.0  0.32497  0.59481  0.97503  1.0000
  H   H510      1.0  0.04543  0.55918  0.85947  1.0000
  C   C635      1.0  0.01008  0.51901  0.82564  1.0000
  H   H511      1.0  0.02476  0.56696  0.82175  1.0000
  H   H512      1.0  0.06767  0.60745  0.70152  1.0000
  C   C636      1.0  0.38515  0.53159  0.90171  1.0000
  C   C637      1.0  0.38040  0.52186  0.86866  1.0000
  H   H513      1.0  0.26997  0.50291  0.91716  1.0000
  H   H514      1.0  0.47232  0.56396  0.85694  1.0000
  C   C638      1.0  0.02337  0.51659  0.53286  1.0000
  H   H515      1.0  0.41987  0.61120  0.64692  1.0000
  C   C639      1.0  0.26409  0.51981  0.85123  1.0000
  C   C640      1.0  0.33872  0.57412  0.81372  1.0000
  C   C641      1.0  0.46601  0.57113  0.84202  1.0000
  C   C642      1.0  0.43878  0.53255  0.54748  1.0000
  S   S90       1.0  0.45779  0.49349  0.53259  1.0000
  C   C643      1.0  0.08405  0.50848  0.70905  1.0000
  C   C644      1.0  0.41852  0.52614  0.60896  1.0000
  C   C645      1.0  0.41345  0.53346  0.57934  1.0000
  C   C646      1.0  0.42389  0.53688  0.54871  1.0000
  P   P23       1.0  0.39422  0.53909  0.58179  1.0000
  C   C647      1.0  0.38489  0.53938  0.53742  1.0000
  C   C648      1.0  0.37631  0.52182  0.60638  1.0000
  C   C649      1.0  0.42144  0.49961  0.80789  1.0000
  C   C650      1.0  0.20788  0.55538  0.53949  1.0000
  H   H516      1.0  0.21015  0.54540  0.55503  1.0000
  Fe  Fe52      1.0  0.98918  0.57308  0.59414  1.0000
  C   C651      1.0  0.36439  0.52644  0.62627  1.0000
  H   H517      1.0  0.06539  0.53081  0.57437  1.0000
  H   H518      1.0  0.47658  0.72254  0.91494  1.0000
  H   H519      1.0  0.98675  0.55125  0.66838  1.0000
  C   C652      1.0  0.98970  0.56001  0.69238  1.0000
  S   S91       1.0  0.34428  0.49205  0.96508  1.0000
  C   C653      1.0  0.40196  0.56163  0.60379  1.0000
  C   C654      1.0  0.41723  0.56860  0.62819  1.0000
  H   H520      1.0  0.40046  0.73656  0.53395  1.0000
  H   H521      1.0  0.09267  0.55984  0.98067  1.0000
  C   C655      1.0  0.39934  0.59031  0.61180  1.0000
  C   C656      1.0  0.39296  0.57259  0.59604  1.0000
  C   C657      1.0  0.40697  0.57663  0.78699  1.0000
  C   C658      1.0  0.05783  0.52214  0.71688  1.0000
  C   C659      1.0  0.23482  0.51998  0.86196  1.0000
  H   H522      1.0  0.00215  0.52056  0.73669  1.0000
  H   H523      1.0  0.42029  0.54235  0.52533  1.0000
  H   H524      1.0  0.30678  0.70790  0.94266  1.0000
  H   H525      1.0  0.19710  0.56493  0.58321  1.0000
  H   H526      1.0  0.44966  0.60480  0.94939  1.0000
  H   H527      1.0  0.36603  0.54047  0.62786  1.0000
  H   H528      1.0  0.40665  0.56593  0.52608  1.0000
  C   C660      1.0  0.46870  0.72737  0.93140  1.0000
  P   P24       1.0  0.07547  0.57025  0.56372  1.0000
  H   H529      1.0  0.04083  0.56295  0.52528  1.0000
  C   C661      1.0  0.24343  0.72889  0.84792  1.0000
  H   H530      1.0  0.42447  0.56055  0.63481  1.0000
  H   H531      1.0  0.37065  0.56238  0.91591  1.0000
  C   C662      1.0  0.24311  0.53317  0.88984  1.0000
  P   P25       1.0  0.38756  0.73874  0.92681  1.0000
  H   H532      1.0  0.38121  0.56764  0.57725  1.0000
  Fe  Fe53      1.0  0.47382  0.63773  0.51285  1.0000
  S   S92       1.0  0.11888  0.50402  0.89766  1.0000
  C   C663      1.0  0.47769  0.73568  0.54989  1.0000
  C   C664      1.0  0.07326  0.50035  0.94036  1.0000
  H   H533      1.0  0.08576  0.63984  0.93623  1.0000
  H   H534      1.0  0.14531  0.64235  0.91586  1.0000
  H   H535      1.0  0.42914  0.71184  0.97562  1.0000
  P   P26       1.0  0.29612  0.53911  0.89373  1.0000
  H   H536      1.0  0.47431  0.55151  0.97029  1.0000
  C   C665      1.0  0.29779  0.51769  0.89935  1.0000
  H   H537      1.0  0.35892  0.57887  0.85655  1.0000
  H   H538      1.0  0.48271  0.51113  0.90864  1.0000
  H   H539      1.0  0.41365  0.72329  0.57907  1.0000
  C   C666      1.0  0.05882  0.50945  0.74079  1.0000
  H   H540      1.0  0.13152  0.61231  0.50549  1.0000
  P   P27       1.0  0.04040  0.53031  0.71998  1.0000
  H   H541      1.0  0.42329  0.51687  0.88117  1.0000
  C   C667      1.0  0.06534  0.49576  0.83571  1.0000
  H   H542      1.0  0.23479  0.53791  0.90541  1.0000
  C   C668      1.0  0.06839  0.56636  0.71626  1.0000
  C   C669      1.0  0.47664  0.58930  0.83278  1.0000
  H   H543      1.0  0.15160  0.61632  0.89533  1.0000
  C   C670      1.0  0.05830  0.61113  0.50616  1.0000
  H   H544      1.0  0.24638  0.51565  0.52652  1.0000
  C   C671      1.0  0.08857  0.51697  0.93512  1.0000
  C   C672      1.0  0.04939  0.55493  0.71577  1.0000
  C   C673      1.0  0.02855  0.52554  0.76139  1.0000
  C   C674      1.0  0.44497  0.57915  0.97269  1.0000
  C   C675      1.0  0.16746  0.57452  0.97259  1.0000
  H   H545      1.0  0.29259  0.54863  0.81898  1.0000
  C   C676      1.0  0.11053  0.54139  0.83819  1.0000
  C   C677      1.0  0.10753  0.53903  0.80113  1.0000
  C   C678      1.0  0.09794  0.54739  0.78350  1.0000
  C   C679      1.0  0.09130  0.55808  0.80294  1.0000
  C   C680      1.0  0.09417  0.56041  0.84027  1.0000
  C   C681      1.0  0.10389  0.55200  0.85770  1.0000
  P   P28       1.0  0.08590  0.57432  0.86599  1.0000
  C   C682      1.0  0.10489  0.59583  0.88179  1.0000
  C   C683      1.0  0.07046  0.57997  0.83880  1.0000
  C   C684      1.0  0.07756  0.59460  0.81559  1.0000
  C   C685      1.0  0.06569  0.59940  0.79533  1.0000
  C   C686      1.0  0.04666  0.58935  0.79738  1.0000
  C   C687      1.0  0.03952  0.57466  0.82005  1.0000
  C   C688      1.0  0.05133  0.57014  0.84110  1.0000
  C   C689      1.0  0.10156  0.61075  0.89319  1.0000
  C   C690      1.0  0.11614  0.62747  0.90505  1.0000
  C   C691      1.0  0.13412  0.62946  0.90595  1.0000
  C   C692      1.0  0.13763  0.61483  0.89428  1.0000
  C   C693      1.0  0.12313  0.59813  0.88195  1.0000
  C   C694      1.0  0.07335  0.56153  0.90316  1.0000
  C   C695      1.0  0.06661  0.54226  0.90295  1.0000
  C   C696      1.0  0.10522  0.56912  0.65340  1.0000
  C   C697      1.0  0.21948  0.51084  0.50525  1.0000
  C   C698      1.0  0.05886  0.56051  0.95955  1.0000
  C   C699      1.0  0.06907  0.57053  0.93142  1.0000
  H   H546      1.0  0.11840  0.53532  0.85182  1.0000
  H   H547      1.0  0.11291  0.53093  0.78614  1.0000
  H   H548      1.0  0.09592  0.54576  0.75470  1.0000
  H   H549      1.0  0.08405  0.56455  0.78880  1.0000
  H   H550      1.0  0.10665  0.55393  0.88641  1.0000
  H   H551      1.0  0.09228  0.60252  0.81365  1.0000
  H   H552      1.0  0.07122  0.61101  0.77820  1.0000
  H   H553      1.0  0.03739  0.59299  0.78168  1.0000
  C   C700      1.0  0.46294  0.54386  0.95133  1.0000
  C   C701      1.0  0.31553  0.49998  0.89962  1.0000
  C   C702      1.0  0.36000  0.56446  0.96702  1.0000
  C   C703      1.0  0.11364  0.55467  0.60444  1.0000
  C   C704      1.0  0.41022  0.54324  0.76412  1.0000
  C   C705      1.0  0.42261  0.73534  0.56522  1.0000
  H   H554      1.0  0.40243  0.55742  0.92959  1.0000
  H   H555      1.0  0.27844  0.67805  0.93026  1.0000
  H   H556      1.0  0.38808  0.60376  0.82020  1.0000
  C   C706      1.0  0.42282  0.53619  0.75631  1.0000
  H   H557      1.0  0.34042  0.51635  0.65806  1.0000
  C   C707      1.0  0.44411  0.49397  0.96898  1.0000
  H   H558      1.0  0.38261  0.63526  0.51672  1.0000
  C   C708      1.0  0.37402  0.58705  0.50352  1.0000
  H   H559      1.0  0.44201  0.70225  0.48934  1.0000
  H   H560      1.0  0.18932  0.70669  0.52485  1.0000
  C   C709      1.0  0.03819  0.52747  0.79422  1.0000
  C   C710      1.0  0.34444  0.57213  0.84820  1.0000
  H   H561      1.0  0.24243  0.67505  0.89971  1.0000
  H   H562      1.0  0.39329  0.61665  0.96579  1.0000
  H   H563      1.0  0.03620  0.52527  0.85146  1.0000
  C   C711      1.0  0.43336  0.52176  0.60758  1.0000
  H   H564      1.0  0.48227  0.68824  0.70474  1.0000
  C   C712      1.0  0.05418  0.53190  0.56001  1.0000
  C   C713      1.0  0.46849  0.59864  0.81390  1.0000
  H   H565      1.0  0.35594  0.70552  0.89449  1.0000
  C   C714      1.0  0.38985  0.52373  0.71548  1.0000
  C   C715      1.0  0.40304  0.54858  0.84019  1.0000
  C   C716      1.0  0.37336  0.50333  0.60372  1.0000
  C   C717      1.0  0.40583  0.71924  0.89841  1.0000
  H   H566      1.0  0.32640  0.70097  0.86633  1.0000
  C   C718      1.0  0.00063  0.51795  0.79333  1.0000
  H   H567      1.0  0.04919  0.50423  0.76175  1.0000
  H   H568      1.0  0.33316  0.50128  0.80616  1.0000
  C   C719      1.0  0.39894  0.54971  0.90415  1.0000
  S   S93       1.0  0.39741  0.59847  0.90058  1.0000
  C   C720      1.0  0.46113  0.50415  0.98680  1.0000
  C   C721      1.0  0.40973  0.70406  0.89552  1.0000
  C   C722      1.0  0.06948  0.52712  0.68796  1.0000
  C   C723      1.0  0.10715  0.59349  0.53043  1.0000
  H   H569      1.0  0.08962  0.59405  0.71132  1.0000
  C   C724      1.0  0.36117  0.52555  0.48997  1.0000
  S   S94       1.0  0.44313  0.64292  0.94467  1.0000
  C   C725      1.0  0.08260  0.52040  0.68423  1.0000
  C   C726      1.0  0.39375  0.53699  0.74330  1.0000
  C   C727      1.0  0.46835  0.49377  0.49247  1.0000
  C   C728      1.0  0.44347  0.52495  0.57683  1.0000
  H   H570      1.0  0.00433  0.60487  0.71940  1.0000
  C   C729      1.0  0.06263  0.59286  0.70591  1.0000
  C   C730      1.0  0.14391  0.49650  0.69124  1.0000
  H   H571      1.0  0.41843  0.57233  0.87615  1.0000
  C   C731      1.0  0.28330  0.69535  0.84709  1.0000
  S   S95       1.0  0.14693  0.55781  0.53606  1.0000
  H   H572      1.0  0.44639  0.53450  0.52338  1.0000
  C   C732      1.0  0.28103  0.67946  0.90199  1.0000
  H   H573      1.0  0.32622  0.52787  0.88464  1.0000
  C   C733      1.0  0.28496  0.66639  0.88371  1.0000
  H   H574      1.0  0.36058  0.51316  0.53985  1.0000
  C   C734      1.0  0.06621  0.49636  0.97426  1.0000
  H   H575      1.0  0.26610  0.71966  0.97973  1.0000
  H   H576      1.0  0.45749  0.57942  0.96272  1.0000
  H   H577      1.0  0.31765  0.57863  0.91605  1.0000
  H   H578      1.0  0.03168  0.54210  0.65035  1.0000
  H   H579      1.0  0.00284  0.51649  0.85035  1.0000
  C   C735      1.0  0.21416  0.50714  0.96135  1.0000
  C   C736      1.0  0.02422  0.51836  0.68323  1.0000
  C   C737      1.0  0.41872  0.52268  0.72887  1.0000
  C   C738      1.0  0.39420  0.55437  0.51592  1.0000
  H   H580      1.0  0.40847  0.73315  0.98632  1.0000
  C   C739      1.0  0.09725  0.52931  0.96408  1.0000
  C   C740      1.0  0.39966  0.68825  0.91414  1.0000
  H   H581      1.0  0.42833  0.51700  0.72350  1.0000
  C   C741      1.0  0.02887  0.52387  0.82613  1.0000
  C   C742      1.0  0.33146  0.56156  0.87224  1.0000
  H   H582      1.0  0.00971  0.52498  0.60073  1.0000
  S   S96       1.0  0.03141  0.58480  0.97476  1.0000
  S   S97       1.0  0.44303  0.69016  0.93510  1.0000
  C   C743      1.0  0.22826  0.67132  0.94846  1.0000
  H   H583      1.0  0.39433  0.63843  0.57862  1.0000
  C   C744      1.0  0.43059  0.53045  0.93337  1.0000
  H   H584      1.0  0.41654  0.52759  0.93871  1.0000
  H   H585      1.0  0.39893  0.50570  0.68770  1.0000
  H   H586      1.0  0.15115  0.59427  0.52634  1.0000
  H   H587      1.0  0.45553  0.52338  0.86814  1.0000
  C   C745      1.0  0.01336  0.49927  0.68431  1.0000
  C   C746      1.0  0.23761  0.51269  0.50257  1.0000
  S   S98       1.0  0.15227  0.49876  0.64692  1.0000
  H   H588      1.0  0.09148  0.52416  0.66174  1.0000
  H   H589      1.0  0.39591  0.61698  0.76045  1.0000
  H   H590      1.0  0.37714  0.51896  0.69953  1.0000
  H   H591      1.0  0.99983  0.59111  0.77917  1.0000
  P   P29       1.0  0.27493  0.71076  0.90794  1.0000
  H   H592      1.0  0.39490  0.49764  0.79308  1.0000
  H   H593      1.0  0.39484  0.57825  0.83696  1.0000
  C   C747      1.0  0.30079  0.55169  0.93639  1.0000
  H   H594      1.0  0.21730  0.65805  0.93968  1.0000
  C   C748      1.0  0.33608  0.71456  0.87661  1.0000
  Fe  Fe54      1.0  0.46616  0.63983  0.91735  1.0000
  C   C749      1.0  0.41448  0.68363  0.55874  1.0000
  H   H595      1.0  0.43107  0.59680  0.50987  1.0000
  C   C750      1.0  0.44976  0.58980  0.80396  1.0000
  H   H596      1.0  0.13441  0.58550  0.93933  1.0000
  C   C751      1.0  0.40795  0.55814  0.87366  1.0000
  C   C752      1.0  0.04036  0.54982  0.53240  1.0000
  H   H597      1.0  0.47132  0.51635  0.97525  1.0000
  H   H598      1.0  0.37039  0.58344  0.53073  1.0000
  H   H599      1.0  0.33413  0.73039  0.97697  1.0000
  H   H600      1.0  0.10425  0.55252  0.48943  1.0000
  H   H601      1.0  0.02245  0.55440  0.71246  1.0000
  C   C753      1.0  0.05259  0.54147  0.95947  1.0000
  C   C754      1.0  0.09074  0.56603  0.59424  1.0000
  C   C755      1.0  0.15193  0.57119  0.49771  1.0000
  C   C756      1.0  0.08849  0.58098  0.52545  1.0000
  C   C757      1.0  0.19879  0.71658  0.54472  1.0000
  C   C758      1.0  0.28061  0.73717  0.85730  1.0000
  C   C759      1.0  0.28270  0.50225  0.91139  1.0000
  H   H602      1.0  0.32849  0.49932  0.89670  1.0000
  H   H603      1.0  0.47975  0.52325  0.48999  1.0000
  C   C760      1.0  0.05151  0.57917  0.60304  1.0000
  C   C761      1.0  0.11573  0.56065  0.64032  1.0000
  H   H604      1.0  0.44112  0.49813  0.94333  1.0000
  C   C762      1.0  0.34031  0.49301  0.79995  1.0000
  C   C763      1.0  0.07293  0.61721  0.60131  1.0000
  C   C764      1.0  0.48473  0.50020  0.92096  1.0000
  H   H605      1.0  0.47772  0.61248  0.59044  1.0000
  C   C765      1.0  0.47407  0.67351  0.70593  1.0000
  H   H606      1.0  0.10137  0.59293  0.97408  1.0000
  C   C766      1.0  0.08035  0.57713  0.49071  1.0000
  C   C767      1.0  0.22784  0.67890  0.98215  1.0000
  C   C768      1.0  0.39110  0.64893  0.52805  1.0000
  C   C769      1.0  0.39774  0.65067  0.56350  1.0000
  P   P30       1.0  0.41468  0.55984  0.80090  1.0000
  H   H607      1.0  0.39268  0.59891  0.60471  1.0000
  C   C770      1.0  0.39580  0.66458  0.50772  1.0000
  C   C771      1.0  0.31183  0.57085  0.93926  1.0000
  H   H608      1.0  0.41218  0.69428  0.50826  1.0000
  C   C772      1.0  0.01438  0.49858  0.95232  1.0000
  H   H609      1.0  0.27189  0.51407  0.83676  1.0000
  C   C773      1.0  0.43896  0.57155  0.81323  1.0000
  C   C774      1.0  0.20728  0.71079  0.57124  1.0000
  H   H610      1.0  0.11376  0.59696  0.55690  1.0000
  C   C775      1.0  0.15661  0.50125  0.72069  1.0000
  C   C776      1.0  0.45210  0.71460  0.94452  1.0000
  C   C777      1.0  0.05632  0.53235  0.93102  1.0000
  C   C778      1.0  0.28804  0.66777  0.84716  1.0000
  C   C779      1.0  0.26189  0.53974  0.89847  1.0000
  C   C780      1.0  0.31262  0.55290  0.86213  1.0000
  C   C781      1.0  0.40219  0.51636  0.70863  1.0000
  C   C782      1.0  0.07710  0.62371  0.50464  1.0000
  C   C783      1.0  0.14633  0.58680  0.95489  1.0000
  C   C784      1.0  0.10128  0.55741  0.58142  1.0000
  H   H611      1.0  0.05288  0.53190  0.79525  1.0000
  C   C785      1.0  0.00975  0.52112  0.76129  1.0000
  H   H612      1.0  0.07816  0.56079  0.72041  1.0000
  H   H613      1.0  0.03235  0.58593  0.63144  1.0000
  H   H614      1.0  0.05116  0.61959  0.62948  1.0000
  H   H615      1.0  0.41493  0.66922  0.60604  1.0000
  C   C786      1.0  0.04549  0.59127  0.61893  1.0000
  C   C787      1.0  0.05612  0.61028  0.61790  1.0000
  H   H616      1.0  0.09176  0.61089  0.57164  1.0000
  H   H617      1.0  0.01280  0.53436  0.51009  1.0000
  H   H618      1.0  0.26779  0.54965  0.92072  1.0000
  S   S99       1.0  0.19525  0.51264  0.95200  1.0000
  S   S100      1.0  0.12174  0.50706  0.56542  1.0000
  C   C788      1.0  0.40671  0.59819  0.74318  1.0000
  C   C789      1.0  0.39401  0.59790  0.80095  1.0000
  H   H619      1.0  0.12191  0.54823  0.59418  1.0000
  H   H620      1.0  0.45947  0.56364  0.48999  1.0000
  C   C790      1.0  0.36822  0.52496  0.52420  1.0000
  C   C791      1.0  0.27253  0.53298  0.87940  1.0000
  C   C792      1.0  0.40775  0.68196  0.52336  1.0000
  H   H621      1.0  0.37804  0.52513  0.92541  1.0000
  H   H622      1.0  0.07294  0.49320  0.75572  1.0000
  H   H623      1.0  0.08448  0.63168  0.52843  1.0000
  C   C793      1.0  0.29271  0.54242  0.96702  1.0000
  C   C794      1.0  0.22000  0.72366  0.59604  1.0000
  C   C795      1.0  0.15241  0.57311  0.95129  1.0000
  Fe  Fe55      1.0  0.13723  0.49619  0.86430  1.0000
  C   C796      1.0  0.28723  0.68225  0.82889  1.0000
  C   C797      1.0  0.19675  0.57855  0.53483  1.0000
  C   C798      1.0  0.44471  0.53943  0.95961  1.0000
  H   H624      1.0  0.31558  0.56722  0.77670  1.0000
  H   H625      1.0  0.06826  0.53600  0.66795  1.0000
  H   H626      1.0  0.28250  0.70625  0.83218  1.0000
  H   H627      1.0  0.05139  0.60943  0.53103  1.0000
  H   H628      1.0  0.23878  0.50299  0.82117  1.0000
  C   C799      1.0  0.01082  0.51783  0.62410  1.0000
  H   H629      1.0  0.22906  0.72596  0.84495  1.0000
  H   H630      1.0  0.41737  0.50619  0.98287  1.0000
  H   H631      1.0  0.08482  0.57849  0.64098  1.0000
  C   C800      1.0  0.05540  0.54909  0.55063  1.0000
  C   C801      1.0  0.02312  0.52753  0.65257  1.0000
  C   C802      1.0  0.30699  0.55498  0.82745  1.0000
  H   H632      1.0  0.41054  0.60431  0.71754  1.0000
  H   H633      1.0  0.42102  0.70472  0.87978  1.0000
  H   H634      1.0  0.20429  0.69637  0.57195  1.0000
  H   H635      1.0  0.28943  0.68321  0.80045  1.0000
  H   H636      1.0  0.42405  0.69698  0.57024  1.0000
  H   H637      1.0  0.28536  0.65504  0.89784  1.0000
  H   H638      1.0  0.31884  0.72743  0.86083  1.0000
  C   C803      1.0  0.40937  0.66800  0.57890  1.0000
  C   C804      1.0  0.28015  0.69405  0.88384  1.0000
  H   H639      1.0  0.10705  0.57394  0.68114  1.0000
  C   C805      1.0  0.42441  0.59347  0.97713  1.0000
  C   C806      1.0  0.20302  0.73524  0.54298  1.0000
  C   C807      1.0  0.34710  0.49446  0.64086  1.0000
  S   S101      1.0  0.14884  0.51393  0.96378  1.0000
  C   C808      1.0  0.38172  0.70274  0.93885  1.0000
  C   C809      1.0  0.24253  0.68101  0.92599  1.0000
  S   S102      1.0  0.99866  0.58921  0.64775  1.0000
  H   H640      1.0  0.22352  0.72878  0.91712  1.0000
  H   H641      1.0  0.10018  0.55305  0.55350  1.0000
  H   H642      1.0  0.44718  0.73746  0.59241  1.0000
  S   S103      1.0  0.20380  0.70751  0.97553  1.0000
  H   H643      1.0  0.41092  0.52371  0.63306  1.0000
  C   C810      1.0  0.42357  0.58636  0.64390  1.0000
  H   H644      1.0  0.44386  0.59754  0.78988  1.0000
  C   C811      1.0  0.39178  0.71871  0.92017  1.0000
  C   C812      1.0  0.29502  0.72698  0.93383  1.0000
  C   C813      1.0  0.30830  0.72174  0.94728  1.0000
  C   C814      1.0  0.08046  0.62956  0.95614  1.0000
  Fe  Fe56      1.0  0.16227  0.50332  0.51461  1.0000
  H   H645      1.0  0.40311  0.67672  0.91245  1.0000
  H   H646      1.0  0.35083  0.54993  0.96716  1.0000
  C   C815      1.0  0.44875  0.74049  0.97441  1.0000
  H   H647      1.0  0.48090  0.54151  0.91251  1.0000
  C   C816      1.0  0.26754  0.72312  0.87676  1.0000
  H   H648      1.0  0.19023  0.58641  0.54671  1.0000
  H   H649      1.0  0.12563  0.55881  0.65782  1.0000
  C   C817      1.0  0.21148  0.55661  0.50316  1.0000
  C   C818      1.0  0.03819  0.51575  0.55125  1.0000
  H   H650      1.0  0.44648  0.49738  0.82140  1.0000
  H   H651      1.0  0.03416  0.58762  0.70315  1.0000
  H   H652      1.0  0.23846  0.70849  0.88676  1.0000
  C   C819      1.0  0.43441  0.52455  0.90055  1.0000
  C   C820      1.0  0.38560  0.68755  0.93568  1.0000
  C   C821      1.0  0.15079  0.49910  0.75627  1.0000
  C   C822      1.0  0.38416  0.60212  0.96627  1.0000
  H   H653      1.0  0.35067  0.50628  0.75093  1.0000
  H   H654      1.0  0.05566  0.56750  0.98136  1.0000
  C   C823      1.0  0.24887  0.71898  0.87174  1.0000
  C   C824      1.0  0.06215  0.61560  0.95180  1.0000
  H   H655      1.0  0.17111  0.50657  0.71596  1.0000
  H   H656      1.0  0.28374  0.52779  0.96542  1.0000
  C   C825      1.0  0.25656  0.69838  0.93719  1.0000
  C   C826      1.0  0.32390  0.73449  0.96686  1.0000
  C   C827      1.0  0.32002  0.56557  0.80337  1.0000
  C   C828      1.0  0.33181  0.72944  0.87340  1.0000
  C   C829      1.0  0.03715  0.56285  0.71200  1.0000
  C   C830      1.0  0.44053  0.59354  0.96488  1.0000
  H   H657      1.0  0.05124  0.51756  0.93077  1.0000
  C   C831      1.0  0.06808  0.58600  0.58524  1.0000
  C   C832      1.0  0.15298  0.58895  0.50071  1.0000
  C   C833      1.0  0.38356  0.59034  0.93772  1.0000
  C   C834      1.0  0.39918  0.49869  0.50528  1.0000
  H   H658      1.0  0.21457  0.51250  0.53100  1.0000
  C   C835      1.0  0.02444  0.53364  0.52364  1.0000
  C   C836      1.0  0.20054  0.56637  0.55535  1.0000
  S   S104      1.0  0.98658  0.55255  0.79913  1.0000
  C   C837      1.0  0.35287  0.71721  0.89290  1.0000
  C   C838      1.0  0.31571  0.58024  0.97263  1.0000
  H   H659      1.0  0.37796  0.67533  0.95036  1.0000
  C   C839      1.0  0.35019  0.49582  0.76888  1.0000
  H   H660      1.0  0.18792  0.49526  0.58979  1.0000
  H   H661      1.0  0.37106  0.70218  0.95628  1.0000
  H   H662      1.0  0.10967  0.54171  0.96005  1.0000
  H   H663      1.0  0.01096  0.50406  0.52615  1.0000
  C   C840      1.0  0.20072  0.58011  0.49866  1.0000
  C   C841      1.0  0.07208  0.50289  0.73715  1.0000
  H   H664      1.0  0.38191  0.49922  0.58758  1.0000
  H   H665      1.0  0.47656  0.61292  0.80747  1.0000
  C   C842      1.0  0.39114  0.60157  0.49680  1.0000
  H   H666      1.0  0.01359  0.49713  0.89511  1.0000
  H   H667      1.0  0.15087  0.61279  0.98055  1.0000
  C   C843      1.0  0.41292  0.49280  0.50312  1.0000
  H   H668      1.0  0.47236  0.67444  0.76359  1.0000
  C   C844      1.0  0.99989  0.49887  0.62557  1.0000
  C   C845      1.0  0.48137  0.72072  0.55701  1.0000
  H   H669      1.0  0.39243  0.49785  0.53009  1.0000
  C   C846      1.0  0.36550  0.73480  0.90637  1.0000
  C   C847      1.0  0.05469  0.60259  0.97794  1.0000
  C   C848      1.0  0.44525  0.57979  0.50410  1.0000
  H   H670      1.0  0.47621  0.70876  0.53862  1.0000
  H   H671      1.0  0.03924  0.49622  0.84091  1.0000
  H   H672      1.0  0.37406  0.68782  0.49071  1.0000
  H   H673      1.0  0.04467  0.53381  0.98132  1.0000
  H   H674      1.0  0.47987  0.60309  0.90548  1.0000
  H   H675      1.0  0.41413  0.73145  0.88430  1.0000
  C   C849      1.0  0.23201  0.73509  0.94103  1.0000
  S   S105      1.0  0.98679  0.58772  0.54501  1.0000
  C   C850      1.0  0.22562  0.72757  0.97431  1.0000
  S   S106      1.0  0.47709  0.67296  0.63274  1.0000
  H   H676      1.0  0.16078  0.50274  0.77841  1.0000
  C   C851      1.0  0.99059  0.56340  0.75770  1.0000
  H   H677      1.0  0.29510  0.74079  0.86100  1.0000
  C   C852      1.0  0.09191  0.63049  0.98601  1.0000
  S   S107      1.0  0.14103  0.51044  0.48807  1.0000
  H   H678      1.0  0.98629  0.51513  0.79336  1.0000
  C   C853      1.0  0.21784  0.73951  0.71847  1.0000
  C   C854      1.0  0.22164  0.74112  0.68215  1.0000
  H   H679      1.0  0.01443  0.49188  0.70723  1.0000
  H   H680      1.0  0.46878  0.68758  0.98721  1.0000
  Fe  Fe57      1.0  0.47045  0.81466  0.08305  1.0000
  H   H681      1.0  0.40205  0.79377  0.46234  1.0000
  Fe  Fe58      1.0  0.43725  0.80666  0.03335  1.0000
  C   C855      1.0  0.38362  0.84811  0.01435  1.0000
  S   S108      1.0  0.40704  0.79936  0.03606  1.0000
  Fe  Fe59      1.0  0.46718  0.79704  0.00709  1.0000
  S   S109      1.0  0.46167  0.81328  0.45618  1.0000
  Fe  Fe60      1.0  0.47424  0.83835  0.01642  1.0000
  S   S110      1.0  0.44945  0.78851  0.05481  1.0000
  S   S111      1.0  0.45686  0.83204  0.06487  1.0000
  Fe  Fe61      1.0  0.45557  0.81245  0.35223  1.0000
  S   S112      1.0  0.44748  0.81387  0.29334  1.0000
  Fe  Fe62      1.0  0.44096  0.81876  0.42429  1.0000
  C   C856      1.0  0.37835  0.75453  0.02657  1.0000
  C   C857      1.0  0.36080  0.98303  0.17609  1.0000
  Fe  Fe63      1.0  0.45561  0.78932  0.41691  1.0000
  C   C858      1.0  0.36771  0.91637  0.99619  1.0000
  S   S113      1.0  0.46149  0.83765  0.38734  1.0000
  S   S114      1.0  0.43321  0.79386  0.38732  1.0000
  Fe  Fe64      1.0  0.40020  0.97171  0.43014  1.0000
  S   S115      1.0  0.41367  0.96566  0.38351  1.0000
  H   H682      1.0  0.45799  0.97392  0.16793  1.0000
  Fe  Fe65      1.0  0.39847  0.96467  0.03443  1.0000
  C   C859      1.0  0.39495  0.80169  0.47098  1.0000
  S   S116      1.0  0.42164  0.96833  0.07344  1.0000
  H   H683      1.0  0.41578  0.89797  0.14869  1.0000
  C   C860      1.0  0.34144  0.95106  0.18895  1.0000
  H   H684      1.0  0.48069  0.97769  0.33864  1.0000
  C   C861      1.0  0.45668  0.87404  0.13408  1.0000
  C   C862      1.0  0.45157  0.93851  0.40068  1.0000
  C   C863      1.0  0.26707  0.75096  0.38681  1.0000
  H   H685      1.0  0.47636  0.85106  0.31867  1.0000
  Fe  Fe66      1.0  0.48188  0.83112  0.41733  1.0000
  C   C864      1.0  0.39479  0.79882  0.99623  1.0000
  C   C865      1.0  0.48587  0.95620  0.36264  1.0000
  C   C866      1.0  0.45896  0.88109  0.33543  1.0000
  C   C867      1.0  0.47021  0.74265  0.42916  1.0000
  C   C868      1.0  0.39031  0.75074  0.04868  1.0000
  H   H686      1.0  0.48437  0.89508  0.30893  1.0000
  H   H687      1.0  0.40295  0.86608  0.12430  1.0000
  H   H688      1.0  0.34390  0.93057  0.15438  1.0000
  S   S117      1.0  0.38787  0.98730  0.39799  1.0000
  S   S118      1.0  0.31306  0.81068  0.47716  1.0000
  C   C869      1.0  0.37725  0.79818  0.99793  1.0000
  C   C870      1.0  0.36333  0.91613  0.43665  1.0000
  C   C871      1.0  0.39731  0.84333  0.00245  1.0000
  H   H689      1.0  0.45028  0.92335  0.28465  1.0000
  C   C872      1.0  0.45494  0.81516  0.18570  1.0000
  C   C873      1.0  0.44766  0.81466  0.21974  1.0000
  C   C874      1.0  0.45728  0.81393  0.25115  1.0000
  H   H690      1.0  0.44731  0.81561  0.16190  1.0000
  H   H691      1.0  0.43442  0.81474  0.22174  1.0000
  C   C875      1.0  0.47387  0.89828  0.43414  1.0000
  S   S119      1.0  0.39047  0.96978  0.29662  1.0000
  H   H692      1.0  0.47517  0.85578  0.25396  1.0000
  C   C876      1.0  0.46326  0.88123  0.44840  1.0000
  H   H693      1.0  0.47813  0.75378  0.41228  1.0000
  H   H694      1.0  0.22341  0.75282  0.21069  1.0000
  H   H695      1.0  0.38558  0.91115  0.06765  1.0000
  H   H696      1.0  0.37822  0.98661  0.13112  1.0000
  H   H697      1.0  0.48618  0.92610  0.32041  1.0000
  C   C877      1.0  0.26334  0.76536  0.39927  1.0000
  S   S120      1.0  0.48178  0.86783  0.99817  1.0000
  C   C878      1.0  0.42438  0.93321  0.43380  1.0000
  C   C879      1.0  0.47206  0.81506  0.18258  1.0000
  H   H698      1.0  0.42977  0.89474  0.46775  1.0000
  H   H699      1.0  0.40992  0.93006  0.43420  1.0000
  Fe  Fe67      1.0  0.40280  0.98222  0.35197  1.0000
  C   C880      1.0  0.25383  0.75190  0.00235  1.0000
  H   H700      1.0  0.33123  0.94103  0.20511  1.0000
  C   C881      1.0  0.45485  0.74261  0.44545  1.0000
  H   H701      1.0  0.44684  0.96526  0.35336  1.0000
  H   H702      1.0  0.35904  0.81213  0.09775  1.0000
  C   C882      1.0  0.44522  0.88307  0.35406  1.0000
  C   C883      1.0  0.48344  0.91380  0.45684  1.0000
  C   C884      1.0  0.41502  0.88659  0.46412  1.0000
  H   H703      1.0  0.42427  0.93012  0.37678  1.0000
  C   C885      1.0  0.42192  0.90276  0.01892  1.0000
  H   H704      1.0  0.43394  0.87102  0.36369  1.0000
  S   S121      1.0  0.33062  0.86330  0.46488  1.0000
  S   S122      1.0  0.38786  0.94945  0.47175  1.0000
  C   C886      1.0  0.37333  0.85267  0.98894  1.0000
  C   C887      1.0  0.43264  0.93351  0.40134  1.0000
  C   C888      1.0  0.43603  0.93785  0.26237  1.0000
  H   H705      1.0  0.46416  0.94963  0.19603  1.0000
  H   H706      1.0  0.47440  0.86609  0.16578  1.0000
  H   H707      1.0  0.47546  0.89933  0.40565  1.0000
  P   P31       1.0  0.46220  0.93883  0.35858  1.0000
  H   H708      1.0  0.48206  0.81342  0.27183  1.0000
  H   H709      1.0  0.35012  0.89645  0.03218  1.0000
  C   C889      1.0  0.45556  0.88759  0.11310  1.0000
  P   P32       1.0  0.46999  0.92151  0.08051  1.0000
  C   C890      1.0  0.46585  0.93796  0.10823  1.0000
  C   C891      1.0  0.46217  0.95170  0.09274  1.0000
  C   C892      1.0  0.45963  0.96471  0.11428  1.0000
  C   C893      1.0  0.46018  0.96388  0.15143  1.0000
  C   C894      1.0  0.46358  0.95016  0.16717  1.0000
  C   C895      1.0  0.46650  0.93731  0.14573  1.0000
  C   C896      1.0  0.45176  0.90955  0.04693  1.0000
  C   C897      1.0  0.43589  0.91245  0.04484  1.0000
  C   C898      1.0  0.47370  0.89665  0.32338  1.0000
  H   H710      1.0  0.40519  0.83918  0.02061  1.0000
  S   S123      1.0  0.44760  0.76047  0.43979  1.0000
  C   C899      1.0  0.45300  0.89626  0.02361  1.0000
  H   H711      1.0  0.44460  0.86122  0.13735  1.0000
  H   H712      1.0  0.45624  0.86904  0.43090  1.0000
  H   H713      1.0  0.44245  0.88506  0.10042  1.0000
  S   S124      1.0  0.37544  0.93486  0.02955  1.0000
  H   H714      1.0  0.46128  0.95248  0.06395  1.0000
  C   C900      1.0  0.40105  0.74294  0.03400  1.0000
  C   C901      1.0  0.44985  0.94382  0.32275  1.0000
  H   H715      1.0  0.33158  0.98867  0.14589  1.0000
  H   H716      1.0  0.46933  0.92698  0.15866  1.0000
  H   H717      1.0  0.43413  0.92210  0.06295  1.0000
  C   C902      1.0  0.39506  0.96949  0.22419  1.0000
  H   H718      1.0  0.36240  0.85604  0.99690  1.0000
  H   H719      1.0  0.36719  0.95354  0.11730  1.0000
  H   H720      1.0  0.46476  0.89326  0.02533  1.0000
  H   H721      1.0  0.46285  0.75519  0.09139  1.0000
  C   C903      1.0  0.22548  0.75242  0.46717  1.0000
  C   C904      1.0  0.47134  0.90407  0.10808  1.0000
  H   H722      1.0  0.37319  0.87956  0.04164  1.0000
  C   C905      1.0  0.23492  0.75279  0.36307  1.0000
  H   H723      1.0  0.22090  0.76313  0.46645  1.0000
  C   C906      1.0  0.46438  0.98719  0.46139  1.0000
  C   C907      1.0  0.24932  0.74295  0.47949  1.0000
  C   C908      1.0  0.43485  0.93747  0.46590  1.0000
  C   C909      1.0  0.43013  0.95154  0.26804  1.0000
  C   C910      1.0  0.47476  0.91421  0.33023  1.0000
  H   H724      1.0  0.27942  0.75019  0.39643  1.0000
  C   C911      1.0  0.40743  0.87752  0.43113  1.0000
  C   C912      1.0  0.38831  0.86743  0.42567  1.0000
  C   C913      1.0  0.37696  0.86590  0.45420  1.0000
  P   P33       1.0  0.37851  0.85936  0.38103  1.0000
  C   C914      1.0  0.35538  0.84122  0.38342  1.0000
  C   C915      1.0  0.37723  0.87823  0.35807  1.0000
  C   C916      1.0  0.38550  0.89627  0.37332  1.0000
  C   C917      1.0  0.38400  0.91063  0.35576  1.0000
  C   C918      1.0  0.37418  0.90714  0.32300  1.0000
  C   C919      1.0  0.36566  0.88920  0.30787  1.0000
  C   C920      1.0  0.36708  0.87478  0.32541  1.0000
  C   C921      1.0  0.35187  0.82257  0.38293  1.0000
  C   C922      1.0  0.33389  0.80877  0.38499  1.0000
  H   H725      1.0  0.37034  0.79294  0.13037  1.0000
  H   H726      1.0  0.45812  0.86747  0.33045  1.0000
  C   C923      1.0  0.34064  0.84578  0.38666  1.0000
  C   C924      1.0  0.39247  0.85046  0.35799  1.0000
  C   C925      1.0  0.39901  0.83939  0.37606  1.0000
  C   C926      1.0  0.40927  0.83184  0.35842  1.0000
  C   C927      1.0  0.41328  0.83543  0.32265  1.0000
  C   C928      1.0  0.40708  0.84667  0.30452  1.0000
  C   C929      1.0  0.39674  0.85419  0.32208  1.0000
  C   C930      1.0  0.46858  0.74804  0.07466  1.0000
  H   H727      1.0  0.39167  0.75440  0.07702  1.0000
  H   H728      1.0  0.22260  0.75380  0.35410  1.0000
  H   H729      1.0  0.41639  0.87866  0.40968  1.0000
  H   H730      1.0  0.36220  0.85819  0.45086  1.0000
  H   H731      1.0  0.39268  0.89931  0.39918  1.0000
  H   H732      1.0  0.39007  0.92444  0.36799  1.0000
  H   H733      1.0  0.37290  0.91833  0.30976  1.0000
  H   H734      1.0  0.35770  0.88644  0.28284  1.0000
  H   H735      1.0  0.36007  0.86088  0.31377  1.0000
  H   H736      1.0  0.36289  0.81854  0.38151  1.0000
  H   H737      1.0  0.33131  0.79445  0.38528  1.0000
  H   H738      1.0  0.40709  0.92067  0.12063  1.0000
  H   H739      1.0  0.34300  0.86004  0.38870  1.0000
  H   H740      1.0  0.39594  0.83636  0.40374  1.0000
  H   H741      1.0  0.41407  0.82314  0.37257  1.0000
  H   H742      1.0  0.42117  0.82946  0.30905  1.0000
  H   H743      1.0  0.41023  0.84944  0.27677  1.0000
  H   H744      1.0  0.39211  0.86280  0.30743  1.0000
  C   C931      1.0  0.32335  0.81392  0.03798  1.0000
  C   C932      1.0  0.31461  0.82134  0.06044  1.0000
  C   C933      1.0  0.32507  0.83638  0.08378  1.0000
  C   C934      1.0  0.34429  0.84416  0.08440  1.0000
  C   C935      1.0  0.35317  0.83706  0.06123  1.0000
  C   C936      1.0  0.34255  0.82167  0.03845  1.0000
  P   P34       1.0  0.37799  0.84704  0.06101  1.0000
  C   C937      1.0  0.38620  0.83291  0.08567  1.0000
  H   H745      1.0  0.36968  0.99009  0.25231  1.0000
  H   H746      1.0  0.46676  0.94882  0.99576  1.0000
  H   H747      1.0  0.24438  0.77736  0.39746  1.0000
  H   H748      1.0  0.37061  0.76128  0.03787  1.0000
  C   C938      1.0  0.43887  0.88641  0.99815  1.0000
  S   S125      1.0  0.42490  0.83265  0.44958  1.0000
  C   C939      1.0  0.40515  0.83814  0.09030  1.0000
  C   C940      1.0  0.41141  0.82710  0.10899  1.0000
  C   C941      1.0  0.39888  0.81086  0.12347  1.0000
  C   C942      1.0  0.38005  0.80565  0.11944  1.0000
  C   C943      1.0  0.37371  0.81660  0.10065  1.0000
  C   C944      1.0  0.38758  0.87041  0.08004  1.0000
  C   C945      1.0  0.39940  0.87578  0.11083  1.0000
  C   C946      1.0  0.40658  0.89389  0.12516  1.0000
  C   C947      1.0  0.40166  0.90665  0.10951  1.0000
  C   C948      1.0  0.38956  0.90131  0.07956  1.0000
  C   C949      1.0  0.38260  0.88333  0.06478  1.0000
  H   H749      1.0  0.21475  0.74422  0.27250  1.0000
  H   H750      1.0  0.31516  0.80227  0.01983  1.0000
  H   H751      1.0  0.38301  0.95632  0.22330  1.0000
  H   H752      1.0  0.35212  0.85577  0.10272  1.0000
  H   H753      1.0  0.34910  0.81581  0.02070  1.0000
  C   C950      1.0  0.47441  0.81383  0.24803  1.0000
  C   C951      1.0  0.48152  0.75778  0.04992  1.0000
  H   H754      1.0  0.41000  0.90550  0.01651  1.0000
  H   H755      1.0  0.31823  0.84208  0.10120  1.0000
  H   H756      1.0  0.44977  0.98259  0.45774  1.0000
  H   H757      1.0  0.41510  0.85057  0.07893  1.0000
  H   H758      1.0  0.42593  0.83067  0.11103  1.0000
  H   H759      1.0  0.40379  0.80210  0.13707  1.0000
  C   C952      1.0  0.40311  0.82078  0.46767  1.0000
  S   S126      1.0  0.48213  0.81599  0.14038  1.0000
  C   C953      1.0  0.37756  0.79285  0.48578  1.0000
  H   H760      1.0  0.37143  0.79794  0.02365  1.0000
  H   H761      1.0  0.36565  0.92368  0.41246  1.0000
  H   H762      1.0  0.43529  0.90185  0.37476  1.0000
  H   H763      1.0  0.45729  0.97552  0.10205  1.0000
  H   H764      1.0  0.43282  0.93016  0.23695  1.0000
  S   S127      1.0  0.39519  0.98882  0.06023  1.0000
  H   H765      1.0  0.26211  0.75841  0.02641  1.0000
  C   C954      1.0  0.22836  0.74410  0.22427  1.0000
  S   S128      1.0  0.46793  0.98915  0.02789  1.0000
  C   C955      1.0  0.37236  0.92534  0.46878  1.0000
  C   C956      1.0  0.46120  0.91631  0.34979  1.0000
  C   C957      1.0  0.35080  0.89720  0.43599  1.0000
  H   H766      1.0  0.39832  0.96919  0.16704  1.0000
  C   C958      1.0  0.44618  0.90057  0.36076  1.0000
  H   H767      1.0  0.31154  0.83570  0.39263  1.0000
  C   C959      1.0  0.44589  0.93401  0.28957  1.0000
  S   S129      1.0  0.47772  0.80684  0.37991  1.0000
  C   C960      1.0  0.31929  0.81346  0.38769  1.0000
  C   C961      1.0  0.32270  0.83196  0.38882  1.0000
  H   H768      1.0  0.34371  0.89041  0.41105  1.0000
  C   C962      1.0  0.34857  0.94516  0.16043  1.0000
  C   C963      1.0  0.40197  0.97914  0.25721  1.0000
  H   H769      1.0  0.30541  0.80280  0.39013  1.0000
  C   C964      1.0  0.35486  0.89862  0.00523  1.0000
  C   C965      1.0  0.36170  0.95809  0.13957  1.0000
  C   C966      1.0  0.47348  0.87685  0.15038  1.0000
  H   H770      1.0  0.34137  0.97422  0.21822  1.0000
  C   C967      1.0  0.43414  0.96141  0.30084  1.0000
  C   C968      1.0  0.44393  0.95756  0.32804  1.0000
  H   H771      1.0  0.47659  0.94697  0.43379  1.0000
  C   C969      1.0  0.46196  0.94274  0.43319  1.0000
  C   C970      1.0  0.24734  0.76632  0.38724  1.0000
  C   C971      1.0  0.40358  0.97681  0.19224  1.0000
  H   H772      1.0  0.42950  0.97196  0.30537  1.0000
  C   C972      1.0  0.34709  0.88711  0.46733  1.0000
  C   C973      1.0  0.34736  0.96990  0.19653  1.0000
  C   C974      1.0  0.36788  0.97694  0.14746  1.0000
  C   C975      1.0  0.42343  0.88981  0.99555  1.0000
  H   H773      1.0  0.42237  0.95449  0.24720  1.0000
  H   H774      1.0  0.33842  0.76246  0.98832  1.0000
  H   H775      1.0  0.27263  0.77559  0.41886  1.0000
  H   H776      1.0  0.29971  0.81542  0.05957  1.0000
  C   C976      1.0  0.39376  0.83091  0.47895  1.0000
  H   H777      1.0  0.44118  0.74537  0.99154  1.0000
  Fe  Fe68      1.0  0.43982  0.98729  0.03382  1.0000
  C   C977      1.0  0.48176  0.81449  0.21401  1.0000
  H   H778      1.0  0.48564  0.77238  0.04714  1.0000
  S   S130      1.0  0.41718  0.98212  0.99276  1.0000
  C   C978      1.0  0.24372  0.75706  0.47901  1.0000
  C   C979      1.0  0.45358  0.94201  0.46562  1.0000
  C   C980      1.0  0.37734  0.75086  0.98967  1.0000
  H   H779      1.0  0.40005  0.84567  0.47654  1.0000
  C   C981      1.0  0.46229  0.87968  0.48544  1.0000
  C   C982      1.0  0.38458  0.87472  0.48735  1.0000
  Fe  Fe69      1.0  0.32748  0.83687  0.90433  1.0000
  S   S131      1.0  0.33819  0.82616  0.85854  1.0000
  H   H780      1.0  0.45915  0.92167  0.54382  1.0000
  Fe  Fe70      1.0  0.30069  0.79709  0.92393  1.0000
  S   S132      1.0  0.31043  0.78445  0.88012  1.0000
  S   S133      1.0  0.28186  0.77964  0.96768  1.0000
  Fe  Fe71      1.0  0.33884  0.80558  0.89652  1.0000
  C   C983      1.0  0.45330  0.75901  0.55464  1.0000
  Fe  Fe72      1.0  0.30903  0.80597  0.84453  1.0000
  S   S134      1.0  0.29814  0.79423  0.78730  1.0000
  C   C984      1.0  0.47511  0.74650  0.93935  1.0000
  S   S135      1.0  0.29765  0.81779  0.88770  1.0000
  Fe  Fe73      1.0  0.32900  0.80671  0.52335  1.0000
  C   C985      1.0  0.36604  0.90407  0.93519  1.0000
  C   C986      1.0  0.43508  0.78819  0.87858  1.0000
  Fe  Fe74      1.0  0.31279  0.82322  0.57807  1.0000
  S   S136      1.0  0.29583  0.82854  0.53491  1.0000
  S   S137      1.0  0.31344  0.83304  0.63658  1.0000
  C   C987      1.0  0.42667  0.75842  0.52212  1.0000
  H   H781      1.0  0.26328  0.74618  0.48797  1.0000
  H   H782      1.0  0.33753  0.87032  0.98691  1.0000
  C   C988      1.0  0.43006  0.85868  0.61693  1.0000
  S   S138      1.0  0.30442  0.79416  0.55762  1.0000
  S   S139      1.0  0.33881  0.83545  0.54716  1.0000
  C   C989      1.0  0.45938  0.97770  0.95740  1.0000
  C   C990      1.0  0.26277  0.75636  0.61379  1.0000
  C   C991      1.0  0.39243  0.79914  0.93159  1.0000
  H   H783      1.0  0.45947  0.87417  0.62243  1.0000
  H   H784      1.0  0.45424  0.77849  0.51505  1.0000
  C   C992      1.0  0.40223  0.79902  0.96295  1.0000
  C   C993      1.0  0.47745  0.91549  0.57823  1.0000
  H   H785      1.0  0.35354  0.88886  0.52379  1.0000
  H   H786      1.0  0.46197  0.93474  0.84913  1.0000
  C   C994      1.0  0.35296  0.88639  0.94408  1.0000
  C   C995      1.0  0.41431  0.85406  0.59490  1.0000
  C   C996      1.0  0.40592  0.75853  0.90843  1.0000
  C   C997      1.0  0.23292  0.80451  0.61892  1.0000
  C   C998      1.0  0.37517  0.79911  0.93334  1.0000
  C   C999      1.0  0.34425  0.74695  0.88667  1.0000
  C   C1000     1.0  0.44161  0.74341  0.57265  1.0000
  C   C1001     1.0  0.45133  0.87276  0.91014  1.0000
  S   S140      1.0  0.32981  0.81709  0.94302  1.0000
  Fe  Fe75      1.0  0.32141  0.83907  0.50293  1.0000
  C   C1002     1.0  0.23750  0.75595  0.67088  1.0000
  H   H787      1.0  0.27301  0.75835  0.66866  1.0000
  H   H788      1.0  0.45456  0.86619  0.49599  1.0000
  C   C1003     1.0  0.44365  0.93196  0.96043  1.0000
  P   P35       1.0  0.47779  0.76961  0.56503  1.0000
  H   H789      1.0  0.46305  0.88457  0.92196  1.0000
  H   H790      1.0  0.37053  0.76331  0.91270  1.0000
  C   C1004     1.0  0.25655  0.74288  0.82880  1.0000
  C   C1005     1.0  0.47174  0.98528  0.49444  1.0000
  C   C1006     1.0  0.30249  0.80525  0.74559  1.0000
  C   C1007     1.0  0.30748  0.82405  0.74323  1.0000
  C   C1008     1.0  0.31014  0.83207  0.70956  1.0000
  C   C1009     1.0  0.30827  0.82158  0.67780  1.0000
  C   C1010     1.0  0.30338  0.80276  0.68011  1.0000
  C   C1011     1.0  0.30036  0.79464  0.71378  1.0000
  H   H791      1.0  0.30891  0.83237  0.76728  1.0000
  H   H792      1.0  0.31367  0.84656  0.70808  1.0000
  H   H793      1.0  0.30208  0.79454  0.65600  1.0000
  H   H794      1.0  0.29653  0.78008  0.71525  1.0000
  C   C1012     1.0  0.46941  0.92659  0.56568  1.0000
  C   C1013     1.0  0.41582  0.86132  0.56111  1.0000
  C   C1014     1.0  0.44736  0.87056  0.60506  1.0000
  C   C1015     1.0  0.24547  0.78217  0.61719  1.0000
  C   C1016     1.0  0.46021  0.90724  0.84453  1.0000
  H   H795      1.0  0.47752  0.91737  0.91378  1.0000
  C   C1017     1.0  0.36882  0.91520  0.50002  1.0000
  C   C1018     1.0  0.25015  0.81852  0.61188  1.0000
  H   H796      1.0  0.43261  0.82592  0.90958  1.0000
  H   H797      1.0  0.40087  0.84487  0.60384  1.0000
  H   H798      1.0  0.41394  0.86029  0.85296  1.0000
  C   C1019     1.0  0.24913  0.75077  0.93833  1.0000
  H   H799      1.0  0.37133  0.77809  0.48855  1.0000
  C   C1020     1.0  0.43432  0.83953  0.90289  1.0000
  H   H800      1.0  0.44641  0.79958  0.86718  1.0000
  H   H801      1.0  0.43389  0.87882  0.52318  1.0000
  C   C1021     1.0  0.47155  0.89534  0.50840  1.0000
  C   C1022     1.0  0.36749  0.79847  0.96652  1.0000
  H   H802      1.0  0.46958  0.95336  0.56937  1.0000
  C   C1023     1.0  0.47396  0.93346  0.95658  1.0000
  C   C1024     1.0  0.36813  0.80299  0.49672  1.0000
  C   C1025     1.0  0.37636  0.85196  0.95251  1.0000
  H   H803      1.0  0.25479  0.77794  0.75218  1.0000
  C   C1026     1.0  0.48432  0.75127  0.57331  1.0000
  H   H804      1.0  0.25675  0.75366  0.55659  1.0000
  H   H805      1.0  0.35412  0.79830  0.96794  1.0000
  S   S141      1.0  0.36348  0.79949  0.89343  1.0000
  H   H806      1.0  0.45539  0.77434  0.62176  1.0000
  H   H807      1.0  0.40993  0.82942  0.86828  1.0000
  H   H808      1.0  0.36791  0.85485  0.93311  1.0000
  C   C1027     1.0  0.26278  0.79634  0.61044  1.0000
  C   C1028     1.0  0.42334  0.76687  0.92611  1.0000
  H   H809      1.0  0.42846  0.93765  0.49087  1.0000
  H   H810      1.0  0.40359  0.85760  0.54399  1.0000
  H   H811      1.0  0.22669  0.75158  0.77177  1.0000
  H   H812      1.0  0.48452  0.90195  0.97250  1.0000
  H   H813      1.0  0.27848  0.82542  0.60329  1.0000
  H   H814      1.0  0.25205  0.83257  0.60976  1.0000
  H   H815      1.0  0.25363  0.75631  0.91252  1.0000
  C   C1029     1.0  0.42163  0.84154  0.87961  1.0000
  C   C1030     1.0  0.44902  0.87763  0.57082  1.0000
  S   S142      1.0  0.25875  0.78064  0.49247  1.0000
  C   C1031     1.0  0.44918  0.85513  0.91798  1.0000
  C   C1032     1.0  0.47518  0.94448  0.58019  1.0000
  C   C1033     1.0  0.43857  0.87498  0.88706  1.0000
  C   C1034     1.0  0.37351  0.91888  0.96104  1.0000
  C   C1035     1.0  0.26506  0.81444  0.60793  1.0000
  C   C1036     1.0  0.27509  0.75630  0.64087  1.0000
  H   H816      1.0  0.41268  0.88255  0.97527  1.0000
  C   C1037     1.0  0.40337  0.76501  0.87525  1.0000
  H   H817      1.0  0.39130  0.84533  0.91269  1.0000
  C   C1038     1.0  0.48257  0.86565  0.56743  1.0000
  C   C1039     1.0  0.23062  0.78644  0.62197  1.0000
  C   C1040     1.0  0.47415  0.79611  0.65731  1.0000
  H   H818      1.0  0.37560  0.87363  0.50900  1.0000
  H   H819      1.0  0.26129  0.78120  0.68829  1.0000
  H   H820      1.0  0.37560  0.92212  0.52510  1.0000
  H   H821      1.0  0.44514  0.97285  0.96363  1.0000
  S   S143      1.0  0.34299  0.86867  0.90937  1.0000
  H   H822      1.0  0.43996  0.87615  0.98049  1.0000
  H   H823      1.0  0.21727  0.77576  0.62817  1.0000
  C   C1041     1.0  0.48185  0.93361  0.81383  1.0000
  H   H824      1.0  0.37017  0.90644  0.90787  1.0000
  C   C1042     1.0  0.28101  0.75027  0.56952  1.0000
  C   C1043     1.0  0.46395  0.97364  0.92350  1.0000
  H   H825      1.0  0.39824  0.79927  0.90593  1.0000
  H   H826      1.0  0.43268  0.91231  0.80944  1.0000
  H   H827      1.0  0.27462  0.79360  0.60773  1.0000
  C   C1044     1.0  0.46804  0.89639  0.82940  1.0000
  C   C1045     1.0  0.38968  0.84679  0.94100  1.0000
  H   H828      1.0  0.28713  0.74933  0.93203  1.0000
  H   H829      1.0  0.41547  0.79897  0.96134  1.0000
  Fe  Fe76      1.0  0.28880  0.79973  0.51250  1.0000
  H   H830      1.0  0.40353  0.91043  0.78451  1.0000
  C   C1046     1.0  0.26018  0.75943  0.96905  1.0000
  H   H831      1.0  0.45324  0.96566  0.90363  1.0000
  H   H832      1.0  0.46318  0.88205  0.83557  1.0000
  C   C1047     1.0  0.46779  0.92096  0.92710  1.0000
  C   C1048     1.0  0.34875  0.81491  0.63168  1.0000
  C   C1049     1.0  0.36076  0.80892  0.61623  1.0000
  C   C1050     1.0  0.37713  0.81190  0.63466  1.0000
  C   C1051     1.0  0.38162  0.82116  0.66828  1.0000
  C   C1052     1.0  0.36982  0.82767  0.68347  1.0000
  C   C1053     1.0  0.35317  0.82407  0.66530  1.0000
  P   P36       1.0  0.37498  0.83835  0.72790  1.0000
  C   C1054     1.0  0.36864  0.81956  0.75768  1.0000
  C   C1055     1.0  0.39880  0.85485  0.73311  1.0000
  C   C1056     1.0  0.40745  0.85980  0.76731  1.0000
  C   C1057     1.0  0.42576  0.87300  0.77157  1.0000
  C   C1058     1.0  0.43536  0.88188  0.74196  1.0000
  C   C1059     1.0  0.42663  0.87750  0.70794  1.0000
  C   C1060     1.0  0.40839  0.86406  0.70349  1.0000
  C   C1061     1.0  0.35005  0.80910  0.76472  1.0000
  C   C1062     1.0  0.34485  0.79455  0.78784  1.0000
  C   C1063     1.0  0.35812  0.79013  0.80363  1.0000
  C   C1064     1.0  0.37661  0.80014  0.79600  1.0000
  C   C1065     1.0  0.38186  0.81467  0.77273  1.0000
  C   C1066     1.0  0.36261  0.85176  0.73735  1.0000
  C   C1067     1.0  0.36032  0.86277  0.71118  1.0000
  C   C1068     1.0  0.35118  0.87355  0.71888  1.0000
  C   C1069     1.0  0.34444  0.87355  0.75283  1.0000
  C   C1070     1.0  0.34701  0.86293  0.77925  1.0000
  C   C1071     1.0  0.35627  0.85227  0.77171  1.0000
  H   H833      1.0  0.33590  0.81237  0.61774  1.0000
  H   H834      1.0  0.35726  0.80182  0.59013  1.0000
  H   H835      1.0  0.38625  0.80694  0.62278  1.0000
  H   H836      1.0  0.39419  0.82310  0.68254  1.0000
  H   H837      1.0  0.34352  0.82822  0.67712  1.0000
  H   H838      1.0  0.39994  0.85359  0.79068  1.0000
  H   H839      1.0  0.43238  0.87658  0.79794  1.0000
  H   H840      1.0  0.44947  0.89238  0.74549  1.0000
  H   H841      1.0  0.43392  0.88472  0.68507  1.0000
  H   H842      1.0  0.40167  0.86118  0.67710  1.0000
  H   H843      1.0  0.33956  0.81230  0.75264  1.0000
  H   H844      1.0  0.33050  0.78688  0.79387  1.0000
  H   H845      1.0  0.35408  0.77912  0.82218  1.0000
  H   H846      1.0  0.38683  0.79668  0.80849  1.0000
  H   H847      1.0  0.39618  0.82202  0.76660  1.0000
  H   H848      1.0  0.36532  0.86286  0.68465  1.0000
  H   H849      1.0  0.34891  0.88154  0.69819  1.0000
  H   H850      1.0  0.33699  0.88157  0.75852  1.0000
  H   H851      1.0  0.34168  0.86282  0.80556  1.0000
  H   H852      1.0  0.35836  0.84440  0.79277  1.0000
  C   C1072     1.0  0.22977  0.75273  0.74372  1.0000
  C   C1073     1.0  0.43738  0.91938  0.93106  1.0000
  C   C1074     1.0  0.44940  0.91363  0.91426  1.0000
  P   P37       1.0  0.44193  0.89784  0.87542  1.0000
  C   C1075     1.0  0.42384  0.85916  0.87140  1.0000
  C   C1076     1.0  0.42071  0.89673  0.85610  1.0000
  C   C1077     1.0  0.40422  0.88730  0.87354  1.0000
  C   C1078     1.0  0.38771  0.88621  0.85896  1.0000
  C   C1079     1.0  0.38749  0.89464  0.82706  1.0000
  C   C1080     1.0  0.40376  0.90393  0.80933  1.0000
  C   C1081     1.0  0.42032  0.90501  0.82376  1.0000
  C   C1082     1.0  0.40040  0.84285  0.96601  1.0000
  H   H853      1.0  0.28523  0.75792  0.81867  1.0000
  C   C1083     1.0  0.35631  0.89627  0.49937  1.0000
  H   H854      1.0  0.34092  0.75852  0.88461  1.0000
  C   C1084     1.0  0.48237  0.97913  0.91594  1.0000
  H   H855      1.0  0.42628  0.97431  0.89596  1.0000
  C   C1085     1.0  0.46738  0.92595  0.83685  1.0000
  C   C1086     1.0  0.41784  0.77994  0.86067  1.0000
  H   H856      1.0  0.22139  0.80770  0.62231  1.0000
  H   H857      1.0  0.21981  0.76263  0.56374  1.0000
  C   C1087     1.0  0.44565  0.76657  0.52962  1.0000
  H   H858      1.0  0.42327  0.91452  0.92155  1.0000
  H   H859      1.0  0.40415  0.88095  0.89866  1.0000
  H   H860      1.0  0.37508  0.87900  0.87263  1.0000
  H   H861      1.0  0.37471  0.89411  0.81630  1.0000
  S   S144      1.0  0.45346  0.81371  0.98389  1.0000
  H   H862      1.0  0.30539  0.74873  0.58971  1.0000
  C   C1088     1.0  0.43308  0.87323  0.54925  1.0000
  H   H863      1.0  0.41576  0.78494  0.83523  1.0000
  P   P38       1.0  0.24241  0.75903  0.62409  1.0000
  H   H864      1.0  0.45909  0.85354  0.93585  1.0000
  S   S145      1.0  0.47451  0.77765  0.97112  1.0000
  H   H865      1.0  0.30012  0.75403  0.65314  1.0000
  P   P39       1.0  0.47139  0.89327  0.55621  1.0000
  H   H866      1.0  0.42887  0.85301  0.64311  1.0000
  C   C1089     1.0  0.48262  0.90415  0.80652  1.0000
  H   H867      1.0  0.40931  0.89263  0.51756  1.0000
  H   H868      1.0  0.38327  0.93239  0.95345  1.0000
  S   S146      1.0  0.34651  0.79151  0.51573  1.0000
  C   C1090     1.0  0.46529  0.75326  0.96109  1.0000
  H   H869      1.0  0.46818  0.85595  0.56453  1.0000
  C   C1091     1.0  0.38795  0.74285  0.97465  1.0000
  H   H870      1.0  0.39965  0.98068  0.90818  1.0000
  C   C1092     1.0  0.43785  0.78151  0.91104  1.0000
  H   H871      1.0  0.45136  0.78756  0.92445  1.0000
  H   H872      1.0  0.42595  0.76194  0.95121  1.0000
  C   C1093     1.0  0.48331  0.78498  0.60410  1.0000
  H   H873      1.0  0.28343  0.74821  0.54181  1.0000
  C   C1094     1.0  0.47326  0.98675  0.98385  1.0000
  H   H874      1.0  0.46279  0.97950  0.51627  1.0000
  C   C1095     1.0  0.42805  0.98840  0.89765  1.0000
  C   C1096     1.0  0.26592  0.75342  0.57802  1.0000
  H   H875      1.0  0.25246  0.75085  0.81091  1.0000
  H   H876      1.0  0.36864  0.75479  0.97322  1.0000
  H   H877      1.0  0.39033  0.75848  0.86031  1.0000
  H   H878      1.0  0.31471  0.77169  0.96591  1.0000
  H   H879      1.0  0.42100  0.76409  0.50194  1.0000
  C   C1097     1.0  0.24551  0.76760  0.73270  1.0000
  C   C1098     1.0  0.46187  0.93885  0.97339  1.0000
  C   C1099     1.0  0.32633  0.75254  0.97328  1.0000
  C   C1100     1.0  0.24924  0.76933  0.69643  1.0000
  C   C1101     1.0  0.48244  0.91233  0.49378  1.0000
  C   C1102     1.0  0.36100  0.74961  0.90295  1.0000
  C   C1103     1.0  0.27510  0.74691  0.83330  1.0000
  H   H880      1.0  0.43443  0.93658  0.97298  1.0000
  H   H881      1.0  0.46183  0.94573  0.49046  1.0000
  C   C1104     1.0  0.31304  0.75777  0.96055  1.0000
  C   C1105     1.0  0.46959  0.78416  0.62704  1.0000
  C   C1106     1.0  0.29740  0.74504  0.94114  1.0000
  C   C1107     1.0  0.41515  0.74283  0.53989  1.0000
  H   H882      1.0  0.46353  0.79537  0.67501  1.0000
  C   C1108     1.0  0.29339  0.75059  0.59654  1.0000
  C   C1109     1.0  0.29045  0.75364  0.63219  1.0000
  C   C1110     1.0  0.21594  0.74819  0.56732  1.0000
  H   H883      1.0  0.41059  0.83859  0.95721  1.0000
  C   C1111     1.0  0.37625  0.82206  0.49307  1.0000
  H   H884      1.0  0.36911  0.83000  0.50137  1.0000
  C   C1112     1.0  0.34770  0.88370  0.97956  1.0000
  C   C1113     1.0  0.40356  0.88536  0.49214  1.0000
  C   C1114     1.0  0.22426  0.74245  0.59461  1.0000
  Fe  Fe77      1.0  0.65600  0.17298  0.43494  1.0000
  S   S147      1.0  0.64607  0.18590  0.39260  1.0000
  C   C1115     1.0  0.53674  0.17751  0.03581  1.0000
  Fe  Fe78      1.0  0.62617  0.13346  0.41244  1.0000
  S   S148      1.0  0.61497  0.14452  0.36772  1.0000
  S   S149      1.0  0.60892  0.10189  0.41626  1.0000
  Fe  Fe79      1.0  0.64412  0.16275  0.35513  1.0000
  S   S150      1.0  0.65550  0.17320  0.30042  1.0000
  Fe  Fe80      1.0  0.61756  0.16667  0.40794  1.0000
  P   P40       1.0  0.49415  0.06336  0.40979  1.0000
  S   S151      1.0  0.65567  0.15048  0.39686  1.0000
  H   H885      1.0  0.76756  0.19679  0.43382  1.0000
  Fe  Fe81      1.0  0.61230  0.15169  0.02606  1.0000
  C   C1116     1.0  0.69392  0.21219  0.35733  1.0000
  S   S152      1.0  0.58233  0.14618  0.02327  1.0000
  Fe  Fe82      1.0  0.63815  0.14810  0.08358  1.0000
  S   S153      1.0  0.65938  0.15080  0.04291  1.0000
  S   S154      1.0  0.63462  0.13809  0.14095  1.0000
  Fe  Fe83      1.0  0.65435  0.17421  0.02114  1.0000
  C   C1117     1.0  0.50448  0.06789  0.20241  1.0000
  C   C1118     1.0  0.75507  0.20548  0.35127  1.0000
  C   C1119     1.0  0.53604  0.15238  0.07032  1.0000
  S   S155      1.0  0.63424  0.17213  0.06399  1.0000
  S   S156      1.0  0.61495  0.12755  0.04823  1.0000
  H   H886      1.0  0.55144  0.07369  0.04975  1.0000
  H   H887      1.0  0.65036  0.21778  0.04773  1.0000
  H   H888      1.0  0.54235  0.07391  0.46601  1.0000
  C   C1120     1.0  0.57055  0.23261  0.13438  1.0000
  H   H889      1.0  0.62345  0.21057  0.40226  1.0000
  C   C1121     1.0  0.50490  0.11768  0.40440  1.0000
  H   H890      1.0  0.58312  0.06366  0.40910  1.0000
  H   H891      1.0  0.76441  0.14351  0.14192  1.0000
  C   C1122     1.0  0.63931  0.14851  0.18492  1.0000
  C   C1123     1.0  0.64912  0.16756  0.19161  1.0000
  C   C1124     1.0  0.65344  0.17492  0.22714  1.0000
  C   C1125     1.0  0.64768  0.16342  0.25640  1.0000
  C   C1126     1.0  0.63725  0.14446  0.24967  1.0000
  C   C1127     1.0  0.63326  0.13707  0.21416  1.0000
  H   H892      1.0  0.65366  0.17660  0.16951  1.0000
  H   H893      1.0  0.66154  0.18960  0.23200  1.0000
  H   H894      1.0  0.63285  0.13542  0.27181  1.0000
  H   H895      1.0  0.62566  0.12233  0.20935  1.0000
  H   H896      1.0  0.59741  0.16753  0.48096  1.0000
  C   C1128     1.0  0.60066  0.07858  0.99203  1.0000
  C   C1129     1.0  0.59001  0.06562  0.43500  1.0000
  H   H897      1.0  0.59680  0.16562  0.08928  1.0000
  H   H898      1.0  0.68122  0.21050  0.34383  1.0000
  H   H899      1.0  0.54294  0.17997  0.46335  1.0000
  H   H900      1.0  0.56011  0.20323  0.12801  1.0000
  H   H901      1.0  0.50642  0.06003  0.25635  1.0000
  C   C1130     1.0  0.49268  0.07751  0.25359  1.0000
  C   C1131     1.0  0.77299  0.18684  0.38407  1.0000
  C   C1132     1.0  0.53856  0.09985  0.14609  1.0000
  C   C1133     1.0  0.50217  0.12236  0.43919  1.0000
  C   C1134     1.0  0.60362  0.08331  0.44598  1.0000
  C   C1135     1.0  0.51514  0.04520  0.39115  1.0000
  C   C1136     1.0  0.71165  0.21443  0.99182  1.0000
  C   C1137     1.0  0.54699  0.06006  0.37553  1.0000
  H   H902      1.0  0.67343  0.11141  0.01816  1.0000
  C   C1138     1.0  0.49525  0.09148  0.45682  1.0000
  H   H903      1.0  0.55950  0.08960  0.37621  1.0000
  Fe  Fe84      1.0  0.63523  0.13166  0.00650  1.0000
  C   C1139     1.0  0.63490  0.21965  0.41979  1.0000
  C   C1140     1.0  0.64894  0.22941  0.47963  1.0000
  C   C1141     1.0  0.54704  0.07725  0.38042  1.0000
  H   H904      1.0  0.55867  0.23187  0.14807  1.0000
  C   C1142     1.0  0.76215  0.19571  0.33041  1.0000
  C   C1143     1.0  0.49709  0.04407  0.46869  1.0000
  H   H905      1.0  0.60059  0.08807  0.01283  1.0000
  C   C1144     1.0  0.58660  0.21723  0.10451  1.0000
  C   C1145     1.0  0.49727  0.05376  0.11950  1.0000
  C   C1146     1.0  0.54293  0.06489  0.99465  1.0000
  C   C1147     1.0  0.51498  0.06242  0.39599  1.0000
  H   H906      1.0  0.65113  0.23440  0.37652  1.0000
  H   H907      1.0  0.50244  0.00005  0.99611  1.0000
  C   C1148     1.0  0.50846  0.22914  0.41174  1.0000
  C   C1149     1.0  0.55472  0.17715  0.46723  1.0000
  C   C1150     1.0  0.63076  0.21035  0.00329  1.0000
  C   C1151     1.0  0.54474  0.11118  0.07577  1.0000
  S   S157      1.0  0.59455  0.17550  0.40620  1.0000
  H   H908      1.0  0.48780  0.03899  0.34449  1.0000
  C   C1152     1.0  0.69720  0.21951  0.99303  1.0000
  C   C1153     1.0  0.62263  0.20835  0.06526  1.0000
  C   C1154     1.0  0.57029  0.11137  0.45704  1.0000
  C   C1155     1.0  0.57400  0.11975  0.42423  1.0000
  C   C1156     1.0  0.56424  0.12920  0.41214  1.0000
  C   C1157     1.0  0.55076  0.13035  0.43304  1.0000
  C   C1158     1.0  0.54711  0.12217  0.46612  1.0000
  H   H909      1.0  0.71639  0.18696  0.38046  1.0000
  C   C1159     1.0  0.49822  0.07774  0.17982  1.0000
  H   H910      1.0  0.54531  0.13971  0.00873  1.0000
  H   H911      1.0  0.69684  0.13464  0.06006  1.0000
  C   C1160     1.0  0.55928  0.11784  0.10139  1.0000
  H   H912      1.0  0.53706  0.12384  0.48224  1.0000
  C   C1161     1.0  0.50282  0.09991  0.39578  1.0000
  H   H913      1.0  0.56086  0.15723  0.09984  1.0000
  C   C1162     1.0  0.60101  0.23453  0.09812  1.0000
  H   H914      1.0  0.77655  0.17877  0.33063  1.0000
  H   H915      1.0  0.51140  0.06017  0.19161  1.0000
  H   H916      1.0  0.68773  0.18358  0.34966  1.0000
  H   H917      1.0  0.58465  0.11907  0.40833  1.0000
  H   H918      1.0  0.56754  0.13613  0.38711  1.0000
  H   H919      1.0  0.54369  0.13826  0.42421  1.0000
  H   H920      1.0  0.57296  0.12735  0.09390  1.0000
  C   C1163     1.0  0.60360  0.16276  0.14377  1.0000
  C   C1164     1.0  0.60535  0.16946  0.17913  1.0000
  C   C1165     1.0  0.60119  0.18414  0.18733  1.0000
  C   C1166     1.0  0.49725  0.10923  0.46530  1.0000
  H   H921      1.0  0.60699  0.15150  0.13731  1.0000
  H   H922      1.0  0.61011  0.16337  0.20009  1.0000
  P   P41       1.0  0.74753  0.21852  0.41544  1.0000
  H   H923      1.0  0.50370  0.13609  0.44591  1.0000
  C   C1167     1.0  0.52385  0.09310  0.12048  1.0000
  H   H924      1.0  0.53179  0.09200  0.39543  1.0000
  H   H925      1.0  0.58454  0.19341  0.00904  1.0000
  H   H926      1.0  0.59245  0.20367  0.16710  1.0000
  H   H927      1.0  0.63384  0.09665  0.09952  1.0000
  C   C1168     1.0  0.72272  0.23147  0.38961  1.0000
  H   H928      1.0  0.55932  0.05919  0.36740  1.0000
  H   H929      1.0  0.50855  0.12784  0.38410  1.0000
  H   H930      1.0  0.67411  0.19347  0.10726  1.0000
  C   C1169     1.0  0.60392  0.20140  0.05474  1.0000
  H   H931      1.0  0.51626  0.03015  0.07245  1.0000
  C   C1170     1.0  0.59786  0.17081  0.11659  1.0000
  C   C1171     1.0  0.53118  0.07850  0.39098  1.0000
  C   C1172     1.0  0.53110  0.04404  0.38126  1.0000
  H   H932      1.0  0.53118  0.03073  0.37817  1.0000
  H   H933      1.0  0.67209  0.16524  0.13474  1.0000
  H   H934      1.0  0.57518  0.03685  0.44755  1.0000
  H   H935      1.0  0.65681  0.11948  0.14157  1.0000
  H   H936      1.0  0.64203  0.09237  0.03778  1.0000
  C   C1173     1.0  0.58551  0.05032  0.45678  1.0000
  C   C1174     1.0  0.59376  0.18562  0.12448  1.0000
  H   H937      1.0  0.62193  0.20689  0.46738  1.0000
  C   C1175     1.0  0.55338  0.07750  0.02216  1.0000
  H   H938      1.0  0.57830  0.10437  0.46606  1.0000
  H   H939      1.0  0.50285  0.03266  0.39529  1.0000
  C   C1176     1.0  0.55620  0.11218  0.13651  1.0000
  C   C1177     1.0  0.67679  0.12736  0.23198  1.0000
  C   C1178     1.0  0.67907  0.14329  0.25132  1.0000
  C   C1179     1.0  0.68670  0.16028  0.23531  1.0000
  C   C1180     1.0  0.69162  0.16132  0.19966  1.0000
  C   C1181     1.0  0.68870  0.14526  0.17955  1.0000
  C   C1182     1.0  0.68187  0.12837  0.19641  1.0000
  P   P42       1.0  0.69556  0.14648  0.13378  1.0000
  C   C1183     1.0  0.69767  0.16753  0.11458  1.0000
  C   C1184     1.0  0.71734  0.14549  0.13561  1.0000
  C   C1185     1.0  0.71861  0.12935  0.12476  1.0000
  P   P43       1.0  0.50099  0.07694  0.13215  1.0000
  C   C1186     1.0  0.75129  0.14404  0.14029  1.0000
  C   C1187     1.0  0.75003  0.16002  0.15182  1.0000
  C   C1188     1.0  0.73309  0.16071  0.14974  1.0000
  C   C1189     1.0  0.71228  0.17762  0.09281  1.0000
  H   H940      1.0  0.68585  0.22296  0.43680  1.0000
  C   C1190     1.0  0.69973  0.19942  0.08288  1.0000
  C   C1191     1.0  0.68495  0.18924  0.10384  1.0000
  C   C1192     1.0  0.68387  0.17330  0.11944  1.0000
  C   C1193     1.0  0.67887  0.12830  0.10455  1.0000
  C   C1194     1.0  0.68334  0.12596  0.06940  1.0000
  C   C1195     1.0  0.67016  0.11284  0.04559  1.0000
  C   C1196     1.0  0.65239  0.10212  0.05658  1.0000
  C   C1197     1.0  0.64779  0.10448  0.09137  1.0000
  C   C1198     1.0  0.66096  0.11749  0.11527  1.0000
  H   H941      1.0  0.67090  0.11419  0.24449  1.0000
  H   H942      1.0  0.67471  0.14251  0.27860  1.0000
  S   S158      1.0  0.68072  0.18962  0.47449  1.0000
  H   H943      1.0  0.69752  0.17466  0.18795  1.0000
  H   H944      1.0  0.68017  0.11592  0.18187  1.0000
  H   H945      1.0  0.70655  0.11721  0.11489  1.0000
  C   C1199     1.0  0.69562  0.22714  0.45939  1.0000
  C   C1200     1.0  0.73557  0.12869  0.12691  1.0000
  H   H946      1.0  0.76218  0.17188  0.16243  1.0000
  H   H947      1.0  0.73225  0.17311  0.15907  1.0000
  H   H948      1.0  0.72267  0.17305  0.08720  1.0000
  H   H949      1.0  0.71517  0.18845  0.44539  1.0000
  C   C1201     1.0  0.55685  0.11259  0.47836  1.0000
  H   H950      1.0  0.50466  0.09637  0.36856  1.0000
  C   C1202     1.0  0.56579  0.17796  0.43844  1.0000
  C   C1203     1.0  0.71336  0.19359  0.07730  1.0000
  H   H951      1.0  0.56757  0.11733  0.15626  1.0000
  H   H952      1.0  0.57558  0.05609  0.00785  1.0000
  H   H953      1.0  0.76069  0.19537  0.30152  1.0000
  C   C1204     1.0  0.52085  0.23002  0.43927  1.0000
  H   H954      1.0  0.57464  0.10486  0.03526  1.0000
  C   C1205     1.0  0.58122  0.17448  0.44322  1.0000
  C   C1206     1.0  0.50679  0.03259  0.08921  1.0000
  C   C1207     1.0  0.49818  0.08670  0.42203  1.0000
  H   H955      1.0  0.51781  0.21815  0.45535  1.0000
  S   S159      1.0  0.62719  0.15500  0.45326  1.0000
  H   H956      1.0  0.56199  0.20234  0.03915  1.0000
  P   P44       1.0  0.58699  0.19612  0.08848  1.0000
  C   C1208     1.0  0.63597  0.21283  0.03960  1.0000
  H   H957      1.0  0.54722  0.11565  0.04855  1.0000
  C   C1209     1.0  0.49757  0.05845  0.00657  1.0000
  C   C1210     1.0  0.49151  0.01763  0.10139  1.0000
  H   H958      1.0  0.68833  0.17259  0.25037  1.0000
  H   H959      1.0  0.77995  0.17964  0.39679  1.0000
  C   C1211     1.0  0.50977  0.05059  0.09843  1.0000
  C   C1212     1.0  0.55493  0.18837  0.04789  1.0000
  C   C1213     1.0  0.55434  0.16315  0.08216  1.0000
  C   C1214     1.0  0.56394  0.18126  0.07102  1.0000
  C   C1215     1.0  0.56656  0.09501  0.01402  1.0000
  H   H960      1.0  0.70038  0.21158  0.07022  1.0000
  H   H961      1.0  0.56238  0.18126  0.41229  1.0000
  C   C1216     1.0  0.59881  0.19905  0.01814  1.0000
  S   S160      1.0  0.67429  0.20393  0.00531  1.0000
  H   H962      1.0  0.73650  0.11623  0.11832  1.0000
  C   C1217     1.0  0.59538  0.19220  0.16015  1.0000
  C   C1218     1.0  0.77109  0.18637  0.34680  1.0000
  H   H963      1.0  0.60268  0.18937  0.21478  1.0000
  C   C1219     1.0  0.71382  0.19896  0.37821  1.0000
  C   C1220     1.0  0.72649  0.21620  0.39310  1.0000
  H   H964      1.0  0.72457  0.20133  0.06033  1.0000
  C   C1221     1.0  0.69759  0.19697  0.36061  1.0000
  H   H965      1.0  0.52878  0.13837  0.07861  1.0000
  H   H966      1.0  0.70906  0.20051  0.99769  1.0000
  C   C1222     1.0  0.58558  0.17024  0.47705  1.0000
  H   H967      1.0  0.53283  0.05121  0.00078  1.0000
  H   H968      1.0  0.51325  0.15103  0.03705  1.0000
  C   C1223     1.0  0.57141  0.21641  0.12289  1.0000
  H   H969      1.0  0.53652  0.09562  0.17341  1.0000
  C   C1224     1.0  0.50169  0.06777  0.23912  1.0000
  C   C1225     1.0  0.52728  0.15951  0.04698  1.0000
  C   C1226     1.0  0.70650  0.22945  0.37170  1.0000
  C   C1227     1.0  0.75686  0.21572  0.48666  1.0000
  C   C1228     1.0  0.65049  0.23318  0.40524  1.0000
  H   H970      1.0  0.52181  0.06190  0.08896  1.0000
  C   C1229     1.0  0.76589  0.19658  0.40502  1.0000
  C   C1230     1.0  0.72620  0.19394  0.46564  1.0000
  H   H971      1.0  0.74827  0.21274  0.33815  1.0000
  H   H972      1.0  0.62694  0.21016  0.09330  1.0000
  H   H973      1.0  0.53001  0.18302  0.01754  1.0000
  C   C1231     1.0  0.58647  0.06036  0.98918  1.0000
  C   C1232     1.0  0.75676  0.20587  0.38876  1.0000
  C   C1233     1.0  0.52712  0.09882  0.08516  1.0000
  H   H974      1.0  0.49096  0.08146  0.47728  1.0000
  C   C1234     1.0  0.63415  0.21760  0.45676  1.0000
  C   C1235     1.0  0.61263  0.08547  0.47948  1.0000
  H   H975      1.0  0.51605  0.09378  0.06484  1.0000
  H   H976      1.0  0.49591  0.21656  0.40662  1.0000
  C   C1236     1.0  0.74310  0.20882  0.45910  1.0000
  H   H977      1.0  0.50389  0.06274  0.03304  1.0000
  H   H978      1.0  0.61285  0.23568  0.08386  1.0000
  H   H979      1.0  0.51114  0.04815  0.46207  1.0000
  H   H980      1.0  0.54155  0.04303  0.46426  1.0000
  H   H981      1.0  0.50207  0.11222  0.11245  1.0000
  C   C1237     1.0  0.69580  0.21375  0.48203  1.0000
  H   H982      1.0  0.77010  0.22707  0.48233  1.0000
  H   H983      1.0  0.51265  0.00113  0.34518  1.0000
  C   C1238     1.0  0.61222  0.20361  0.99258  1.0000
  C   C1239     1.0  0.49474  0.99997  0.43774  1.0000
  H   H984      1.0  0.50372  0.00575  0.41605  1.0000
  H   H985      1.0  0.51669  0.00284  0.47449  1.0000
  C   C1240     1.0  0.50208  0.99801  0.47069  1.0000
  H   H986      1.0  0.49040  0.07729  0.28200  1.0000
  C   C1241     1.0  0.48883  0.10135  0.10346  1.0000
  H   H987      1.0  0.48919  0.00370  0.09401  1.0000
  C   C1242     1.0  0.48931  0.08762  0.19462  1.0000
  H   H988      1.0  0.53646  0.99399  0.37495  1.0000
  H   H989      1.0  0.70354  0.24120  0.36956  1.0000
  C   C1243     1.0  0.48655  0.08747  0.23137  1.0000
  H   H990      1.0  0.78152  0.24122  0.37832  1.0000
  C   C1244     1.0  0.55336  0.14773  0.98750  1.0000
  Fe  Fe85      1.0  0.56668  0.00417  0.52250  1.0000
  S   S161      1.0  0.55001  0.00107  0.57139  1.0000
  S   S162      1.0  0.59053  0.03331  0.51783  1.0000
  H   H991      1.0  0.53497  0.18499  0.66498  1.0000
  C   C1245     1.0  0.53852  0.10979  0.91076  1.0000
  Fe  Fe86      1.0  0.55521  0.00098  0.91726  1.0000
  S   S163      1.0  0.53959  0.00373  0.86930  1.0000
  H   H992      1.0  0.55625  0.08867  0.71636  1.0000
  S   S164      1.0  0.49680  0.18308  0.65827  1.0000
  C   C1246     1.0  0.51882  0.22501  0.88046  1.0000
  S   S165      1.0  0.50140  0.15234  0.57804  1.0000
  C   C1247     1.0  0.83455  0.22940  0.80408  1.0000
  S   S166      1.0  0.51227  0.19516  0.56177  1.0000
  C   C1248     1.0  0.50276  0.07100  0.97934  1.0000
  Fe  Fe87      1.0  0.51833  0.17251  0.53861  1.0000
  C   C1249     1.0  0.50687  0.02032  0.82985  1.0000
  C   C1250     1.0  0.64841  0.99402  0.75628  1.0000
  H   H993      1.0  0.50024  0.10522  0.86354  1.0000
  H   H994      1.0  0.57823  0.16664  0.53214  1.0000
  C   C1251     1.0  0.58746  0.21898  0.54399  1.0000
  C   C1252     1.0  0.61668  0.12964  0.90386  1.0000
  S   S167      1.0  0.50114  0.18011  0.87716  1.0000
  C   C1253     1.0  0.60833  0.07011  0.50108  1.0000
  H   H995      1.0  0.53226  0.07554  0.84890  1.0000
  Fe  Fe88      1.0  0.51502  0.16546  0.90678  1.0000
  S   S168      1.0  0.54517  0.17289  0.90122  1.0000
  H   H996      1.0  0.60656  0.15610  0.62028  1.0000
  S   S169      1.0  0.49462  0.13735  0.88711  1.0000
  C   C1254     1.0  0.55525  0.16430  0.93359  1.0000
  H   H997      1.0  0.68631  0.24027  0.53899  1.0000
  C   C1255     1.0  0.54234  0.09682  0.89153  1.0000
  Fe  Fe89      1.0  0.48806  0.18445  0.52217  1.0000
  H   H998      1.0  0.55634  0.99793  0.65324  1.0000
  H   H999      1.0  0.59076  0.00082  0.81949  1.0000
  H   H1000     1.0  0.80714  0.20848  0.81190  1.0000
  S   S170      1.0  0.54670  0.17334  0.53871  1.0000
  C   C1256     1.0  0.60049  0.05347  0.93856  1.0000
  C   C1257     1.0  0.73675  0.19323  0.52647  1.0000
  H   H1001     1.0  0.55520  0.18574  0.61598  1.0000
  H   H1002     1.0  0.56314  0.23130  0.88796  1.0000
  H   H1003     1.0  0.59673  0.16532  0.95781  1.0000
  H   H1004     1.0  0.53387  0.21699  0.91902  1.0000
  C   C1258     1.0  0.62412  0.22525  0.53650  1.0000
  C   C1259     1.0  0.53691  0.17287  0.65806  1.0000
  C   C1260     1.0  0.65403  0.20892  0.58193  1.0000
  C   C1261     1.0  0.50334  0.03852  0.87880  1.0000
  C   C1262     1.0  0.49756  0.17954  0.73117  1.0000
  H   H1005     1.0  0.64485  0.19340  0.49464  1.0000
  C   C1263     1.0  0.59944  0.14706  0.56499  1.0000
  C   C1264     1.0  0.60400  0.00664  0.72982  1.0000
  C   C1265     1.0  0.60479  0.01097  0.82524  1.0000
  H   H1006     1.0  0.51301  0.22621  0.70592  1.0000
  C   C1266     1.0  0.53740  0.14443  0.78785  1.0000
  H   H1007     1.0  0.50788  0.19370  0.73195  1.0000
  H   H1008     1.0  0.58517  0.19694  0.57735  1.0000
  C   C1267     1.0  0.49064  0.03366  0.49880  1.0000
  C   C1268     1.0  0.51851  0.12643  0.73620  1.0000
  H   H1009     1.0  0.57864  0.13058  0.64254  1.0000
  P   P45       1.0  0.49889  0.23480  0.83072  1.0000
  C   C1269     1.0  0.49925  0.07816  0.54873  1.0000
  C   C1270     1.0  0.61652  0.14589  0.89257  1.0000
  C   C1271     1.0  0.49778  0.24049  0.50552  1.0000
  H   H1010     1.0  0.64113  0.21341  0.98353  1.0000
  C   C1272     1.0  0.64982  0.20880  0.54522  1.0000
  H   H1011     1.0  0.65574  0.22048  0.59949  1.0000
  H   H1012     1.0  0.49955  0.02948  0.51433  1.0000
  C   C1273     1.0  0.56490  0.07663  0.87607  1.0000
  C   C1274     1.0  0.56738  0.06205  0.89061  1.0000
  C   C1275     1.0  0.57008  0.04939  0.86837  1.0000
  C   C1276     1.0  0.57029  0.05109  0.83138  1.0000
  C   C1277     1.0  0.56835  0.06587  0.81667  1.0000
  C   C1278     1.0  0.56596  0.07877  0.83896  1.0000
  H   H1013     1.0  0.56755  0.06051  0.91912  1.0000
  H   H1014     1.0  0.57207  0.03826  0.88003  1.0000
  H   H1015     1.0  0.57212  0.04102  0.81423  1.0000
  H   H1016     1.0  0.56889  0.06738  0.78803  1.0000
  H   H1017     1.0  0.56495  0.09042  0.82735  1.0000
  H   H1018     1.0  0.60055  0.10158  0.91719  1.0000
  C   C1279     1.0  0.62617  0.03969  0.85506  1.0000
  H   H1019     1.0  0.51203  0.22076  0.77049  1.0000
  H   H1020     1.0  0.51506  0.23130  0.95663  1.0000
  C   C1280     1.0  0.61249  0.21120  0.55798  1.0000
  C   C1281     1.0  0.57069  0.11949  0.55308  1.0000
  C   C1282     1.0  0.60838  0.99205  0.73698  1.0000
  C   C1283     1.0  0.52936  0.14066  0.66631  1.0000
  H   H1021     1.0  0.55067  0.15388  0.79990  1.0000
  C   C1284     1.0  0.55662  0.99853  0.71106  1.0000
  C   C1285     1.0  0.52795  0.11385  0.55038  1.0000
  C   C1286     1.0  0.53099  0.09900  0.53752  1.0000
  S   S171      1.0  0.49544  0.16284  0.49621  1.0000
  S   S172      1.0  0.56740  0.02504  0.95953  1.0000
  C   C1287     1.0  0.61478  0.07165  0.94160  1.0000
  C   C1288     1.0  0.55493  0.08145  0.51949  1.0000
  P   P46       1.0  0.56230  0.09365  0.90462  1.0000
  C   C1289     1.0  0.52118  0.09267  0.64884  1.0000
  C   C1290     1.0  0.61497  0.08437  0.96830  1.0000
  H   H1022     1.0  0.55934  0.01287  0.71349  1.0000
  H   H1023     1.0  0.61568  0.07194  0.52654  1.0000
  H   H1024     1.0  0.55332  0.03262  0.51636  1.0000
  S   S173      1.0  0.63346  0.10714  0.97120  1.0000
  C   C1291     1.0  0.61938  0.00861  0.81063  1.0000
  H   H1025     1.0  0.52437  0.07171  0.61705  1.0000
  H   H1026     1.0  0.51317  0.08503  0.98471  1.0000
  H   H1027     1.0  0.58919  0.13527  0.51258  1.0000
  C   C1292     1.0  0.72309  0.18616  0.49913  1.0000
  H   H1028     1.0  0.59520  0.99922  0.63985  1.0000
  C   C1293     1.0  0.54121  0.07888  0.66582  1.0000
  C   C1294     1.0  0.56116  0.05792  0.54756  1.0000
  C   C1295     1.0  0.53456  0.22416  0.89463  1.0000
  C   C1296     1.0  0.55360  0.04616  0.51734  1.0000
  C   C1297     1.0  0.51524  0.08945  0.85289  1.0000
  H   H1029     1.0  0.54743  0.11780  0.93328  1.0000
  H   H1030     1.0  0.51516  0.01492  0.81599  1.0000
  Fe  Fe90      1.0  0.49367  0.17393  0.59876  1.0000
  H   H1031     1.0  0.55581  0.10741  0.59999  1.0000
  H   H1032     1.0  0.65976  0.19450  0.62443  1.0000
  H   H1033     1.0  0.49246  0.12274  0.80816  1.0000
  H   H1034     1.0  0.60353  0.01571  0.75113  1.0000
  C   C1298     1.0  0.49625  0.09305  0.56081  1.0000
  C   C1299     1.0  0.52183  0.13860  0.80817  1.0000
  C   C1300     1.0  0.59979  0.14644  0.88501  1.0000
  C   C1301     1.0  0.55032  0.15747  0.62083  1.0000
  C   C1302     1.0  0.49442  0.06551  0.94515  1.0000
  H   H1035     1.0  0.54793  0.14351  0.73636  1.0000
  H   H1036     1.0  0.51849  0.06934  0.52776  1.0000
  C   C1303     1.0  0.54570  0.06981  0.95903  1.0000
  C   C1304     1.0  0.63748  0.02202  0.81835  1.0000
  C   C1305     1.0  0.65621  0.19417  0.59623  1.0000
  H   H1037     1.0  0.52825  0.03595  0.86943  1.0000
  H   H1038     1.0  0.62937  0.15813  0.89032  1.0000
  H   H1039     1.0  0.51049  0.99425  0.93548  1.0000
  C   C1306     1.0  0.58321  0.13073  0.88867  1.0000
  H   H1040     1.0  0.51854  0.15653  0.69704  1.0000
  H   H1041     1.0  0.62578  0.07591  0.92315  1.0000
  H   H1042     1.0  0.65630  0.16793  0.58477  1.0000
  C   C1307     1.0  0.64084  0.03749  0.84058  1.0000
  H   H1043     1.0  0.52316  0.14360  0.83577  1.0000
  H   H1044     1.0  0.48804  0.06438  0.54766  1.0000
  C   C1308     1.0  0.64992  0.17895  0.53757  1.0000
  H   H1045     1.0  0.55888  0.15777  0.59889  1.0000
  C   C1309     1.0  0.58329  0.11440  0.90041  1.0000
  C   C1310     1.0  0.59428  0.20816  0.56173  1.0000
  H   H1046     1.0  0.53881  0.12784  0.55079  1.0000
  H   H1047     1.0  0.56678  0.05338  0.56975  1.0000
  C   C1311     1.0  0.70868  0.21959  0.51132  1.0000
  C   C1312     1.0  0.48867  0.01503  0.81814  1.0000
  C   C1313     1.0  0.72150  0.23833  0.51728  1.0000
  H   H1048     1.0  0.54687  0.06921  0.66020  1.0000
  C   C1314     1.0  0.50765  0.23072  0.76051  1.0000
  C   C1315     1.0  0.59932  0.99749  0.66677  1.0000
  C   C1316     1.0  0.57466  0.16968  0.50592  1.0000
  C   C1317     1.0  0.52854  0.08027  0.64154  1.0000
  C   C1318     1.0  0.58617  0.04768  0.96232  1.0000
  C   C1319     1.0  0.52338  0.11279  0.90064  1.0000
  C   C1320     1.0  0.80821  0.23558  0.81226  1.0000
  P   P47       1.0  0.55334  0.10305  0.52209  1.0000
  C   C1321     1.0  0.51655  0.08109  0.53717  1.0000
  H   H1049     1.0  0.64901  0.02062  0.80737  1.0000
  C   C1322     1.0  0.56171  0.07547  0.54883  1.0000
  C   C1323     1.0  0.51187  0.10277  0.87148  1.0000
  H   H1050     1.0  0.76421  0.21359  0.54149  1.0000
  C   C1324     1.0  0.49011  0.17040  0.69788  1.0000
  H   H1051     1.0  0.60818  0.20160  0.96438  1.0000
  H   H1052     1.0  0.79359  0.23040  0.81579  1.0000
  H   H1053     1.0  0.49741  0.17795  0.78885  1.0000
  P   P48       1.0  0.64698  0.22799  0.52760  1.0000
  H   H1054     1.0  0.49457  0.13260  0.64368  1.0000
  H   H1055     1.0  0.62962  0.12924  0.91036  1.0000
  C   C1325     1.0  0.55927  0.08722  0.95062  1.0000
  C   C1326     1.0  0.58230  0.16203  0.95866  1.0000
  C   C1327     1.0  0.56952  0.09990  0.97843  1.0000
  C   C1328     1.0  0.50459  0.12677  0.79263  1.0000
  H   H1056     1.0  0.52062  0.12297  0.91538  1.0000
  H   H1057     1.0  0.53056  0.15060  0.96233  1.0000
  H   H1058     1.0  0.56749  0.08427  0.57259  1.0000
  H   H1059     1.0  0.58188  0.17611  0.91067  1.0000
  C   C1329     1.0  0.57388  0.16812  0.93206  1.0000
  H   H1060     1.0  0.60065  0.04389  0.91808  1.0000
  C   C1330     1.0  0.49168  0.17061  0.76352  1.0000
  H   H1061     1.0  0.61156  0.15822  0.55516  1.0000
  H   H1062     1.0  0.50618  0.08155  0.83056  1.0000
  C   C1331     1.0  0.60015  0.11399  0.90793  1.0000
  C   C1332     1.0  0.54496  0.15383  0.96110  1.0000
  C   C1333     1.0  0.59973  0.00946  0.69476  1.0000
  S   S174      1.0  0.55998  0.00063  0.78442  1.0000
  H   H1063     1.0  0.62875  0.05164  0.87233  1.0000
  C   C1334     1.0  0.53027  0.08627  0.86314  1.0000
  C   C1335     1.0  0.56796  0.11839  0.58996  1.0000
  S   S175      1.0  0.50108  0.16461  0.95804  1.0000
  C   C1336     1.0  0.59895  0.23308  0.52283  1.0000
  C   C1337     1.0  0.60815  0.02644  0.84728  1.0000
  C   C1338     1.0  0.58662  0.13391  0.54079  1.0000
  H   H1064     1.0  0.74051  0.22322  0.98269  1.0000
  C   C1339     1.0  0.57213  0.15226  0.98700  1.0000
  H   H1065     1.0  0.57051  0.13156  0.88246  1.0000
  H   H1066     1.0  0.53751  0.05989  0.93805  1.0000
  H   H1067     1.0  0.54223  0.12903  0.62997  1.0000
  H   H1068     1.0  0.59603  0.02052  0.68943  1.0000
  C   C1340     1.0  0.55105  0.23224  0.87713  1.0000
  H   H1069     1.0  0.70886  0.20952  0.52949  1.0000
  C   C1341     1.0  0.53908  0.10221  0.70492  1.0000
  H   H1070     1.0  0.57978  0.11361  0.97291  1.0000
  C   C1342     1.0  0.64769  0.19367  0.52312  1.0000
  H   H1071     1.0  0.50924  0.04730  0.90250  1.0000
  C   C1343     1.0  0.49309  0.10898  0.67200  1.0000
  S   S176      1.0  0.63156  0.15513  0.98206  1.0000
  H   H1072     1.0  0.61716  0.20218  0.57105  1.0000
  C   C1344     1.0  0.65421  0.17920  0.57400  1.0000
  H   H1073     1.0  0.54326  0.11041  0.72971  1.0000
  C   C1345     1.0  0.59658  0.14588  0.60162  1.0000
  H   H1074     1.0  0.50583  0.23700  0.52471  1.0000
  H   H1075     1.0  0.51142  0.09361  0.62969  1.0000
  C   C1346     1.0  0.54831  0.17328  0.63050  1.0000
  C   C1347     1.0  0.58086  0.13151  0.61413  1.0000
  C   C1348     1.0  0.52636  0.10374  0.68060  1.0000
  C   C1349     1.0  0.54648  0.08985  0.69746  1.0000
  H   H1076     1.0  0.84042  0.21970  0.80201  1.0000
  C   C1350     1.0  0.52754  0.15666  0.67606  1.0000
  C   C1351     1.0  0.54079  0.14116  0.63848  1.0000
  P   P49       1.0  0.51668  0.11975  0.68926  1.0000
  H   H1077     1.0  0.67473  0.99863  0.73655  1.0000
  C   C1352     1.0  0.72955  0.22740  0.98315  1.0000
  H   H1078     1.0  0.48931  0.11210  0.74508  1.0000
  C   C1353     1.0  0.51423  0.03215  0.86002  1.0000
  C   C1354     1.0  0.48673  0.22362  0.96696  1.0000
  H   H1079     1.0  0.50834  0.12227  0.57163  1.0000
  H   H1080     1.0  0.64899  0.16761  0.52023  1.0000
  H   H1081     1.0  0.64693  0.00374  0.73866  1.0000
  C   C1355     1.0  0.50288  0.12073  0.75674  1.0000
  C   C1356     1.0  0.51067  0.11081  0.56208  1.0000
  H   H1082     1.0  0.59967  0.15911  0.87673  1.0000
  C   C1357     1.0  0.50532  0.23613  0.96544  1.0000
  C   C1358     1.0  0.53576  0.13847  0.75197  1.0000
  C   C1359     1.0  0.51936  0.23370  0.84835  1.0000
  C   C1360     1.0  0.50098  0.24003  0.78392  1.0000
  C   C1361     1.0  0.50832  0.23385  0.72394  1.0000
  C   C1362     1.0  0.59476  0.05239  0.48996  1.0000
  H   H1083     1.0  0.49462  0.11272  0.49201  1.0000
  C   C1363     1.0  0.49167  0.99283  0.97582  1.0000
  H   H1084     1.0  0.50619  0.21869  0.89453  1.0000
  H   H1085     1.0  0.73415  0.18738  0.55258  1.0000
  C   C1364     1.0  0.55924  0.17317  0.50112  1.0000
  H   H1086     1.0  0.70978  0.17501  0.50406  1.0000
  H   H1087     1.0  0.65481  0.04779  0.84661  1.0000
  C   C1365     1.0  0.70106  0.23775  0.98475  1.0000
  H   H1088     1.0  0.49864  0.07537  0.92436  1.0000
  C   C1366     1.0  0.81582  0.22309  0.80975  1.0000
  H   H1089     1.0  0.59671  0.02807  0.85829  1.0000
  C   C1367     1.0  0.61720  0.23622  0.51908  1.0000
  C   C1368     1.0  0.75364  0.20801  0.52023  1.0000
  H   H1090     1.0  0.57314  0.21611  0.54603  1.0000
  C   C1369     1.0  0.55190  0.24153  0.84579  1.0000
  C   C1370     1.0  0.54767  0.06963  0.48896  1.0000
  H   H1091     1.0  0.62318  0.09888  0.48844  1.0000
  H   H1092     1.0  0.48661  0.08312  0.69688  1.0000
  C   C1371     1.0  0.48624  0.11840  0.64961  1.0000
  H   H1093     1.0  0.59355  0.24125  0.50861  1.0000
  H   H1094     1.0  0.77075  0.24155  0.91202  1.0000
  C   C1372     1.0  0.54700  0.05206  0.48794  1.0000
  Fe  Fe91      1.0  0.93883  0.39391  0.44365  1.0000
  S   S177      1.0  0.93635  0.40831  0.39493  1.0000
  C   C1373     1.0  0.49696  0.32803  0.20400  1.0000
  Fe  Fe92      1.0  0.96141  0.43291  0.41678  1.0000
  H   H1095     1.0  0.50421  0.44750  0.08211  1.0000
  Fe  Fe93      1.0  0.95661  0.39988  0.37019  1.0000
  Fe  Fe94      1.0  0.96521  0.43679  0.05594  1.0000
  C   C1374     1.0  0.87439  0.42776  0.21046  1.0000
  Fe  Fe95      1.0  0.94887  0.39546  0.04215  1.0000
  H   H1096     1.0  0.65964  0.48065  0.42687  1.0000
  S   S178      1.0  0.94819  0.41310  0.08915  1.0000
  C   C1375     1.0  0.49542  0.40346  0.06822  1.0000
  S   S179      1.0  0.50894  0.32202  0.39005  1.0000
  C   C1376     1.0  0.52652  0.40706  0.10828  1.0000
  C   C1377     1.0  0.49694  0.28738  0.30177  1.0000
  H   H1097     1.0  0.71773  0.42101  0.07617  1.0000
  Fe  Fe96      1.0  0.51832  0.35010  0.41708  1.0000
  H   H1098     1.0  0.49725  0.29273  0.27541  1.0000
  S   S180      1.0  0.50481  0.33879  0.46785  1.0000
  S   S181      1.0  0.82563  0.46717  0.38598  1.0000
  Fe  Fe97      1.0  0.78805  0.47908  0.42701  1.0000
  S   S182      1.0  0.78244  0.46043  0.37766  1.0000
  H   H1099     1.0  0.91665  0.45058  0.12244  1.0000
  Fe  Fe98      1.0  0.79860  0.44804  0.40758  1.0000
  H   H1100     1.0  0.80790  0.45607  0.27504  1.0000
  Fe  Fe99      1.0  0.97528  0.41445  0.10788  1.0000
  H   H1101     1.0  0.52759  0.26060  0.30467  1.0000
  S   S183      1.0  0.80244  0.46518  0.45805  1.0000
  Fe  Fe100     1.0  0.50084  0.32909  0.10041  1.0000
  H   H1102     1.0  0.89860  0.44071  0.18075  1.0000
  Fe  Fe101     1.0  0.52076  0.35136  0.03565  1.0000
  S   S184      1.0  0.54170  0.38051  0.02359  1.0000
  Fe  Fe102     1.0  0.50195  0.30851  0.02943  1.0000
  C   C1378     1.0  0.49477  0.37748  0.30730  1.0000
  S   S185      1.0  0.49898  0.35215  0.07074  1.0000
  S   S186      1.0  0.52399  0.32965  0.06726  1.0000
  Fe  Fe103     1.0  0.81211  0.47175  0.08826  1.0000
  H   H1103     1.0  0.87663  0.44043  0.22490  1.0000
  Fe  Fe104     1.0  0.81070  0.45680  0.01092  1.0000
  H   H1104     1.0  0.96062  0.36306  0.26563  1.0000
  C   C1379     1.0  0.89937  0.35373  0.13926  1.0000
  Fe  Fe105     1.0  0.78888  0.47875  0.02806  1.0000
  C   C1380     1.0  0.96795  0.47474  0.45199  1.0000
  S   S187      1.0  0.83383  0.47342  0.05042  1.0000
  S   S188      1.0  0.78911  0.45309  0.04985  1.0000
  C   C1381     1.0  0.95721  0.39777  0.27275  1.0000
  S   S189      1.0  0.96441  0.41935  0.00752  1.0000
  C   C1382     1.0  0.55527  0.33519  0.44155  1.0000
  C   C1383     1.0  0.81008  0.45846  0.21760  1.0000
  H   H1105     1.0  0.50228  0.24351  0.37022  1.0000
  C   C1384     1.0  0.81075  0.46522  0.25310  1.0000
  C   C1385     1.0  0.75013  0.42259  0.44003  1.0000
  H   H1106     1.0  0.90363  0.38963  0.19402  1.0000
  C   C1386     1.0  0.90141  0.42340  0.02919  1.0000
  C   C1387     1.0  0.73872  0.46388  0.14822  1.0000
  S   S190      1.0  0.96264  0.41947  0.46752  1.0000
  H   H1107     1.0  0.91955  0.48217  0.05687  1.0000
  C   C1388     1.0  0.54875  0.28079  0.34042  1.0000
  C   C1389     1.0  0.95920  0.36533  0.13143  1.0000
  Fe  Fe106     1.0  0.81004  0.48091  0.35959  1.0000
  H   H1108     1.0  0.57644  0.45373  0.07143  1.0000
  H   H1109     1.0  0.75616  0.43778  0.99282  1.0000
  C   C1390     1.0  0.51200  0.24456  0.39158  1.0000
  C   C1391     1.0  0.71596  0.41669  0.46525  1.0000
  C   C1392     1.0  0.81356  0.47008  0.18855  1.0000
  H   H1110     1.0  0.71519  0.45749  0.26341  1.0000
  C   C1393     1.0  0.93947  0.49002  0.36870  1.0000
  C   C1394     1.0  0.53909  0.46177  0.33231  1.0000
  C   C1395     1.0  0.49127  0.26422  0.47670  1.0000
  C   C1396     1.0  0.52445  0.44605  0.34475  1.0000
  H   H1111     1.0  0.61120  0.26400  0.10440  1.0000
  H   H1112     1.0  0.57320  0.29936  0.37152  1.0000
  C   C1397     1.0  0.77514  0.27234  0.45183  1.0000
  H   H1113     1.0  0.94667  0.47615  0.13926  1.0000
  H   H1114     1.0  0.92201  0.34063  0.07566  1.0000
  H   H1115     1.0  0.93341  0.37970  0.24007  1.0000
  H   H1116     1.0  0.96620  0.32797  0.10766  1.0000
  H   H1117     1.0  0.80055  0.29366  0.43482  1.0000
  H   H1118     1.0  0.61961  0.48535  0.05048  1.0000
  H   H1119     1.0  0.53398  0.47698  0.41249  1.0000
  C   C1398     1.0  0.58005  0.29008  0.32242  1.0000
  H   H1120     1.0  0.90295  0.35892  0.19632  1.0000
  H   H1121     1.0  0.69153  0.48406  0.42637  1.0000
  C   C1399     1.0  0.73847  0.43030  0.03704  1.0000
  C   C1400     1.0  0.87484  0.40722  0.07968  1.0000
  S   S191      1.0  0.81178  0.46045  0.14432  1.0000
  C   C1401     1.0  0.90679  0.42212  0.06439  1.0000
  H   H1122     1.0  0.51009  0.40283  0.15415  1.0000
  C   C1402     1.0  0.92668  0.44783  0.13758  1.0000
  H   H1123     1.0  0.75851  0.37924  0.99440  1.0000
  C   C1403     1.0  0.86950  0.40852  0.04444  1.0000
  H   H1124     1.0  0.85504  0.40302  0.03644  1.0000
  H   H1125     1.0  0.52530  0.29283  0.30291  1.0000
  C   C1404     1.0  0.96773  0.35356  0.13067  1.0000
  C   C1405     1.0  0.75643  0.47093  0.13540  1.0000
  H   H1126     1.0  0.50890  0.38437  0.46008  1.0000
  P   P50       1.0  0.90042  0.41121  0.13487  1.0000
  H   H1127     1.0  0.58413  0.26230  0.13631  1.0000
  C   C1406     1.0  0.92277  0.42981  0.14688  1.0000
  C   C1407     1.0  0.76215  0.25394  0.44691  1.0000
  S   S192      1.0  0.79144  0.41753  0.40287  1.0000
  C   C1408     1.0  0.57340  0.27887  0.29122  1.0000
  H   H1128     1.0  0.93380  0.41306  0.17343  1.0000
  C   C1409     1.0  0.53501  0.48073  0.44076  1.0000
  H   H1129     1.0  0.53957  0.41051  0.05796  1.0000
  H   H1130     1.0  0.68202  0.43776  0.26918  1.0000
  C   C1410     1.0  0.91603  0.42114  0.26085  1.0000
  C   C1411     1.0  0.93465  0.42820  0.27126  1.0000
  C   C1412     1.0  0.94041  0.43424  0.30672  1.0000
  C   C1413     1.0  0.92758  0.43318  0.33184  1.0000
  C   C1414     1.0  0.90878  0.42561  0.32189  1.0000
  C   C1415     1.0  0.90310  0.41964  0.28612  1.0000
  P   P51       1.0  0.89177  0.42217  0.35475  1.0000
  C   C1416     1.0  0.87546  0.39814  0.35090  1.0000
  C   C1417     1.0  0.90243  0.42777  0.39922  1.0000
  C   C1418     1.0  0.90013  0.41411  0.42363  1.0000
  C   C1419     1.0  0.90828  0.41907  0.45807  1.0000
  H   H1131     1.0  0.84010  0.42148  0.47641  1.0000
  C   C1420     1.0  0.92149  0.45116  0.44400  1.0000
  C   C1421     1.0  0.91305  0.44632  0.40986  1.0000
  C   C1422     1.0  0.85643  0.39268  0.34990  1.0000
  C   C1423     1.0  0.84408  0.37395  0.34841  1.0000
  C   C1424     1.0  0.85063  0.36059  0.34804  1.0000
  C   C1425     1.0  0.86954  0.36593  0.34844  1.0000
  C   C1426     1.0  0.88191  0.38462  0.34954  1.0000
  C   C1427     1.0  0.88079  0.43720  0.34911  1.0000
  C   C1428     1.0  0.88369  0.44801  0.31909  1.0000
  C   C1429     1.0  0.87570  0.46018  0.31623  1.0000
  C   C1430     1.0  0.86490  0.46172  0.34335  1.0000
  C   C1431     1.0  0.86199  0.45103  0.37332  1.0000
  C   C1432     1.0  0.86993  0.43886  0.37628  1.0000
  H   H1132     1.0  0.91160  0.41639  0.23342  1.0000
  H   H1133     1.0  0.94461  0.42866  0.25211  1.0000
  H   H1134     1.0  0.95479  0.43934  0.31507  1.0000
  H   H1135     1.0  0.93247  0.43787  0.35913  1.0000
  H   H1136     1.0  0.88865  0.41350  0.27798  1.0000
  H   H1137     1.0  0.89249  0.39963  0.41635  1.0000
  H   H1138     1.0  0.93678  0.31955  0.07421  1.0000
  S   S193      1.0  0.97531  0.39502  0.06322  1.0000
  H   H1139     1.0  0.93018  0.46549  0.45157  1.0000
  H   H1140     1.0  0.91501  0.45703  0.39151  1.0000
  H   H1141     1.0  0.85101  0.40274  0.35085  1.0000
  H   H1142     1.0  0.82941  0.36978  0.34844  1.0000
  H   H1143     1.0  0.84109  0.34608  0.34787  1.0000
  H   H1144     1.0  0.87467  0.35560  0.34855  1.0000
  H   H1145     1.0  0.89656  0.38853  0.35034  1.0000
  H   H1146     1.0  0.89232  0.44735  0.29819  1.0000
  H   H1147     1.0  0.87800  0.46861  0.29318  1.0000
  C   C1433     1.0  0.74563  0.46433  0.31737  1.0000
  H   H1148     1.0  0.85370  0.45230  0.39451  1.0000
  H   H1149     1.0  0.86771  0.43084  0.39994  1.0000
  C   C1434     1.0  0.76202  0.42635  0.22705  1.0000
  H   H1150     1.0  0.77339  0.28111  0.47227  1.0000
  H   H1151     1.0  0.77928  0.46643  0.20904  1.0000
  H   H1152     1.0  0.73207  0.24490  0.40101  1.0000
  C   C1435     1.0  0.51746  0.40833  0.32668  1.0000
  S   S194      1.0  0.98164  0.42576  0.38869  1.0000
  C   C1436     1.0  0.51800  0.40357  0.41786  1.0000
  P   P52       1.0  0.52787  0.42675  0.36060  1.0000
  H   H1153     1.0  0.67740  0.25547  0.41650  1.0000
  H   H1154     1.0  0.50962  0.44128  0.41253  1.0000
  H   H1155     1.0  0.75890  0.47562  0.10829  1.0000
  C   C1437     1.0  0.70994  0.44264  0.26057  1.0000
  C   C1438     1.0  0.76946  0.48421  0.27957  1.0000
  H   H1156     1.0  0.50625  0.43405  0.14964  1.0000
  C   C1439     1.0  0.56102  0.38833  0.99644  1.0000
  H   H1157     1.0  0.87040  0.40613  0.47664  1.0000
  H   H1158     1.0  0.49509  0.43120  0.02240  1.0000
  C   C1440     1.0  0.60013  0.25070  0.10974  1.0000
  H   H1159     1.0  0.59636  0.45779  0.01986  1.0000
  C   C1441     1.0  0.53617  0.48958  0.08261  1.0000
  C   C1442     1.0  0.55176  0.43165  0.36762  1.0000
  C   C1443     1.0  0.56453  0.44860  0.38345  1.0000
  C   C1444     1.0  0.58304  0.45233  0.38822  1.0000
  C   C1445     1.0  0.58877  0.43890  0.37887  1.0000
  C   C1446     1.0  0.57603  0.42177  0.36437  1.0000
  C   C1447     1.0  0.55759  0.41808  0.35902  1.0000
  Fe  Fe107     1.0  0.98191  0.41100  0.43879  1.0000
  C   C1448     1.0  0.58976  0.40875  0.47659  1.0000
  H   H1160     1.0  0.78474  0.47728  0.14750  1.0000
  C   C1449     1.0  0.49926  0.26169  0.98888  1.0000
  H   H1161     1.0  0.53761  0.42261  0.28786  1.0000
  C   C1450     1.0  0.97372  0.41019  0.20679  1.0000
  C   C1451     1.0  0.98343  0.41773  0.23954  1.0000
  H   H1162     1.0  0.52470  0.39627  0.40446  1.0000
  H   H1163     1.0  0.97247  0.32466  0.18117  1.0000
  H   H1164     1.0  0.98301  0.41729  0.29730  1.0000
  C   C1452     1.0  0.49291  0.44778  0.06651  1.0000
  C   C1453     1.0  0.54245  0.30209  0.40023  1.0000
  H   H1165     1.0  0.55262  0.46242  0.33014  1.0000
  H   H1166     1.0  0.56023  0.45892  0.39220  1.0000
  S   S195      1.0  0.61730  0.49042  0.46529  1.0000
  C   C1454     1.0  0.75014  0.45849  0.20546  1.0000
  C   C1455     1.0  0.48770  0.43843  0.03314  1.0000
  H   H1167     1.0  0.54792  0.40446  0.34883  1.0000
  C   C1456     1.0  0.73849  0.49120  0.48390  1.0000
  Fe  Fe108     1.0  0.49340  0.31056  0.43989  1.0000
  C   C1457     1.0  0.71469  0.41539  0.24970  1.0000
  S   S196      1.0  0.92320  0.36849  0.02484  1.0000
  C   C1458     1.0  0.50912  0.39681  0.44946  1.0000
  C   C1459     1.0  0.89925  0.47333  0.46693  1.0000
  C   C1460     1.0  0.55317  0.45145  0.03867  1.0000
  C   C1461     1.0  0.75872  0.43568  0.25615  1.0000
  C   C1462     1.0  0.70679  0.40851  0.02390  1.0000
  H   H1168     1.0  0.70619  0.41041  0.41012  1.0000
  C   C1463     1.0  0.51042  0.40409  0.12543  1.0000
  C   C1464     1.0  0.89421  0.37555  0.99781  1.0000
  C   C1465     1.0  0.50021  0.40583  0.46697  1.0000
  C   C1466     1.0  0.97337  0.36264  0.21601  1.0000
  C   C1467     1.0  0.77951  0.24970  0.39890  1.0000
  H   H1169     1.0  0.77673  0.48684  0.25504  1.0000
  H   H1170     1.0  0.74624  0.47531  0.37093  1.0000
  C   C1468     1.0  0.49542  0.45154  0.17255  1.0000
  C   C1469     1.0  0.85117  0.38308  0.44427  1.0000
  C   C1470     1.0  0.77673  0.41334  0.26714  1.0000
  C   C1471     1.0  0.51278  0.28732  0.31742  1.0000
  C   C1472     1.0  0.79255  0.26812  0.40405  1.0000
  H   H1171     1.0  0.54777  0.48933  0.31379  1.0000
  C   C1473     1.0  0.49477  0.40241  0.10549  1.0000
  C   C1474     1.0  0.50415  0.46059  0.33465  1.0000
  H   H1172     1.0  0.80717  0.35562  0.46442  1.0000
  H   H1173     1.0  0.84862  0.44597  0.02262  1.0000
  C   C1475     1.0  0.94292  0.33217  0.09072  1.0000
  S   S197      1.0  0.49478  0.35480  0.39479  1.0000
  C   C1476     1.0  0.94373  0.46243  0.14714  1.0000
  C   C1477     1.0  0.54629  0.45115  0.00385  1.0000
  C   C1478     1.0  0.78841  0.40408  0.44097  1.0000
  H   H1174     1.0  0.95250  0.47355  0.34956  1.0000
  C   C1479     1.0  0.93611  0.47776  0.30780  1.0000
  H   H1175     1.0  0.76336  0.42481  0.43034  1.0000
  C   C1480     1.0  0.74435  0.48045  0.46210  1.0000
  C   C1481     1.0  0.75244  0.47787  0.34512  1.0000
  C   C1482     1.0  0.78202  0.37427  0.46572  1.0000
  H   H1176     1.0  0.91894  0.48442  0.27187  1.0000
  C   C1483     1.0  0.54220  0.26911  0.30961  1.0000
  H   H1177     1.0  0.51698  0.48851  0.31750  1.0000
  C   C1484     1.0  0.50678  0.44527  0.34415  1.0000
  H   H1178     1.0  0.54501  0.46128  0.45692  1.0000
  C   C1485     1.0  0.55449  0.26832  0.28491  1.0000
  H   H1179     1.0  0.67604  0.25273  0.48133  1.0000
  C   C1486     1.0  0.88100  0.35824  0.44631  1.0000
  C   C1487     1.0  0.70659  0.46769  0.47864  1.0000
  H   H1180     1.0  0.72054  0.46525  0.02897  1.0000
  H   H1181     1.0  0.49489  0.39033  0.35809  1.0000
  H   H1182     1.0  0.96573  0.37853  0.14600  1.0000
  C   C1488     1.0  0.86182  0.34673  0.44579  1.0000
  H   H1183     1.0  0.50873  0.34013  0.29307  1.0000
  H   H1184     1.0  0.98151  0.29927  0.18504  1.0000
  H   H1185     1.0  0.91487  0.46132  0.00423  1.0000
  C   C1489     1.0  0.76788  0.46575  0.19237  1.0000
  C   C1490     1.0  0.88277  0.41664  0.01922  1.0000
  H   H1186     1.0  0.96031  0.35449  0.20194  1.0000
  P   P53       1.0  0.53286  0.28100  0.37293  1.0000
  P   P54       1.0  0.74612  0.44916  0.24959  1.0000
  S   S198      1.0  0.96491  0.46199  0.41159  1.0000
  C   C1491     1.0  0.95545  0.39680  0.20714  1.0000
  S   S199      1.0  0.95811  0.38400  0.41834  1.0000
  H   H1187     1.0  0.87589  0.46202  0.06397  1.0000
  H   H1188     1.0  0.83197  0.44710  0.46769  1.0000
  C   C1492     1.0  0.51155  0.40645  0.05114  1.0000
  H   H1189     1.0  0.73417  0.45126  0.32231  1.0000
  H   H1190     1.0  0.90339  0.39003  0.00208  1.0000
  C   C1493     1.0  0.72071  0.41995  0.04843  1.0000
  C   C1494     1.0  0.92139  0.47607  0.00145  1.0000
  H   H1191     1.0  0.59473  0.29804  0.32757  1.0000
  C   C1495     1.0  0.54975  0.49142  0.05881  1.0000
  H   H1192     1.0  0.49810  0.36780  0.25506  1.0000
  C   C1496     1.0  0.57151  0.40742  0.99374  1.0000
  H   H1193     1.0  0.54933  0.25946  0.26095  1.0000
  C   C1497     1.0  0.76426  0.24243  0.42058  1.0000
  C   C1498     1.0  0.58239  0.45600  0.01564  1.0000
  C   C1499     1.0  0.77108  0.41531  0.23256  1.0000
  H   H1194     1.0  0.69041  0.38944  0.24982  1.0000
  H   H1195     1.0  0.51190  0.40681  0.02227  1.0000
  C   C1500     1.0  0.94267  0.36058  0.11199  1.0000
  C   C1501     1.0  0.52713  0.40840  0.07122  1.0000
  H   H1196     1.0  0.70234  0.44384  0.44551  1.0000
  C   C1502     1.0  0.52790  0.26109  0.39920  1.0000
  H   H1197     1.0  0.77383  0.40840  0.20992  1.0000
  H   H1198     1.0  0.88686  0.46051  0.46793  1.0000
  C   C1503     1.0  0.98532  0.32626  0.17035  1.0000
  C   C1504     1.0  0.96439  0.46617  0.48470  1.0000
  C   C1505     1.0  0.81512  0.48381  0.26009  1.0000
  C   C1506     1.0  0.90046  0.36243  0.00632  1.0000
  S   S200      1.0  0.49651  0.28820  0.47358  1.0000
  H   H1199     1.0  0.72354  0.40887  0.24413  1.0000
  C   C1507     1.0  0.78336  0.40418  0.98832  1.0000
  H   H1200     1.0  0.91174  0.42929  0.00949  1.0000
  H   H1201     1.0  0.52502  0.39683  0.24234  1.0000
  C   C1508     1.0  0.53889  0.30190  0.43670  1.0000
  C   C1509     1.0  0.90349  0.48285  0.43527  1.0000
  H   H1202     1.0  0.93659  0.37012  0.11148  1.0000
  C   C1510     1.0  0.56779  0.29091  0.34714  1.0000
  H   H1203     1.0  0.77766  0.42083  0.32314  1.0000
  C   C1511     1.0  0.97346  0.36730  0.25226  1.0000
  C   C1512     1.0  0.53637  0.47700  0.32244  1.0000
  H   H1204     1.0  0.85443  0.34097  0.42056  1.0000
  C   C1513     1.0  0.70828  0.24592  0.46555  1.0000
  C   C1514     1.0  0.93452  0.34400  0.09164  1.0000
  C   C1515     1.0  0.72416  0.47028  0.00248  1.0000
  C   C1516     1.0  0.69114  0.43152  0.26376  1.0000
  C   C1517     1.0  0.82088  0.36679  0.46704  1.0000
  H   H1205     1.0  0.78455  0.37980  0.40960  1.0000
  C   C1518     1.0  0.90162  0.36429  0.17076  1.0000
  H   H1206     1.0  0.49322  0.42859  0.46645  1.0000
  H   H1207     1.0  0.75767  0.42763  0.20009  1.0000
  C   C1519     1.0  0.86420  0.44988  0.07235  1.0000
  C   C1520     1.0  0.71793  0.41442  0.42868  1.0000
  Fe  Fe109     1.0  0.82894  0.48533  0.43489  1.0000
  C   C1521     1.0  0.89092  0.36527  0.47888  1.0000
  H   H1208     1.0  0.50887  0.46296  0.17800  1.0000
  C   C1522     1.0  0.74238  0.42931  0.00110  1.0000
  C   C1523     1.0  0.55861  0.33553  0.40512  1.0000
  C   C1524     1.0  0.81420  0.40925  0.21221  1.0000
  C   C1525     1.0  0.80779  0.39194  0.22694  1.0000
  C   C1526     1.0  0.80345  0.37626  0.20479  1.0000
  C   C1527     1.0  0.80584  0.37791  0.16799  1.0000
  C   C1528     1.0  0.81311  0.39535  0.15321  1.0000
  C   C1529     1.0  0.81660  0.41094  0.17541  1.0000
  P   P55       1.0  0.81477  0.39736  0.10543  1.0000
  C   C1530     1.0  0.83360  0.41868  0.09388  1.0000
  C   C1531     1.0  0.81959  0.37999  0.08317  1.0000
  C   C1532     1.0  0.81522  0.37590  0.04641  1.0000
  C   C1533     1.0  0.81996  0.36336  0.02836  1.0000
  C   C1534     1.0  0.82932  0.35501  0.04669  1.0000
  C   C1535     1.0  0.83408  0.35928  0.08306  1.0000
  C   C1536     1.0  0.82930  0.37179  0.10125  1.0000
  C   C1537     1.0  0.83351  0.42547  0.05988  1.0000
  C   C1538     1.0  0.84882  0.44089  0.04907  1.0000
  H   H1209     1.0  0.58291  0.27823  0.27210  1.0000
  C   C1539     1.0  0.86446  0.44315  0.10624  1.0000
  C   C1540     1.0  0.84932  0.42745  0.11681  1.0000
  C   C1541     1.0  0.79284  0.39584  0.09024  1.0000
  C   C1542     1.0  0.78919  0.41118  0.09457  1.0000
  C   C1543     1.0  0.77157  0.40955  0.08646  1.0000
  C   C1544     1.0  0.75760  0.39272  0.07339  1.0000
  C   C1545     1.0  0.76110  0.37735  0.06930  1.0000
  C   C1546     1.0  0.77860  0.37883  0.07796  1.0000
  H   H1210     1.0  0.81708  0.42137  0.22919  1.0000
  H   H1211     1.0  0.80583  0.39061  0.25543  1.0000
  H   H1212     1.0  0.79790  0.36275  0.21602  1.0000
  H   H1213     1.0  0.80170  0.36555  0.15101  1.0000
  H   H1214     1.0  0.82089  0.42439  0.16424  1.0000
  H   H1215     1.0  0.80826  0.38248  0.03150  1.0000
  H   H1216     1.0  0.90659  0.40851  0.47668  1.0000
  H   H1217     1.0  0.83299  0.34531  0.03252  1.0000
  H   H1218     1.0  0.84160  0.35295  0.09690  1.0000
  H   H1219     1.0  0.83350  0.37528  0.12912  1.0000
  H   H1220     1.0  0.82172  0.41869  0.04144  1.0000
  H   H1221     1.0  0.53843  0.40785  0.12354  1.0000
  H   H1222     1.0  0.55419  0.31960  0.35596  1.0000
  H   H1223     1.0  0.87647  0.45002  0.12409  1.0000
  H   H1224     1.0  0.85004  0.42204  0.14256  1.0000
  H   H1225     1.0  0.79987  0.42435  0.10466  1.0000
  H   H1226     1.0  0.76877  0.42137  0.09034  1.0000
  H   H1227     1.0  0.74410  0.39162  0.06629  1.0000
  H   H1228     1.0  0.75036  0.36430  0.05884  1.0000
  H   H1229     1.0  0.78089  0.36666  0.07500  1.0000
  S   S201      1.0  0.94717  0.38780  0.31307  1.0000
  C   C1547     1.0  0.88402  0.41149  0.16639  1.0000
  H   H1230     1.0  0.84955  0.41129  0.23691  1.0000
  C   C1548     1.0  0.85908  0.41136  0.21713  1.0000
  C   C1549     1.0  0.76418  0.43333  0.29081  1.0000
  C   C1550     1.0  0.94730  0.39054  0.23999  1.0000
  H   H1231     1.0  0.77905  0.35993  0.46164  1.0000
  C   C1551     1.0  0.91900  0.43756  0.46821  1.0000
  H   H1232     1.0  0.60310  0.41989  0.47278  1.0000
  H   H1233     1.0  0.80654  0.44407  0.21248  1.0000
  C   C1552     1.0  0.95956  0.33697  0.10995  1.0000
  H   H1234     1.0  0.69296  0.40059  0.03261  1.0000
  C   C1553     1.0  0.73111  0.46329  0.44851  1.0000
  H   H1235     1.0  0.73529  0.45490  0.43161  1.0000
  H   H1236     1.0  0.60302  0.44164  0.38359  1.0000
  H   H1237     1.0  0.54456  0.44999  0.06109  1.0000
  H   H1238     1.0  0.74913  0.43957  0.05586  1.0000
  H   H1239     1.0  0.87857  0.41738  0.99179  1.0000
  H   H1240     1.0  0.97062  0.47043  0.17193  1.0000
  C   C1554     1.0  0.78503  0.38554  0.43624  1.0000
  H   H1241     1.0  0.88818  0.36123  0.42166  1.0000
  H   H1242     1.0  0.81649  0.36017  0.99998  1.0000
  C   C1555     1.0  0.95715  0.45920  0.16566  1.0000
  C   C1556     1.0  0.54531  0.31839  0.45727  1.0000
  H   H1243     1.0  0.92131  0.42718  0.07123  1.0000
  H   H1244     1.0  0.86437  0.40067  0.09860  1.0000
  H   H1245     1.0  0.93930  0.46982  0.28773  1.0000
  C   C1557     1.0  0.68411  0.41235  0.25994  1.0000
  C   C1558     1.0  0.79039  0.27942  0.43057  1.0000
  C   C1559     1.0  0.49633  0.27493  0.37083  1.0000
  H   H1246     1.0  0.49616  0.27084  0.39811  1.0000
  C   C1560     1.0  0.71242  0.45705  0.45656  1.0000
  H   H1247     1.0  0.52190  0.48311  0.07335  1.0000
  H   H1248     1.0  0.70806  0.25603  0.44749  1.0000
  C   C1561     1.0  0.51242  0.28061  0.35175  1.0000
  C   C1562     1.0  0.89353  0.41409  0.09001  1.0000
  C   C1563     1.0  0.88682  0.42786  0.18522  1.0000
  C   C1564     1.0  0.77327  0.42233  0.29625  1.0000
  H   H1249     1.0  0.58032  0.41113  0.35794  1.0000
  H   H1250     1.0  0.89270  0.33330  0.00681  1.0000
  H   H1251     1.0  0.73666  0.41577  0.38777  1.0000
  C   C1565     1.0  0.58489  0.24975  0.12775  1.0000
  C   C1566     1.0  0.50020  0.33330  0.26942  1.0000
  H   H1252     1.0  0.82934  0.35897  0.41825  1.0000
  C   C1567     1.0  0.51898  0.47651  0.32418  1.0000
  C   C1568     1.0  0.72187  0.43465  0.25370  1.0000
  H   H1253     1.0  0.55309  0.27417  0.43199  1.0000
  C   C1569     1.0  0.73554  0.45766  0.18307  1.0000
  H   H1254     1.0  0.66954  0.40374  0.26238  1.0000
  C   C1570     1.0  0.50170  0.39205  0.33309  1.0000
  H   H1255     1.0  0.86586  0.38235  0.15852  1.0000
  C   C1571     1.0  0.85213  0.34253  0.47763  1.0000
  C   C1572     1.0  0.54122  0.47197  0.46571  1.0000
  H   H1256     1.0  0.89450  0.47705  0.41176  1.0000
  C   C1573     1.0  0.95335  0.44137  0.17529  1.0000
  H   H1257     1.0  0.76148  0.44000  0.31373  1.0000
  C   C1574     1.0  0.93618  0.42674  0.16627  1.0000
  C   C1575     1.0  0.92465  0.48597  0.29892  1.0000
  S   S202      1.0  0.54688  0.37340  0.41256  1.0000
  C   C1576     1.0  0.86842  0.39512  0.17289  1.0000
  C   C1577     1.0  0.85604  0.39507  0.19823  1.0000
  C   C1578     1.0  0.97519  0.41171  0.27235  1.0000
  C   C1579     1.0  0.83336  0.36884  0.44072  1.0000
  H   H1258     1.0  0.86089  0.38431  0.42422  1.0000
  C   C1580     1.0  0.75405  0.46740  0.28422  1.0000
  H   H1259     1.0  0.72167  0.45209  0.19210  1.0000
  C   C1581     1.0  0.56093  0.38458  0.45103  1.0000
  H   H1260     1.0  0.89787  0.38348  0.07861  1.0000
  C   C1582     1.0  0.90214  0.38177  0.16930  1.0000
  C   C1583     1.0  0.96507  0.47272  0.01644  1.0000
  H   H1261     1.0  0.84411  0.38236  0.20330  1.0000
  H   H1262     1.0  0.96391  0.43882  0.18897  1.0000
  C   C1584     1.0  0.69588  0.40430  0.25287  1.0000
  C   C1585     1.0  0.89878  0.37836  0.10466  1.0000
  C   C1586     1.0  0.90079  0.38901  0.13623  1.0000
  C   C1587     1.0  0.50040  0.42178  0.45322  1.0000
  C   C1588     1.0  0.54053  0.26171  0.42628  1.0000
  H   H1263     1.0  0.55995  0.34800  0.45731  1.0000
  C   C1589     1.0  0.50781  0.33652  0.23533  1.0000
  S   S203      1.0  0.75960  0.47731  0.02515  1.0000
  C   C1590     1.0  0.51774  0.41927  0.40319  1.0000
  C   C1591     1.0  0.89789  0.36074  0.10630  1.0000
  H   H1264     1.0  0.89630  0.35263  0.08178  1.0000
  H   H1265     1.0  0.53062  0.28910  0.44914  1.0000
  C   C1592     1.0  0.55210  0.31906  0.38441  1.0000
  H   H1266     1.0  0.55808  0.41996  0.45142  1.0000
  H   H1267     1.0  0.58321  0.40278  0.42022  1.0000
  H   H1268     1.0  0.80443  0.27366  0.38768  1.0000
  H   H1269     1.0  0.59294  0.46545  0.40021  1.0000
  C   C1593     1.0  0.57842  0.39902  0.44673  1.0000
  S   S204      1.0  0.50722  0.33369  0.16157  1.0000
  H   H1270     1.0  0.52219  0.34583  0.23314  1.0000
  C   C1594     1.0  0.50942  0.42870  0.42189  1.0000
  S   S205      1.0  0.96087  0.46239  0.05783  1.0000
  S   S206      1.0  0.76825  0.48919  0.45278  1.0000
  H   H1271     1.0  0.56570  0.34866  0.39279  1.0000
  H   H1272     1.0  0.78375  0.40483  0.27151  1.0000
  C   C1595     1.0  0.57116  0.45372  0.04454  1.0000
  H   H1273     1.0  0.85883  0.47126  0.34124  1.0000
  C   C1596     1.0  0.81793  0.48866  0.19554  1.0000
  C   C1597     1.0  0.73504  0.41746  0.41606  1.0000
  H   H1274     1.0  0.94779  0.39085  0.18221  1.0000
  H   H1275     1.0  0.89897  0.34017  0.14030  1.0000
  H   H1276     1.0  0.49509  0.43302  0.35210  1.0000
  C   C1598     1.0  0.52554  0.41014  0.29343  1.0000
  C   C1599     1.0  0.77101  0.47189  0.15752  1.0000
  C   C1600     1.0  0.88816  0.34364  0.00039  1.0000
  H   H1277     1.0  0.53244  0.44971  0.99970  1.0000
  H   H1278     1.0  0.58266  0.45209  0.45939  1.0000
  C   C1601     1.0  0.51848  0.39561  0.26762  1.0000
  C   C1602     1.0  0.50323  0.37923  0.27470  1.0000
  H   H1279     1.0  0.72745  0.46317  0.13097  1.0000
  H   H1280     1.0  0.79151  0.42553  0.47968  1.0000
  C   C1603     1.0  0.55951  0.42787  0.47611  1.0000
  C   C1604     1.0  0.92416  0.48795  0.03124  1.0000
  H   H1281     1.0  0.94530  0.49137  0.39565  1.0000
  H   H1282     1.0  0.77819  0.41306  0.00089  1.0000
  H   H1283     1.0  0.70256  0.41423  0.47425  1.0000
  S   S207      1.0  0.50046  0.33068  0.99581  1.0000
  H   H1284     1.0  0.54205  0.31813  0.48516  1.0000
  H   H1285     1.0  0.56772  0.41680  0.00847  1.0000
  H   H1286     1.0  0.75051  0.24866  0.46386  1.0000
  C   C1605     1.0  0.94353  0.47982  0.34264  1.0000
  H   H1287     1.0  0.95981  0.45152  0.48550  1.0000
  S   S208      1.0  0.82802  0.32718  0.47554  1.0000
  C   C1606     1.0  0.49386  0.43505  0.15648  1.0000
  C   C1607     1.0  0.74252  0.47646  0.99251  1.0000
  H   H1288     1.0  0.54591  0.48631  0.03127  1.0000
  C   C1608     1.0  0.85657  0.39513  0.47441  1.0000
  C   C1609     1.0  0.74821  0.42476  0.47655  1.0000
  C   C1610     1.0  0.57321  0.44599  0.48028  1.0000
  S   S209      1.0  0.91535  0.37909  0.48194  1.0000
  S   S210      1.0  0.50803  0.28583  0.00150  1.0000
  C   C1611     1.0  0.78888  0.41129  0.47558  1.0000
  C   C1612     1.0  0.55512  0.37948  0.48556  1.0000
  H   H1289     1.0  0.48816  0.46525  0.10488  1.0000
  H   H1290     1.0  0.49069  0.46032  0.33605  1.0000
  H   H1291     1.0  0.59118  0.49012  0.22636  1.0000
  H   H1292     1.0  0.59767  0.49079  0.08789  1.0000
  C   C1613     1.0  0.66444  0.24324  0.46474  1.0000
  S   S211      1.0  0.98535  0.41768  0.16654  1.0000
  H   H1293     1.0  0.54647  0.24690  0.46783  1.0000
  C   C1614     1.0  0.66524  0.24499  0.42771  1.0000
  C   C1615     1.0  0.53691  0.24627  0.44644  1.0000
  C   C1616     1.0  0.71062  0.40751  0.98795  1.0000
  H   H1294     1.0  0.49296  0.40037  0.49099  1.0000
  Fe  Fe110     1.0  0.80574  0.32266  0.51641  1.0000
  S   S212      1.0  0.80794  0.34282  0.56058  1.0000
  H   H1295     1.0  0.72376  0.44414  0.59894  1.0000
  Fe  Fe111     1.0  0.76399  0.29834  0.52845  1.0000
  S   S213      1.0  0.76392  0.31769  0.57349  1.0000
  C   C1617     1.0  0.58689  0.41446  0.97222  1.0000
  Fe  Fe112     1.0  0.78110  0.34087  0.53871  1.0000
  C   C1618     1.0  0.76019  0.40927  0.60423  1.0000
  Fe  Fe113     1.0  0.79085  0.31844  0.59305  1.0000
  S   S214      1.0  0.80239  0.32257  0.65158  1.0000
  C   C1619     1.0  0.66476  0.24854  0.54943  1.0000
  S   S215      1.0  0.79031  0.29783  0.54963  1.0000
  Fe  Fe114     1.0  0.64768  0.47877  0.58238  1.0000
  C   C1620     1.0  0.56992  0.42039  0.88366  1.0000
  Fe  Fe115     1.0  0.62174  0.44366  0.54108  1.0000
  C   C1621     1.0  0.52153  0.37969  0.93293  1.0000
  H   H1296     1.0  0.66903  0.42665  0.53812  1.0000
  Fe  Fe116     1.0  0.66137  0.46576  0.51624  1.0000
  C   C1622     1.0  0.82200  0.30768  0.83078  1.0000
  S   S216      1.0  0.64970  0.45260  0.56791  1.0000
  S   S217      1.0  0.61880  0.46886  0.55940  1.0000
  Fe  Fe117     1.0  0.77215  0.29108  0.94316  1.0000
  S   S218      1.0  0.75878  0.30444  0.90857  1.0000
  C   C1623     1.0  0.54278  0.47719  0.50203  1.0000
  Fe  Fe118     1.0  0.81102  0.32521  0.93874  1.0000
  S   S219      1.0  0.79918  0.33977  0.90274  1.0000
  H   H1297     1.0  0.71011  0.44730  0.80679  1.0000
  Fe  Fe119     1.0  0.77623  0.33070  0.94071  1.0000
  H   H1298     1.0  0.79716  0.38059  0.61560  1.0000
  Fe  Fe120     1.0  0.78300  0.31248  0.87289  1.0000
  S   S220      1.0  0.77464  0.30720  0.81230  1.0000
  C   C1624     1.0  0.63520  0.46593  0.68177  1.0000
  S   S221      1.0  0.79606  0.29804  0.90640  1.0000
  C   C1625     1.0  0.64686  0.42489  0.64339  1.0000
  Fe  Fe121     1.0  0.66736  0.47205  0.90995  1.0000
  S   S222      1.0  0.64984  0.44760  0.87342  1.0000
  S   S223      1.0  0.69856  0.47989  0.91408  1.0000
  S   S224      1.0  0.61526  0.45705  0.88736  1.0000
  Fe  Fe122     1.0  0.62803  0.44081  0.91390  1.0000
  S   S225      1.0  0.61115  0.41061  0.92568  1.0000
  Fe  Fe123     1.0  0.63816  0.46546  0.84881  1.0000
  H   H1299     1.0  0.92843  0.43367  0.56764  1.0000
  S   S226      1.0  0.64628  0.46393  0.95236  1.0000
  H   H1300     1.0  0.97253  0.40376  0.92503  1.0000
  C   C1626     1.0  0.75722  0.39212  0.58920  1.0000
  C   C1627     1.0  0.50890  0.36368  0.55051  1.0000
  H   H1301     1.0  0.74673  0.26264  0.83271  1.0000
  C   C1628     1.0  0.78733  0.25329  0.86682  1.0000
  C   C1629     1.0  0.59193  0.40240  0.95317  1.0000
  C   C1630     1.0  0.49808  0.40970  0.93624  1.0000
  C   C1631     1.0  0.75755  0.48545  0.57768  1.0000
  C   C1632     1.0  0.73117  0.42214  0.48946  1.0000
  C   C1633     1.0  0.75667  0.25072  0.87377  1.0000
  H   H1302     1.0  0.81063  0.36484  0.65446  1.0000
  H   H1303     1.0  0.73141  0.24240  0.53962  1.0000
  C   C1634     1.0  0.73972  0.41180  0.55833  1.0000
  H   H1304     1.0  0.82109  0.40589  0.94808  1.0000
  H   H1305     1.0  0.80179  0.37216  0.94322  1.0000
  C   C1635     1.0  0.78842  0.26181  0.83421  1.0000
  H   H1306     1.0  0.53824  0.40539  0.50113  1.0000
  H   H1307     1.0  0.78083  0.24966  0.75628  1.0000
  C   C1636     1.0  0.64951  0.48365  0.67940  1.0000
  C   C1637     1.0  0.63748  0.46922  0.74741  1.0000
  C   C1638     1.0  0.65206  0.48679  0.74506  1.0000
  H   H1308     1.0  0.98104  0.38431  0.88438  1.0000
  H   H1309     1.0  0.79893  0.25154  0.87772  1.0000
  S   S227      1.0  0.81518  0.43574  0.97673  1.0000
  C   C1639     1.0  0.49981  0.49014  0.96630  1.0000
  H   H1310     1.0  0.90879  0.40094  0.54914  1.0000
  C   C1640     1.0  0.71047  0.47088  0.97885  1.0000
  H   H1311     1.0  0.95933  0.46194  0.92706  1.0000
  H   H1312     1.0  0.50624  0.38773  0.53555  1.0000
  C   C1641     1.0  0.79383  0.31915  0.69579  1.0000
  C   C1642     1.0  0.80600  0.32852  0.72511  1.0000
  C   C1643     1.0  0.80037  0.32540  0.76073  1.0000
  C   C1644     1.0  0.78248  0.31255  0.76778  1.0000
  C   C1645     1.0  0.77025  0.30334  0.73844  1.0000
  C   C1646     1.0  0.77580  0.30666  0.70276  1.0000
  H   H1313     1.0  0.81998  0.33819  0.72024  1.0000
  H   H1314     1.0  0.80992  0.33290  0.78270  1.0000
  H   H1315     1.0  0.75637  0.29342  0.74335  1.0000
  H   H1316     1.0  0.76627  0.29920  0.68074  1.0000
  P   P56       1.0  0.80958  0.27067  0.81090  1.0000
  C   C1647     1.0  0.72899  0.38128  0.94159  1.0000
  C   C1648     1.0  0.67665  0.41912  0.54645  1.0000
  C   C1649     1.0  0.50445  0.48889  0.57357  1.0000
  C   C1650     1.0  0.55856  0.44293  0.89818  1.0000
  H   H1317     1.0  0.76958  0.41507  0.62731  1.0000
  C   C1651     1.0  0.81643  0.29309  0.71239  1.0000
  C   C1652     1.0  0.74024  0.44843  0.55251  1.0000
  H   H1318     1.0  0.84039  0.46107  0.58024  1.0000
  C   C1653     1.0  0.71494  0.47779  0.94473  1.0000
  C   C1654     1.0  0.68539  0.39140  0.67026  1.0000
  C   C1655     1.0  0.92731  0.48324  0.96815  1.0000
  C   C1656     1.0  0.50627  0.36995  0.95308  1.0000
  C   C1657     1.0  0.69720  0.26704  0.56544  1.0000
  H   H1319     1.0  0.62199  0.41518  0.61004  1.0000
  C   C1658     1.0  0.81915  0.29016  0.74826  1.0000
  C   C1659     1.0  0.90595  0.44114  0.56639  1.0000
  C   C1660     1.0  0.51146  0.25494  0.97605  1.0000
  H   H1320     1.0  0.67217  0.28951  0.59058  1.0000
  C   C1661     1.0  0.69634  0.39961  0.56689  1.0000
  H   H1321     1.0  0.81631  0.37672  0.51743  1.0000
  C   C1662     1.0  0.57510  0.45622  0.51196  1.0000
  Fe  Fe124     1.0  0.63433  0.48085  0.92359  1.0000
  H   H1322     1.0  0.62871  0.45774  0.65759  1.0000
  H   H1323     1.0  0.51845  0.45650  0.89036  1.0000
  C   C1663     1.0  0.48784  0.47891  0.58991  1.0000
  H   H1324     1.0  0.79852  0.28328  0.66520  1.0000
  H   H1325     1.0  0.82612  0.30534  0.70001  1.0000
  P   P57       1.0  0.73288  0.41690  0.92944  1.0000
  C   C1664     1.0  0.73320  0.48359  0.93450  1.0000
  C   C1665     1.0  0.82434  0.29171  0.83580  1.0000
  C   C1666     1.0  0.77359  0.26499  0.82197  1.0000
  H   H1326     1.0  0.70156  0.43803  0.52362  1.0000
  C   C1667     1.0  0.84429  0.39264  0.50177  1.0000
  C   C1668     1.0  0.53963  0.38750  0.59279  1.0000
  H   H1327     1.0  0.54240  0.36307  0.60632  1.0000
  P   P58       1.0  0.53622  0.41923  0.57380  1.0000
  C   C1669     1.0  0.48669  0.41514  0.91613  1.0000
  C   C1670     1.0  0.55034  0.42971  0.53667  1.0000
  C   C1671     1.0  0.56365  0.44818  0.54001  1.0000
  H   H1328     1.0  0.49490  0.44431  0.52418  1.0000
  H   H1329     1.0  0.77594  0.25534  0.69323  1.0000
  H   H1330     1.0  0.98226  0.46836  0.87992  1.0000
  C   C1672     1.0  0.73509  0.39604  0.91855  1.0000
  H   H1331     1.0  0.58515  0.37386  0.94101  1.0000
  H   H1332     1.0  0.83851  0.27966  0.86805  1.0000
  C   C1673     1.0  0.88380  0.40422  0.54610  1.0000
  C   C1674     1.0  0.50137  0.25916  0.50175  1.0000
  C   C1675     1.0  0.56821  0.43345  0.61757  1.0000
  H   H1333     1.0  0.57200  0.44610  0.81210  1.0000
  C   C1676     1.0  0.52030  0.37676  0.89583  1.0000
  H   H1334     1.0  0.74849  0.40596  0.86901  1.0000
  H   H1335     1.0  0.52554  0.41692  0.95638  1.0000
  H   H1336     1.0  0.50727  0.37213  0.98192  1.0000
  H   H1337     1.0  0.55173  0.39639  0.60890  1.0000
  H   H1338     1.0  0.56541  0.45636  0.56442  1.0000
  C   C1677     1.0  0.70502  0.41574  0.54794  1.0000
  H   H1339     1.0  0.49230  0.46115  0.96478  1.0000
  S   S228      1.0  0.80932  0.48125  0.98615  1.0000
  H   H1340     1.0  0.70368  0.39184  0.57499  1.0000
  C   C1678     1.0  0.48979  0.47195  0.95329  1.0000
  H   H1341     1.0  0.84675  0.27523  0.79959  1.0000
  H   H1342     1.0  0.68636  0.43972  0.90631  1.0000
  H   H1343     1.0  0.70982  0.38866  0.65710  1.0000
  C   C1679     1.0  0.70015  0.48483  0.60534  1.0000
  C   C1680     1.0  0.51524  0.42195  0.57079  1.0000
  H   H1344     1.0  0.52399  0.44152  0.52893  1.0000
  C   C1681     1.0  0.56148  0.44888  0.86304  1.0000
  C   C1682     1.0  0.58393  0.40382  0.51112  1.0000
  H   H1345     1.0  0.48718  0.30901  0.75182  1.0000
  C   C1683     1.0  0.88702  0.43496  0.55980  1.0000
  H   H1346     1.0  0.65376  0.39814  0.57169  1.0000
  C   C1684     1.0  0.51004  0.26503  0.87948  1.0000
  H   H1347     1.0  0.74465  0.24694  0.88963  1.0000
  C   C1685     1.0  0.66807  0.40307  0.56531  1.0000
  H   H1348     1.0  0.64699  0.26112  0.56359  1.0000
  H   H1349     1.0  0.52818  0.43437  0.64062  1.0000
  H   H1350     1.0  0.52586  0.26434  0.97465  1.0000
  H   H1351     1.0  0.73692  0.48888  0.90825  1.0000
  C   C1686     1.0  0.54822  0.41967  0.50435  1.0000
  H   H1352     1.0  0.87539  0.38988  0.53817  1.0000
  C   C1687     1.0  0.86199  0.35000  0.51004  1.0000
  S   S229      1.0  0.62915  0.45935  0.78906  1.0000
  C   C1688     1.0  0.56673  0.38891  0.51544  1.0000
  H   H1353     1.0  0.80028  0.47698  0.89534  1.0000
  C   C1689     1.0  0.78807  0.26494  0.70856  1.0000
  H   H1354     1.0  0.85989  0.38701  0.59640  1.0000
  H   H1355     1.0  0.59336  0.44504  0.65018  1.0000
  C   C1690     1.0  0.83713  0.29203  0.86224  1.0000
  C   C1691     1.0  0.84796  0.30835  0.88216  1.0000
  C   C1692     1.0  0.84592  0.32434  0.87615  1.0000
  C   C1693     1.0  0.51308  0.43370  0.54616  1.0000
  H   H1356     1.0  0.51511  0.34194  0.56870  1.0000
  H   H1357     1.0  0.59488  0.42918  0.97043  1.0000
  C   C1694     1.0  0.80614  0.27472  0.76472  1.0000
  C   C1695     1.0  0.73342  0.24567  0.97494  1.0000
  H   H1358     1.0  0.76436  0.38466  0.60031  1.0000
  H   H1359     1.0  0.85412  0.33691  0.89196  1.0000
  C   C1696     1.0  0.83284  0.32397  0.85064  1.0000
  H   H1360     1.0  0.77443  0.27242  0.79797  1.0000
  P   P59       1.0  0.72888  0.42449  0.53701  1.0000
  C   C1697     1.0  0.53437  0.36851  0.59141  1.0000
  C   C1698     1.0  0.96630  0.47650  0.51652  1.0000
  C   C1699     1.0  0.71499  0.41715  0.66247  1.0000
  C   C1700     1.0  0.69329  0.28096  0.57990  1.0000
  C   C1701     1.0  0.50390  0.36378  0.87892  1.0000
  C   C1702     1.0  0.67792  0.39334  0.57557  1.0000
  C   C1703     1.0  0.91116  0.48021  0.49713  1.0000
  C   C1704     1.0  0.57126  0.48830  0.90761  1.0000
  C   C1705     1.0  0.69192  0.43046  0.89697  1.0000
  C   C1706     1.0  0.75421  0.43623  0.91938  1.0000
  C   C1707     1.0  0.77096  0.43523  0.92484  1.0000
  C   C1708     1.0  0.78743  0.44977  0.91562  1.0000
  C   C1709     1.0  0.78741  0.46558  0.90163  1.0000
  C   C1710     1.0  0.77086  0.46682  0.89659  1.0000
  C   C1711     1.0  0.75430  0.45220  0.90532  1.0000
  C   C1712     1.0  0.49630  0.25613  0.73365  1.0000
  H   H1361     1.0  0.54746  0.45026  0.69444  1.0000
  C   C1713     1.0  0.83569  0.45566  0.52342  1.0000
  C   C1714     1.0  0.84505  0.43786  0.56301  1.0000
  H   H1362     1.0  0.96270  0.47384  0.83526  1.0000
  C   C1715     1.0  0.71392  0.41772  0.90424  1.0000
  C   C1716     1.0  0.70616  0.40643  0.87325  1.0000
  C   C1717     1.0  0.69137  0.40719  0.85433  1.0000
  C   C1718     1.0  0.68424  0.41917  0.86622  1.0000
  C   C1719     1.0  0.67515  0.27868  0.57937  1.0000
  H   H1363     1.0  0.49234  0.39637  0.94804  1.0000
  P   P60       1.0  0.67921  0.43871  0.68647  1.0000
  H   H1364     1.0  0.55791  0.36153  0.97888  1.0000
  H   H1365     1.0  0.70491  0.43725  0.74300  1.0000
  H   H1366     1.0  0.49189  0.26595  0.72315  1.0000
  C   C1720     1.0  0.79653  0.38097  0.95566  1.0000
  H   H1367     1.0  0.50166  0.40195  0.61045  1.0000
  H   H1368     1.0  0.80030  0.44888  0.91991  1.0000
  C   C1721     1.0  0.70667  0.42975  0.91593  1.0000
  H   H1369     1.0  0.76090  0.48805  0.95013  1.0000
  H   H1370     1.0  0.74171  0.45354  0.90132  1.0000
  H   H1371     1.0  0.92550  0.47408  0.94516  1.0000
  H   H1372     1.0  0.53726  0.25003  0.80776  1.0000
  C   C1722     1.0  0.52956  0.39472  0.57287  1.0000
  C   C1723     1.0  0.48964  0.27695  0.90271  1.0000
  H   H1373     1.0  0.71136  0.39695  0.86378  1.0000
  H   H1374     1.0  0.68530  0.39832  0.83065  1.0000
  H   H1375     1.0  0.67267  0.41967  0.85183  1.0000
  C   C1724     1.0  0.73169  0.36567  0.93357  1.0000
  C   C1725     1.0  0.79081  0.26188  0.74435  1.0000
  C   C1726     1.0  0.52439  0.43855  0.92513  1.0000
  C   C1727     1.0  0.51421  0.38262  0.55151  1.0000
  H   H1376     1.0  0.68714  0.47817  0.69110  1.0000
  C   C1728     1.0  0.80748  0.40011  0.95857  1.0000
  C   C1729     1.0  0.75463  0.46158  0.53393  1.0000
  H   H1377     1.0  0.62579  0.24684  0.50175  1.0000
  C   C1730     1.0  0.51956  0.48515  0.58056  1.0000
  C   C1731     1.0  0.65450  0.42709  0.67832  1.0000
  C   C1732     1.0  0.68452  0.44733  0.73267  1.0000
  C   C1733     1.0  0.67490  0.45627  0.74827  1.0000
  C   C1734     1.0  0.67777  0.46172  0.78458  1.0000
  C   C1735     1.0  0.69049  0.45852  0.80563  1.0000
  H   H1378     1.0  0.65555  0.42976  0.62096  1.0000
  C   C1736     1.0  0.75145  0.41910  0.58892  1.0000
  C   C1737     1.0  0.98575  0.46907  0.85212  1.0000
  H   H1379     1.0  0.76007  0.42846  0.49470  1.0000
  C   C1738     1.0  0.61617  0.40998  0.66546  1.0000
  C   C1739     1.0  0.62362  0.41161  0.70022  1.0000
  C   C1740     1.0  0.64270  0.41999  0.70664  1.0000
  P   P61       1.0  0.54880  0.45300  0.92984  1.0000
  H   H1380     1.0  0.55803  0.45970  0.85445  1.0000
  C   C1741     1.0  0.90270  0.41043  0.55256  1.0000
  S   S230      1.0  0.59784  0.41588  0.54925  1.0000
  H   H1381     1.0  0.71131  0.26891  0.56520  1.0000
  C   C1742     1.0  0.84524  0.42668  0.53382  1.0000
  H   H1382     1.0  0.69259  0.46267  0.83389  1.0000
  H   H1383     1.0  0.77138  0.42322  0.93614  1.0000
  H   H1384     1.0  0.96341  0.46974  0.54169  1.0000
  H   H1385     1.0  0.83075  0.33617  0.84696  1.0000
  H   H1386     1.0  0.66988  0.46816  0.79654  1.0000
  C   C1743     1.0  0.70035  0.44987  0.79030  1.0000
  C   C1744     1.0  0.57161  0.44865  0.67577  1.0000
  C   C1745     1.0  0.81940  0.25455  0.80987  1.0000
  H   H1387     1.0  0.50333  0.36161  0.85024  1.0000
  C   C1746     1.0  0.49409  0.43211  0.90004  1.0000
  H   H1388     1.0  0.60140  0.40369  0.66048  1.0000
  H   H1389     1.0  0.61463  0.40664  0.72235  1.0000
  H   H1390     1.0  0.64809  0.42104  0.73381  1.0000
  H   H1391     1.0  0.56235  0.38475  0.54198  1.0000
  H   H1392     1.0  0.58009  0.45568  0.69946  1.0000
  C   C1747     1.0  0.97444  0.47192  0.82667  1.0000
  C   C1748     1.0  0.62779  0.41648  0.63704  1.0000
  Fe  Fe125     1.0  0.63171  0.48074  0.50801  1.0000
  H   H1393     1.0  0.67688  0.37667  0.67077  1.0000
  H   H1394     1.0  0.91461  0.45547  0.57417  1.0000
  S   S231      1.0  0.75661  0.26155  0.96485  1.0000
  H   H1395     1.0  0.58572  0.47029  0.51482  1.0000
  C   C1749     1.0  0.71891  0.25066  0.97562  1.0000
  C   C1750     1.0  0.49557  0.25200  0.85747  1.0000
  C   C1751     1.0  0.78578  0.39999  0.50505  1.0000
  H   H1396     1.0  0.49697  0.35450  0.53411  1.0000
  C   C1752     1.0  0.62912  0.45888  0.71552  1.0000
  C   C1753     1.0  0.97821  0.47220  0.79047  1.0000
  C   C1754     1.0  0.55448  0.47677  0.92219  1.0000
  H   H1397     1.0  0.84856  0.43536  0.58980  1.0000
  H   H1398     1.0  0.81143  0.30735  0.81212  1.0000
  C   C1755     1.0  0.57560  0.45580  0.98087  1.0000
  H   H1399     1.0  0.57350  0.40957  0.89185  1.0000
  H   H1400     1.0  0.74322  0.35285  0.89737  1.0000
  S   S232      1.0  0.77780  0.36749  0.53791  1.0000
  C   C1756     1.0  0.54230  0.43646  0.64232  1.0000
  C   C1757     1.0  0.55323  0.44558  0.67289  1.0000
  H   H1401     1.0  0.85489  0.34682  0.53479  1.0000
  H   H1402     1.0  0.88132  0.44473  0.56253  1.0000
  C   C1758     1.0  0.56239  0.42829  0.90801  1.0000
  H   H1403     1.0  0.88871  0.36602  0.53605  1.0000
  C   C1759     1.0  0.74329  0.47247  0.59645  1.0000
  H   H1404     1.0  0.66341  0.39813  0.68348  1.0000
  H   H1405     1.0  0.75914  0.45795  0.50933  1.0000
  C   C1760     1.0  0.98254  0.41007  0.90493  1.0000
  C   C1761     1.0  0.78236  0.38143  0.50028  1.0000
  H   H1406     1.0  0.77087  0.47922  0.88634  1.0000
  H   H1407     1.0  0.84191  0.36819  0.64459  1.0000
  H   H1408     1.0  0.55980  0.42311  0.93462  1.0000
  C   C1762     1.0  0.83897  0.39524  0.57855  1.0000
  C   C1763     1.0  0.70395  0.39815  0.66262  1.0000
  H   H1409     1.0  0.66476  0.45856  0.73252  1.0000
  S   S233      1.0  0.84106  0.34469  0.95853  1.0000
  H   H1410     1.0  0.52352  0.26534  0.88036  1.0000
  C   C1764     1.0  0.96331  0.47033  0.95163  1.0000
  C   C1765     1.0  0.82624  0.37868  0.49737  1.0000
  C   C1766     1.0  0.80083  0.28059  0.69265  1.0000
  C   C1767     1.0  0.70747  0.42941  0.66985  1.0000
  C   C1768     1.0  0.53837  0.49134  0.51368  1.0000
  C   C1769     1.0  0.83637  0.37561  0.62833  1.0000
  C   C1770     1.0  0.51686  0.42137  0.94088  1.0000
  H   H1411     1.0  0.96931  0.47423  0.77078  1.0000
  H   H1412     1.0  0.53218  0.38438  0.88031  1.0000
  H   H1413     1.0  0.58111  0.48315  0.90084  1.0000
  H   H1414     1.0  0.58464  0.45796  0.95887  1.0000
  C   C1771     1.0  0.68822  0.45710  0.65543  1.0000
  C   C1772     1.0  0.51736  0.47043  0.60216  1.0000
  C   C1773     1.0  0.50265  0.24655  0.71050  1.0000
  H   H1415     1.0  0.72764  0.35456  0.95196  1.0000
  S   S234      1.0  0.73741  0.27568  0.49994  1.0000
  C   C1774     1.0  0.97134  0.48957  0.95054  1.0000
  C   C1775     1.0  0.66090  0.26255  0.56405  1.0000
  C   C1776     1.0  0.56911  0.44101  0.83878  1.0000
  C   C1777     1.0  0.76326  0.47998  0.54659  1.0000
  C   C1778     1.0  0.49647  0.43502  0.54283  1.0000
  C   C1779     1.0  0.57342  0.42685  0.84915  1.0000
  C   C1780     1.0  0.87609  0.36992  0.98332  1.0000
  C   C1781     1.0  0.71982  0.48485  0.49233  1.0000
  C   C1782     1.0  0.81114  0.38265  0.61219  1.0000
  C   C1783     1.0  0.81869  0.37375  0.63399  1.0000
  C   C1784     1.0  0.83569  0.44451  0.49427  1.0000
  H   H1416     1.0  0.77417  0.49007  0.53168  1.0000
  C   C1785     1.0  0.75780  0.25946  0.84167  1.0000
  C   C1786     1.0  0.82122  0.39336  0.58464  1.0000
  C   C1787     1.0  0.68875  0.42273  0.67689  1.0000
  C   C1788     1.0  0.84037  0.45234  0.55776  1.0000
  C   C1789     1.0  0.84648  0.38628  0.60072  1.0000
  H   H1417     1.0  0.81478  0.39950  0.56716  1.0000
  S   S235      1.0  0.77946  0.32188  0.49270  1.0000
  H   H1418     1.0  0.70038  0.46411  0.56840  1.0000
  C   C1790     1.0  0.50702  0.27739  0.90204  1.0000
  H   H1419     1.0  0.53436  0.38937  0.94618  1.0000
  C   C1791     1.0  0.51294  0.44366  0.90398  1.0000
  C   C1792     1.0  0.87576  0.41638  0.54977  1.0000
  C   C1793     1.0  0.48987  0.35700  0.93627  1.0000
  C   C1794     1.0  0.69049  0.47491  0.66494  1.0000
  C   C1795     1.0  0.54970  0.43026  0.61443  1.0000
  H   H1420     1.0  0.51219  0.26980  0.51828  1.0000
  C   C1796     1.0  0.54300  0.48441  0.93437  1.0000
  C   C1797     1.0  0.74686  0.48295  0.95810  1.0000
  H   H1421     1.0  0.49916  0.44943  0.63576  1.0000
  C   C1798     1.0  0.58135  0.38329  0.95568  1.0000
  H   H1422     1.0  0.78606  0.40566  0.53166  1.0000
  H   H1423     1.0  0.85770  0.30860  0.90283  1.0000
  C   C1799     1.0  0.91376  0.42887  0.56285  1.0000
  P   P62       1.0  0.85125  0.40798  0.54103  1.0000
  H   H1424     1.0  0.75425  0.43251  0.60053  1.0000
  C   C1800     1.0  0.55738  0.45296  0.97468  1.0000
  C   C1801     1.0  0.67779  0.40363  0.67745  1.0000
  H   H1425     1.0  0.72781  0.38862  0.51990  1.0000
  C   C1802     1.0  0.57909  0.44261  0.64808  1.0000
  H   H1426     1.0  0.56478  0.24803  0.83254  1.0000
  C   C1803     1.0  0.50078  0.46063  0.61877  1.0000
  H   H1427     1.0  0.61790  0.44525  0.71697  1.0000
  C   C1804     1.0  0.73474  0.45403  0.58404  1.0000
  C   C1805     1.0  0.69736  0.44424  0.75400  1.0000
  H   H1428     1.0  0.54770  0.47042  0.52096  1.0000
  S   S236      1.0  0.78827  0.31708  0.97775  1.0000
  H   H1429     1.0  0.75346  0.37842  0.85570  1.0000
  S   S237      1.0  0.65671  0.49070  0.88311  1.0000
  H   H1430     1.0  0.90800  0.47281  0.52156  1.0000
  C   C1806     1.0  0.80095  0.41178  0.97482  1.0000
  C   C1807     1.0  0.69794  0.46718  0.59559  1.0000
  H   H1431     1.0  0.57984  0.42113  0.83073  1.0000
  C   C1808     1.0  0.73664  0.39445  0.54371  1.0000
  H   H1432     1.0  0.67123  0.38084  0.59002  1.0000
  C   C1809     1.0  0.50042  0.41136  0.59170  1.0000
  H   H1433     1.0  0.71624  0.44411  0.67009  1.0000
  H   H1434     1.0  0.83130  0.30008  0.76303  1.0000
  C   C1810     1.0  0.74636  0.37914  0.87933  1.0000
  C   C1811     1.0  0.56592  0.37625  0.97713  1.0000
  C   C1812     1.0  0.51904  0.35661  0.57020  1.0000
  C   C1813     1.0  0.88124  0.36097  0.51063  1.0000
  C   C1814     1.0  0.74356  0.39472  0.88707  1.0000
  C   C1815     1.0  0.74051  0.36468  0.90267  1.0000
  H   H1435     1.0  0.83215  0.46695  0.51929  1.0000
  H   H1436     1.0  0.72263  0.38189  0.96622  1.0000
  H   H1437     1.0  0.52829  0.46635  0.60606  1.0000
  C   C1816     1.0  0.69206  0.45338  0.62052  1.0000
  H   H1438     1.0  0.51797  0.28682  0.92028  1.0000
  C   C1817     1.0  0.84566  0.24821  0.80057  1.0000
  C   C1818     1.0  0.77882  0.37333  0.96850  1.0000
  H   H1439     1.0  0.72942  0.42236  0.65690  1.0000
  H   H1440     1.0  0.57433  0.42897  0.59624  1.0000
  C   C1819     1.0  0.84042  0.43004  0.49937  1.0000
  H   H1441     1.0  0.71246  0.43864  0.93974  1.0000
  H   H1442     1.0  0.68999  0.43968  0.61216  1.0000
  C   C1820     1.0  0.74539  0.38470  0.55907  1.0000
  C   C1821     1.0  0.68299  0.25084  0.55055  1.0000
  C   C1822     1.0  0.69507  0.42551  0.53809  1.0000
  C   C1823     1.0  0.83808  0.26073  0.80309  1.0000
  H   H1443     1.0  0.53057  0.47618  0.94791  1.0000
  H   H1444     1.0  0.70439  0.29354  0.59127  1.0000
  H   H1445     1.0  0.48729  0.28604  0.92150  1.0000
  H   H1446     1.0  0.74348  0.37158  0.54701  1.0000
  H   H1447     1.0  0.92571  0.44135  0.49455  1.0000
  S   S238      1.0  0.76459  0.34933  0.96462  1.0000
  H   H1448     1.0  0.87154  0.38022  0.97665  1.0000
  C   C1824     1.0  0.72143  0.25171  0.49437  1.0000
  H   H1449     1.0  0.50310  0.24887  0.68210  1.0000
  C   C1825     1.0  0.69653  0.48871  0.64002  1.0000
  C   C1826     1.0  0.49541  0.25286  0.77023  1.0000
  H   H1450     1.0  0.73879  0.47676  0.62045  1.0000
  H   H1451     1.0  0.95623  0.49093  0.72047  1.0000
  C   C1827     1.0  0.77143  0.24763  0.88633  1.0000
  C   C1828     1.0  0.86385  0.35111  0.97715  1.0000
  H   H1452     1.0  0.72147  0.26456  0.96951  1.0000
  C   C1829     1.0  0.96009  0.46191  0.98460  1.0000
  C   C1830     1.0  0.48862  0.35359  0.89914  1.0000
  H   H1453     1.0  0.86012  0.25309  0.79560  1.0000
  C   C1831     1.0  0.77226  0.38503  0.98472  1.0000
  H   H1454     1.0  0.86092  0.32352  0.98159  1.0000
  H   H1455     1.0  0.69963  0.39871  0.96918  1.0000
  C   C1832     1.0  0.87006  0.33801  0.98602  1.0000
  H   H1456     1.0  0.95343  0.44707  0.98533  1.0000
  C   C1833     1.0  0.72844  0.41793  0.97626  1.0000
  H   H1457     1.0  0.49026  0.26026  0.78760  1.0000
  H   H1458     1.0  0.87006  0.48743  0.74853  1.0000
  C   C1834     1.0  0.53617  0.24243  0.83159  1.0000
  S   S239      1.0  0.63321  0.45481  0.48866  1.0000
  H   H1459     1.0  0.69015  0.24200  0.98544  1.0000
  S   S240      1.0  0.68270  0.45863  0.48820  1.0000
  H   H1460     1.0  0.54177  0.36825  0.48931  1.0000
  H   H1461     1.0  0.69655  0.46627  0.98729  1.0000
  H   H1462     1.0  0.63392  0.53280  0.36474  1.0000
  C   C1835     1.0  0.50483  0.67986  0.04571  1.0000
  C   C1836     1.0  0.55602  0.63237  0.46901  1.0000
  C   C1837     1.0  0.88196  0.53025  0.46572  1.0000
  C   C1838     1.0  0.63836  0.53913  0.39132  1.0000
  C   C1839     1.0  0.70379  0.51279  0.44341  1.0000
  C   C1840     1.0  0.81873  0.49545  0.23105  1.0000
  Fe  Fe126     1.0  0.51971  0.52345  0.38319  1.0000
  C   C1841     1.0  0.89729  0.50788  0.14132  1.0000
  Fe  Fe127     1.0  0.54832  0.54508  0.33049  1.0000
  S   S241      1.0  0.56398  0.56795  0.37204  1.0000
  S   S242      1.0  0.55598  0.53913  0.27496  1.0000
  Fe  Fe128     1.0  0.55942  0.54532  0.41037  1.0000
  S   S243      1.0  0.57991  0.54530  0.45379  1.0000
  Fe  Fe129     1.0  0.53603  0.56528  0.38747  1.0000
  S   S244      1.0  0.53001  0.59055  0.39350  1.0000
  S   S245      1.0  0.54593  0.52292  0.36808  1.0000
  S   S246      1.0  0.52093  0.54392  0.34302  1.0000
  Fe  Fe130     1.0  0.83178  0.49779  0.02758  1.0000
  S   S247      1.0  0.51873  0.54421  0.03549  1.0000
  H   H1463     1.0  0.65382  0.50722  0.44388  1.0000
  Fe  Fe131     1.0  0.56783  0.55542  0.00316  1.0000
  S   S248      1.0  0.55551  0.53705  0.04883  1.0000
  C   C1842     1.0  0.61293  0.52053  0.08902  1.0000
  Fe  Fe132     1.0  0.53002  0.52556  0.01323  1.0000
  H   H1464     1.0  0.49826  0.49793  0.06936  1.0000
  Fe  Fe133     1.0  0.54570  0.55781  0.06723  1.0000
  S   S249      1.0  0.54395  0.56800  0.12395  1.0000
  H   H1465     1.0  0.91969  0.54788  0.06164  1.0000
  S   S250      1.0  0.56011  0.57772  0.02420  1.0000
  H   H1466     1.0  0.72894  0.58812  0.39741  1.0000
  C   C1843     1.0  0.55146  0.54678  0.23340  1.0000
  C   C1844     1.0  0.54644  0.56121  0.23113  1.0000
  C   C1845     1.0  0.54412  0.56747  0.19740  1.0000
  C   C1846     1.0  0.54657  0.55927  0.16564  1.0000
  C   C1847     1.0  0.55101  0.54446  0.16791  1.0000
  C   C1848     1.0  0.55362  0.53840  0.20164  1.0000
  H   H1467     1.0  0.54480  0.56785  0.25532  1.0000
  H   H1468     1.0  0.54062  0.57890  0.19593  1.0000
  H   H1469     1.0  0.55282  0.53803  0.14364  1.0000
  H   H1470     1.0  0.55750  0.52727  0.20343  1.0000
  H   H1471     1.0  0.92248  0.53789  0.34115  1.0000
  H   H1472     1.0  0.57951  0.51606  0.40514  1.0000
  C   C1849     1.0  0.60558  0.50463  0.46423  1.0000
  C   C1850     1.0  0.97572  0.56764  0.41731  1.0000
  H   H1473     1.0  0.71767  0.51402  0.44435  1.0000
  H   H1474     1.0  0.98502  0.54801  0.16410  1.0000
  H   H1475     1.0  0.70323  0.55802  0.40881  1.0000
  C   C1851     1.0  0.61671  0.53692  0.18170  1.0000
  C   C1852     1.0  0.62906  0.54811  0.40765  1.0000
  C   C1853     1.0  0.54108  0.49699  0.11757  1.0000
  C   C1854     1.0  0.50007  0.59370  0.47788  1.0000
  H   H1476     1.0  0.62736  0.56310  0.45455  1.0000
  H   H1477     1.0  0.53056  0.49603  0.13574  1.0000
  H   H1478     1.0  0.96357  0.52532  0.37845  1.0000
  C   C1855     1.0  0.63473  0.55628  0.44192  1.0000
  C   C1856     1.0  0.97431  0.50790  0.11654  1.0000
  H   H1479     1.0  0.77346  0.50472  0.36216  1.0000
  H   H1480     1.0  0.57129  0.61635  0.46765  1.0000
  H   H1481     1.0  0.92644  0.51671  0.14245  1.0000
  H   H1482     1.0  0.62405  0.55004  0.16951  1.0000
  P   P63       1.0  0.59699  0.52452  0.11652  1.0000
  H   H1483     1.0  0.89645  0.50704  0.17006  1.0000
  C   C1857     1.0  0.51422  0.61283  0.41669  1.0000
  C   C1858     1.0  0.68906  0.49586  0.43331  1.0000
  H   H1484     1.0  0.73731  0.61466  0.44065  1.0000
  C   C1859     1.0  0.62101  0.53511  0.21735  1.0000
  C   C1860     1.0  0.94059  0.57317  0.04414  1.0000
  S   S251      1.0  0.53278  0.54444  0.42868  1.0000
  C   C1861     1.0  0.49336  0.50167  0.09343  1.0000
  H   H1485     1.0  0.86605  0.52856  0.34063  1.0000
  C   C1862     1.0  0.64166  0.53206  0.05840  1.0000
  H   H1486     1.0  0.82215  0.50986  0.23605  1.0000
  C   C1863     1.0  0.57339  0.50891  0.10446  1.0000
  C   C1864     1.0  0.87983  0.53152  0.99390  1.0000
  C   C1865     1.0  0.92067  0.49631  0.32486  1.0000
  C   C1866     1.0  0.93105  0.50659  0.46459  1.0000
  H   H1487     1.0  0.87040  0.50282  0.06651  1.0000
  H   H1488     1.0  0.56060  0.63833  0.44345  1.0000
  C   C1867     1.0  0.95978  0.50739  0.09475  1.0000
  C   C1868     1.0  0.51703  0.59718  0.42361  1.0000
  H   H1489     1.0  0.61733  0.54862  0.39396  1.0000
  C   C1869     1.0  0.96344  0.55549  0.04351  1.0000
  C   C1870     1.0  0.95450  0.52172  0.09721  1.0000
  C   C1871     1.0  0.89936  0.51049  0.06724  1.0000
  C   C1872     1.0  0.91428  0.51337  0.12554  1.0000
  H   H1490     1.0  0.87221  0.53233  0.44836  1.0000
  C   C1873     1.0  0.66785  0.50907  0.44297  1.0000
  C   C1874     1.0  0.59789  0.54703  0.11093  1.0000
  C   C1875     1.0  0.48714  0.51119  0.44507  1.0000
  C   C1876     1.0  0.87372  0.51308  0.37786  1.0000
  C   C1877     1.0  0.61173  0.51828  0.23351  1.0000
  H   H1491     1.0  0.93162  0.57989  0.04361  1.0000
  C   C1878     1.0  0.67109  0.49397  0.43339  1.0000
  C   C1879     1.0  0.58686  0.51614  0.42976  1.0000
  C   C1880     1.0  0.60111  0.55496  0.07739  1.0000
  C   C1881     1.0  0.60046  0.57176  0.07260  1.0000
  C   C1882     1.0  0.59606  0.58050  0.10088  1.0000
  C   C1883     1.0  0.59258  0.57259  0.13417  1.0000
  C   C1884     1.0  0.59347  0.55592  0.13922  1.0000
  C   C1885     1.0  0.92819  0.49856  0.35996  1.0000
  H   H1492     1.0  0.49764  0.58530  0.34618  1.0000
  C   C1886     1.0  0.48861  0.57719  0.05800  1.0000
  H   H1493     1.0  0.94493  0.52887  0.99048  1.0000
  C   C1887     1.0  0.97005  0.57366  0.03298  1.0000
  H   H1494     1.0  0.57857  0.50289  0.05054  1.0000
  H   H1495     1.0  0.48717  0.71304  0.18685  1.0000
  C   C1888     1.0  0.58851  0.52859  0.45788  1.0000
  C   C1889     1.0  0.93319  0.50714  0.02803  1.0000
  H   H1496     1.0  0.48888  0.72296  0.01297  1.0000
  H   H1497     1.0  0.86828  0.49992  0.13218  1.0000
  C   C1890     1.0  0.77625  0.49769  0.30744  1.0000
  H   H1498     1.0  0.88482  0.50000  0.41308  1.0000
  H   H1499     1.0  0.49432  0.68853  0.09055  1.0000
  C   C1891     1.0  0.49967  0.52172  0.14635  1.0000
  H   H1500     1.0  0.59479  0.49549  0.41023  1.0000
  H   H1501     1.0  0.60357  0.54797  0.05453  1.0000
  H   H1502     1.0  0.60277  0.57773  0.04656  1.0000
  H   H1503     1.0  0.59485  0.59314  0.09674  1.0000
  H   H1504     1.0  0.58856  0.57907  0.15575  1.0000
  H   H1505     1.0  0.59006  0.54975  0.16492  1.0000
  C   C1892     1.0  0.65326  0.53820  0.40934  1.0000
  H   H1506     1.0  0.51185  0.57561  0.46008  1.0000
  C   C1893     1.0  0.96178  0.53640  0.39169  1.0000
  C   C1894     1.0  0.93385  0.55491  0.05431  1.0000
  S   S252      1.0  0.51450  0.49494  0.00425  1.0000
  C   C1895     1.0  0.97352  0.49373  0.45128  1.0000
  C   C1896     1.0  0.62925  0.53530  0.07926  1.0000
  H   H1507     1.0  0.57995  0.52066  0.00312  1.0000
  C   C1897     1.0  0.94283  0.54901  0.41908  1.0000
  C   C1898     1.0  0.94432  0.53427  0.40124  1.0000
  C   C1899     1.0  0.88251  0.50531  0.08306  1.0000
  P   P64       1.0  0.92400  0.51257  0.39363  1.0000
  P   P65       1.0  0.93703  0.52234  0.06692  1.0000
  C   C1900     1.0  0.90552  0.51781  0.37793  1.0000
  C   C1901     1.0  0.59828  0.50319  0.21388  1.0000
  C   C1902     1.0  0.50344  0.67634  0.00874  1.0000
  C   C1903     1.0  0.87708  0.52561  0.35095  1.0000
  C   C1904     1.0  0.89470  0.53457  0.33791  1.0000
  C   C1905     1.0  0.90888  0.53077  0.35144  1.0000
  C   C1906     1.0  0.60284  0.52198  0.16216  1.0000
  C   C1907     1.0  0.60982  0.50243  0.07959  1.0000
  C   C1908     1.0  0.56830  0.50098  0.06973  1.0000
  C   C1909     1.0  0.93867  0.51421  0.99427  1.0000
  H   H1508     1.0  0.89999  0.51165  0.03856  1.0000
  C   C1910     1.0  0.91905  0.49992  0.43422  1.0000
  H   H1509     1.0  0.52192  0.60377  0.00539  1.0000
  C   C1911     1.0  0.88141  0.50387  0.12007  1.0000
  H   H1510     1.0  0.66045  0.53144  0.39601  1.0000
  C   C1912     1.0  0.75724  0.52220  0.00779  1.0000
  C   C1913     1.0  0.50974  0.58757  0.45428  1.0000
  P   P66       1.0  0.67819  0.54525  0.46760  1.0000
  H   H1511     1.0  0.63238  0.54935  0.08745  1.0000
  C   C1914     1.0  0.50434  0.61884  0.44006  1.0000
  H   H1512     1.0  0.92963  0.54757  0.42765  1.0000
  H   H1513     1.0  0.50919  0.53336  0.16309  1.0000
  C   C1915     1.0  0.76781  0.49451  0.34021  1.0000
  H   H1514     1.0  0.89738  0.54457  0.31751  1.0000
  H   H1515     1.0  0.73179  0.50778  0.03371  1.0000
  H   H1516     1.0  0.49869  0.59152  0.06049  1.0000
  H   H1517     1.0  0.95981  0.54755  0.12496  1.0000
  H   H1518     1.0  0.53898  0.64628  0.47716  1.0000
  H   H1519     1.0  0.56331  0.51302  0.15500  1.0000
  C   C1916     1.0  0.65872  0.54594  0.44421  1.0000
  H   H1520     1.0  0.58355  0.49313  0.16333  1.0000
  H   H1521     1.0  0.94332  0.51951  0.46456  1.0000
  H   H1522     1.0  0.51479  0.67744  0.06182  1.0000
  H   H1523     1.0  0.91176  0.50250  0.31726  1.0000
  C   C1917     1.0  0.95862  0.58249  0.03322  1.0000
  H   H1524     1.0  0.51985  0.52412  0.10812  1.0000
  C   C1918     1.0  0.55964  0.50663  0.12842  1.0000
  C   C1919     1.0  0.49054  0.67930  0.98784  1.0000
  H   H1525     1.0  0.98393  0.58078  0.02386  1.0000
  H   H1526     1.0  0.50459  0.56780  0.09145  1.0000
  H   H1527     1.0  0.51984  0.62045  0.39314  1.0000
  H   H1528     1.0  0.95717  0.57674  0.44157  1.0000
  C   C1920     1.0  0.64956  0.55530  0.46010  1.0000
  C   C1921     1.0  0.59554  0.50444  0.43279  1.0000
  C   C1922     1.0  0.50568  0.51647  0.11540  1.0000
  C   C1923     1.0  0.89947  0.54499  0.47420  1.0000
  C   C1924     1.0  0.73853  0.51667  0.01224  1.0000
  H   H1529     1.0  0.48718  0.72844  0.42164  1.0000
  H   H1530     1.0  0.82067  0.49782  0.17362  1.0000
  C   C1925     1.0  0.70692  0.56939  0.42823  1.0000
  S   S253      1.0  0.81641  0.49334  0.30425  1.0000
  H   H1531     1.0  0.71388  0.51723  0.99212  1.0000
  C   C1926     1.0  0.97738  0.55304  0.39964  1.0000
  C   C1927     1.0  0.70057  0.52790  0.45321  1.0000
  H   H1532     1.0  0.98006  0.51867  0.48230  1.0000
  H   H1533     1.0  0.97642  0.50048  0.42611  1.0000
  S   S254      1.0  0.85801  0.52367  0.01458  1.0000
  C   C1928     1.0  0.49194  0.56383  0.07545  1.0000
  H   H1534     1.0  0.86022  0.50659  0.38888  1.0000
  H   H1535     1.0  0.50259  0.63104  0.43451  1.0000
  H   H1536     1.0  0.76492  0.51757  0.02579  1.0000
  C   C1929     1.0  0.96360  0.53628  0.12267  1.0000
  C   C1930     1.0  0.94525  0.54592  0.05402  1.0000
  S   S255      1.0  0.81124  0.49747  0.06845  1.0000
  C   C1931     1.0  0.72141  0.58646  0.42157  1.0000
  C   C1932     1.0  0.56198  0.61992  0.48263  1.0000
  C   C1933     1.0  0.49739  0.60945  0.47114  1.0000
  H   H1537     1.0  0.90299  0.55830  0.46323  1.0000
  C   C1934     1.0  0.69723  0.56711  0.45964  1.0000
  C   C1935     1.0  0.91537  0.51467  0.08828  1.0000
  S   S256      1.0  0.81501  0.50058  0.40737  1.0000
  H   H1538     1.0  0.97859  0.49698  0.11354  1.0000
  C   C1936     1.0  0.59392  0.50497  0.17823  1.0000
  C   C1937     1.0  0.97792  0.53661  0.14486  1.0000
  C   C1938     1.0  0.68258  0.52628  0.45207  1.0000
  C   C1939     1.0  0.95844  0.56562  0.42695  1.0000
  H   H1539     1.0  0.52529  0.50126  0.43303  1.0000
  C   C1940     1.0  0.88785  0.50925  0.39145  1.0000
  H   H1540     1.0  0.78857  0.51034  0.30404  1.0000
  H   H1541     1.0  0.95306  0.49594  0.07562  1.0000
  S   S257      1.0  0.49535  0.49579  0.38676  1.0000
  H   H1542     1.0  0.65398  0.54353  0.05012  1.0000
  H   H1543     1.0  0.96360  0.59641  0.02418  1.0000
  H   H1544     1.0  0.88548  0.55981  0.00458  1.0000
  H   H1545     1.0  0.49555  0.55697  0.38970  1.0000
  C   C1941     1.0  0.71621  0.59937  0.47676  1.0000
  H   H1546     1.0  0.49468  0.52419  0.43299  1.0000
  H   H1547     1.0  0.63146  0.54680  0.23253  1.0000
  C   C1942     1.0  0.72611  0.60142  0.44590  1.0000
  H   H1548     1.0  0.97240  0.54875  0.04264  1.0000
  H   H1549     1.0  0.61496  0.51695  0.26123  1.0000
  C   C1943     1.0  0.63809  0.51404  0.04797  1.0000
  H   H1550     1.0  0.51214  0.67102  0.99622  1.0000
  H   H1551     1.0  0.64748  0.51145  0.03131  1.0000
  H   H1552     1.0  0.59055  0.49609  0.99659  1.0000
  C   C1944     1.0  0.53010  0.49446  0.45228  1.0000
  C   C1945     1.0  0.98335  0.52247  0.14167  1.0000
  C   C1946     1.0  0.62227  0.49925  0.05879  1.0000
  C   C1947     1.0  0.49316  0.68615  0.06186  1.0000
  Fe  Fe134     1.0  0.53316  0.56321  0.99194  1.0000
  H   H1553     1.0  0.97798  0.50040  0.03959  1.0000
  H   H1554     1.0  0.51041  0.62771  0.00369  1.0000
  C   C1948     1.0  0.70172  0.58231  0.48352  1.0000
  H   H1555     1.0  0.71211  0.54071  0.46214  1.0000
  S   S258      1.0  0.85557  0.49345  0.46931  1.0000
  C   C1949     1.0  0.89063  0.55062  0.99332  1.0000
  C   C1950     1.0  0.87718  0.51293  0.47969  1.0000
  H   H1556     1.0  0.48775  0.71751  0.12191  1.0000
  C   C1951     1.0  0.97551  0.50407  0.48313  1.0000
  C   C1952     1.0  0.72839  0.52201  0.98833  1.0000
  C   C1953     1.0  0.59175  0.52288  0.98773  1.0000
  C   C1954     1.0  0.97341  0.49194  0.01524  1.0000
  H   H1557     1.0  0.65377  0.56176  0.48662  1.0000
  C   C1955     1.0  0.50761  0.58980  0.95627  1.0000
  C   C1956     1.0  0.69906  0.51512  0.83329  1.0000
  H   H1558     1.0  0.49168  0.57936  0.90697  1.0000
  C   C1957     1.0  0.53984  0.52987  0.59197  1.0000
  C   C1958     1.0  0.75583  0.53866  0.95566  1.0000
  H   H1559     1.0  0.73058  0.56232  0.86425  1.0000
  Fe  Fe135     1.0  0.96077  0.56163  0.53075  1.0000
  C   C1959     1.0  0.71040  0.50741  0.82122  1.0000
  S   S259      1.0  0.96215  0.54825  0.58188  1.0000
  Fe  Fe136     1.0  0.96360  0.55583  0.92564  1.0000
  S   S260      1.0  0.96148  0.53622  0.88055  1.0000
  S   S261      1.0  0.93813  0.55813  0.94679  1.0000
  C   C1960     1.0  0.55615  0.56069  0.57046  1.0000
  C   C1961     1.0  0.76588  0.53317  0.97948  1.0000
  H   H1560     1.0  0.49489  0.58634  0.50184  1.0000
  H   H1561     1.0  0.56476  0.58991  0.67714  1.0000
  C   C1962     1.0  0.72585  0.50958  0.84202  1.0000
  C   C1963     1.0  0.65370  0.52931  0.56286  1.0000
  H   H1562     1.0  0.53093  0.52084  0.61127  1.0000
  S   S262      1.0  0.48707  0.63512  0.95358  1.0000
  H   H1563     1.0  0.90091  0.56192  0.63579  1.0000
  H   H1564     1.0  0.98235  0.53763  0.72797  1.0000
  S   S263      1.0  0.98182  0.54793  0.96044  1.0000
  H   H1565     1.0  0.56761  0.52870  0.91088  1.0000
  H   H1566     1.0  0.97346  0.60471  0.79206  1.0000
  S   S264      1.0  0.51590  0.57259  0.95484  1.0000
  S   S265      1.0  0.66094  0.49272  0.53183  1.0000
  S   S266      1.0  0.65699  0.49362  0.63745  1.0000
  P   P67       1.0  0.72430  0.54070  0.92913  1.0000
  H   H1567     1.0  0.53888  0.55398  0.61568  1.0000
  H   H1568     1.0  0.63291  0.53015  0.92876  1.0000
  C   C1964     1.0  0.52147  0.57032  0.53691  1.0000
  H   H1569     1.0  0.94259  0.56442  0.86680  1.0000
  C   C1965     1.0  0.76103  0.59514  0.94212  1.0000
  C   C1966     1.0  0.93670  0.55562  0.81107  1.0000
  H   H1570     1.0  0.75043  0.59491  0.85352  1.0000
  H   H1571     1.0  0.68979  0.50895  0.94307  1.0000
  C   C1967     1.0  0.50724  0.57005  0.59301  1.0000
  H   H1572     1.0  0.93655  0.50199  0.51907  1.0000
  H   H1573     1.0  0.52473  0.64897  0.65582  1.0000
  H   H1574     1.0  0.50604  0.73672  0.63566  1.0000
  C   C1968     1.0  0.68841  0.52130  0.95070  1.0000
  H   H1575     1.0  0.69816  0.54833  0.59462  1.0000
  H   H1576     1.0  0.91728  0.52343  0.52860  1.0000
  C   C1969     1.0  0.94974  0.50753  0.75829  1.0000
  C   C1970     1.0  0.74980  0.57665  0.94844  1.0000
  Fe  Fe137     1.0  0.98102  0.52974  0.91352  1.0000
  C   C1971     1.0  0.55141  0.59622  0.63256  1.0000
  C   C1972     1.0  0.93834  0.52812  0.73298  1.0000
  C   C1973     1.0  0.57562  0.49401  0.63774  1.0000
  H   H1577     1.0  0.95752  0.58274  0.74206  1.0000
  H   H1578     1.0  0.70343  0.55423  0.53052  1.0000
  C   C1974     1.0  0.93939  0.52134  0.69855  1.0000
  C   C1975     1.0  0.66868  0.53513  0.58740  1.0000
  H   H1579     1.0  0.94276  0.52584  0.78963  1.0000
  C   C1976     1.0  0.87726  0.50217  0.75424  1.0000
  H   H1580     1.0  0.59964  0.53813  0.51153  1.0000
  C   C1977     1.0  0.60652  0.51650  0.49294  1.0000
  H   H1581     1.0  0.49104  0.52667  0.55532  1.0000
  H   H1582     1.0  0.95362  0.50220  0.78161  1.0000
  S   S267      1.0  0.97549  0.49999  0.90930  1.0000
  C   C1978     1.0  0.68405  0.55280  0.96938  1.0000
  C   C1979     1.0  0.56385  0.51417  0.91354  1.0000
  C   C1980     1.0  0.90760  0.52539  0.51084  1.0000
  C   C1981     1.0  0.53704  0.62836  0.51994  1.0000
  H   H1583     1.0  0.49576  0.59795  0.56402  1.0000
  C   C1982     1.0  0.49564  0.58980  0.92826  1.0000
  H   H1584     1.0  0.69764  0.50225  0.64721  1.0000
  H   H1585     1.0  0.56460  0.53002  0.51986  1.0000
  H   H1586     1.0  0.54311  0.63447  0.62995  1.0000
  C   C1983     1.0  0.89010  0.51068  0.50246  1.0000
  C   C1984     1.0  0.91283  0.55479  0.68161  1.0000
  C   C1985     1.0  0.55339  0.60820  0.60479  1.0000
  C   C1986     1.0  0.56638  0.59918  0.65571  1.0000
  H   H1587     1.0  0.66031  0.50611  0.96536  1.0000
  C   C1987     1.0  0.94575  0.56832  0.83941  1.0000
  Fe  Fe138     1.0  0.97914  0.53759  0.55111  1.0000
  C   C1988     1.0  0.68657  0.54424  0.57564  1.0000
  C   C1989     1.0  0.94602  0.50813  0.69410  1.0000
  S   S268      1.0  0.59451  0.55807  0.97818  1.0000
  H   H1588     1.0  0.57595  0.49293  0.66651  1.0000
  C   C1990     1.0  0.49896  0.54150  0.55860  1.0000
  H   H1589     1.0  0.59496  0.61656  0.66966  1.0000
  C   C1991     1.0  0.51980  0.57992  0.56738  1.0000
  C   C1992     1.0  0.56332  0.55385  0.54345  1.0000
  H   H1590     1.0  0.90180  0.50478  0.72966  1.0000
  C   C1993     1.0  0.50613  0.61706  0.98261  1.0000
  H   H1591     1.0  0.57229  0.63324  0.58070  1.0000
  H   H1592     1.0  0.58880  0.51579  0.89192  1.0000
  C   C1994     1.0  0.54275  0.61560  0.53360  1.0000
  S   S269      1.0  0.61994  0.49349  0.96007  1.0000
  C   C1995     1.0  0.54444  0.54871  0.59475  1.0000
  H   H1593     1.0  0.50508  0.51840  0.95968  1.0000
  C   C1996     1.0  0.94068  0.56053  0.77546  1.0000
  H   H1594     1.0  0.53832  0.58469  0.63667  1.0000
  H   H1595     1.0  0.48937  0.67634  0.95924  1.0000
  H   H1596     1.0  0.57566  0.49952  0.53529  1.0000
  C   C1997     1.0  0.93582  0.50229  0.96453  1.0000
  C   C1998     1.0  0.96307  0.59104  0.79735  1.0000
  H   H1597     1.0  0.61399  0.51678  0.51741  1.0000
  H   H1598     1.0  0.64497  0.52715  0.50758  1.0000
  H   H1599     1.0  0.49416  0.70935  0.59375  1.0000
  S   S270      1.0  0.48624  0.61722  0.50350  1.0000
  C   C1999     1.0  0.71873  0.52733  0.88723  1.0000
  H   H1600     1.0  0.87875  0.50516  0.97843  1.0000
  H   H1601     1.0  0.95794  0.56402  0.69176  1.0000
  H   H1602     1.0  0.53067  0.57735  0.51623  1.0000
  C   C2000     1.0  0.55561  0.61178  0.51507  1.0000
  C   C2001     1.0  0.70322  0.52510  0.86609  1.0000
  C   C2002     1.0  0.95896  0.58601  0.83256  1.0000
  P   P68       1.0  0.53407  0.60448  0.57488  1.0000
  C   C2003     1.0  0.73005  0.51955  0.87484  1.0000
  C   C2004     1.0  0.70088  0.55454  0.95721  1.0000
  H   H1603     1.0  0.78034  0.53721  0.97586  1.0000
  H   H1604     1.0  0.73445  0.50331  0.83300  1.0000
  H   H1605     1.0  0.55970  0.57526  0.57252  1.0000
  P   P69       1.0  0.54118  0.49869  0.56042  1.0000
  C   C2005     1.0  0.52878  0.62928  0.62150  1.0000
  C   C2006     1.0  0.73904  0.57127  0.88622  1.0000
  C   C2007     1.0  0.49187  0.61699  0.59962  1.0000
  S   S271      1.0  0.48745  0.66788  0.53095  1.0000
  C   C2008     1.0  0.67169  0.51963  0.96320  1.0000
  C   C2009     1.0  0.57524  0.49756  0.56376  1.0000
  H   H1606     1.0  0.90292  0.55490  0.77538  1.0000
  H   H1607     1.0  0.53839  0.50855  0.93845  1.0000
  H   H1608     1.0  0.94713  0.50328  0.66742  1.0000
  C   C2010     1.0  0.55880  0.53507  0.54074  1.0000
  H   H1609     1.0  0.69427  0.53099  0.87491  1.0000
  H   H1610     1.0  0.76277  0.54715  0.93385  1.0000
  C   C2011     1.0  0.54679  0.52289  0.56453  1.0000
  C   C2012     1.0  0.49157  0.72111  0.58794  1.0000
  H   H1611     1.0  0.76412  0.49979  0.58698  1.0000
  H   H1612     1.0  0.66642  0.53211  0.61538  1.0000
  C   C2013     1.0  0.73882  0.56453  0.92047  1.0000
  H   H1613     1.0  0.50546  0.49956  0.55562  1.0000
  C   C2014     1.0  0.90471  0.52755  0.96408  1.0000
  H   H1614     1.0  0.96605  0.59578  0.85460  1.0000
  C   C2015     1.0  0.70315  0.53877  0.94749  1.0000
  H   H1615     1.0  0.50555  0.57711  0.61661  1.0000
  H   H1616     1.0  0.57239  0.56302  0.52440  1.0000
  H   H1617     1.0  0.65861  0.49493  0.76924  1.0000
  C   C2016     1.0  0.52068  0.61472  0.59566  1.0000
  C   C2017     1.0  0.58339  0.61421  0.65157  1.0000
  H   H1618     1.0  0.52755  0.51025  0.49672  1.0000
  C   C2018     1.0  0.65795  0.49397  0.71125  1.0000
  H   H1619     1.0  0.59856  0.63816  0.62144  1.0000
  C   C2019     1.0  0.91546  0.54681  0.96399  1.0000
  S   S272      1.0  0.54247  0.54310  0.96716  1.0000
  C   C2020     1.0  0.58542  0.62637  0.62438  1.0000
  S   S273      1.0  0.97644  0.54963  0.49956  1.0000
  H   H1620     1.0  0.93508  0.52614  0.67501  1.0000
  C   C2021     1.0  0.62149  0.52802  0.94529  1.0000
  C   C2022     1.0  0.94601  0.57162  0.64718  1.0000
  C   C2023     1.0  0.50216  0.60869  0.58478  1.0000
  C   C2024     1.0  0.92893  0.55529  0.69772  1.0000
  H   H1621     1.0  0.56051  0.60228  0.52535  1.0000
  H   H1622     1.0  0.92657  0.54196  0.81711  1.0000
  H   H1623     1.0  0.63988  0.52169  0.57186  1.0000
  H   H1624     1.0  0.49112  0.59628  0.84090  1.0000
  C   C2025     1.0  0.92994  0.57089  0.63114  1.0000
  C   C2026     1.0  0.94547  0.56373  0.68012  1.0000
  H   H1625     1.0  0.52710  0.63161  0.53332  1.0000
  C   C2027     1.0  0.49826  0.73656  0.61154  1.0000
  H   H1626     1.0  0.68692  0.51322  0.81742  1.0000
  C   C2028     1.0  0.95397  0.57840  0.76889  1.0000
  C   C2029     1.0  0.89587  0.54018  0.76932  1.0000
  H   H1627     1.0  0.74194  0.52084  0.89065  1.0000
  H   H1628     1.0  0.51276  0.54390  0.50930  1.0000
  C   C2030     1.0  0.91337  0.56253  0.64840  1.0000
  C   C2031     1.0  0.94346  0.52099  0.76279  1.0000
  C   C2032     1.0  0.49756  0.50432  0.94964  1.0000
  P   P70       1.0  0.92831  0.54400  0.73913  1.0000
  C   C2033     1.0  0.57575  0.50686  0.90274  1.0000
  C   C2034     1.0  0.90480  0.53112  0.75148  1.0000
  H   H1629     1.0  0.88654  0.49744  0.51373  1.0000
  H   H1630     1.0  0.93034  0.57669  0.60519  1.0000
  C   C2035     1.0  0.57048  0.62345  0.60118  1.0000
  H   H1631     1.0  0.89980  0.54824  0.69419  1.0000
  C   C2036     1.0  0.61257  0.51134  0.96233  1.0000
  H   H1632     1.0  0.66902  0.50769  0.70977  1.0000
  H   H1633     1.0  0.71189  0.56822  0.95491  1.0000
  C   C2037     1.0  0.68949  0.54761  0.53936  1.0000
  H   H1634     1.0  0.49209  0.63822  0.63607  1.0000
  C   C2038     1.0  0.60098  0.53974  0.97169  1.0000
  C   C2039     1.0  0.76128  0.60171  0.90791  1.0000
  C   C2040     1.0  0.51843  0.63758  0.63622  1.0000
  C   C2041     1.0  0.56102  0.49581  0.62037  1.0000
  C   C2042     1.0  0.91249  0.54264  0.49660  1.0000
  H   H1635     1.0  0.70711  0.49963  0.79589  1.0000
  S   S274      1.0  0.97387  0.50802  0.55607  1.0000
  C   C2043     1.0  0.73697  0.53311  0.95983  1.0000
  C   C2044     1.0  0.86857  0.51123  0.77250  1.0000
  C   C2045     1.0  0.75027  0.58979  0.88001  1.0000
  C   C2046     1.0  0.51118  0.55120  0.53270  1.0000
  C   C2047     1.0  0.51268  0.60347  0.98369  1.0000
  C   C2048     1.0  0.54751  0.50292  0.92940  1.0000
  C   C2049     1.0  0.65660  0.53258  0.52657  1.0000
  H   H1636     1.0  0.90997  0.51853  0.95259  1.0000
  H   H1637     1.0  0.77000  0.61605  0.90304  1.0000
  H   H1638     1.0  0.74967  0.57180  0.97518  1.0000
  H   H1639     1.0  0.62311  0.55514  0.93768  1.0000
  C   C2050     1.0  0.48898  0.60328  0.92728  1.0000
  C   C2051     1.0  0.88689  0.51994  0.97865  1.0000
  S   S275      1.0  0.93442  0.56173  0.50649  1.0000
  H   H1640     1.0  0.94040  0.50785  0.93868  1.0000
  C   C2052     1.0  0.95115  0.50119  0.72396  1.0000
  C   C2053     1.0  0.67448  0.54206  0.51467  1.0000
  C   C2054     1.0  0.61590  0.54220  0.95042  1.0000
  H   H1641     1.0  0.95890  0.57816  0.63388  1.0000
  H   H1642     1.0  0.69396  0.58106  0.50720  1.0000
  H   H1643     1.0  0.85467  0.50351  0.78105  1.0000
  H   H1644     1.0  0.87116  0.53725  0.79424  1.0000
  C   C2055     1.0  0.49434  0.61717  0.95429  1.0000
  H   H1645     1.0  0.74855  0.50450  0.49463  1.0000
  C   C2056     1.0  0.49999  0.63149  0.62521  1.0000
  H   H1646     1.0  0.76954  0.60439  0.96377  1.0000
  C   C2057     1.0  0.97176  0.49547  0.51579  1.0000
  C   C2058     1.0  0.49690  0.55094  0.58861  1.0000
  C   C2059     1.0  0.89530  0.51207  0.74367  1.0000
  C   C2060     1.0  0.87785  0.53023  0.77993  1.0000
  H   H1647     1.0  0.91585  0.57292  0.97813  1.0000
  H   H1648     1.0  0.71969  0.61104  0.49535  1.0000
  C   C2061     1.0  0.58984  0.49581  0.58120  1.0000
  C   C2062     1.0  0.92721  0.49666  0.49574  1.0000
  C   C2063     1.0  0.97643  0.50035  0.98236  1.0000
  H   H1649     1.0  0.65627  0.53398  0.98091  1.0000
  C   C2064     1.0  0.59771  0.50896  0.98364  1.0000
  C   C2065     1.0  0.66943  0.53535  0.97217  1.0000
  H   H1650     1.0  0.98307  0.51517  0.98169  1.0000
  C   C2066     1.0  0.90799  0.55811  0.97828  1.0000
  H   H1651     1.0  0.48731  0.54340  0.60854  1.0000
  H   H1652     1.0  0.68223  0.56499  0.97623  1.0000
  C   C2067     1.0  0.58993  0.49380  0.61811  1.0000
  H   H1653     1.0  0.60114  0.49604  0.56611  1.0000
  H   H1654     1.0  0.70423  0.49538  0.58576  1.0000
  C   C2068     1.0  0.56033  0.49684  0.58299  1.0000
  H   H1655     1.0  0.71568  0.49327  0.50931  1.0000
  H   H1656     1.0  0.55029  0.49641  0.63615  1.0000
  C   C2069     1.0  0.59823  0.52854  0.48960  1.0000
  H   H1657     1.0  0.60126  0.49238  0.63153  1.0000
  C   C2070     1.0  0.53154  0.49962  0.48856  1.0000
  C   C2071     1.0  0.54379  0.63679  0.48794  1.0000
  S   S276      1.0  0.48939  0.82241  0.03653  1.0000
  C   C2072     1.0  0.50965  0.88678  0.41764  1.0000
  C   C2073     1.0  0.56838  0.85548  0.24124  1.0000
  C   C2074     1.0  0.52242  0.98344  0.37111  1.0000
  C   C2075     1.0  0.48887  0.74865  0.02808  1.0000
  H   H1658     1.0  0.53611  0.95542  0.00458  1.0000
  H   H1659     1.0  0.51210  0.81166  0.44548  1.0000
  S   S277      1.0  0.53485  0.94110  0.45116  1.0000
  C   C2076     1.0  0.49084  0.97397  0.35050  1.0000
  C   C2077     1.0  0.52109  0.86272  0.30186  1.0000
  C   C2078     1.0  0.55302  0.84561  0.37139  1.0000
  C   C2079     1.0  0.51297  0.87762  0.44612  1.0000
  C   C2080     1.0  0.54943  0.88597  0.35354  1.0000
  C   C2081     1.0  0.55356  0.90298  0.33839  1.0000
  H   H1660     1.0  0.50745  0.77918  0.44828  1.0000
  C   C2082     1.0  0.50398  0.86353  0.24807  1.0000
  C   C2083     1.0  0.55521  0.85407  0.26585  1.0000
  C   C2084     1.0  0.50521  0.85792  0.32130  1.0000
  C   C2085     1.0  0.48878  0.85560  0.30401  1.0000
  C   C2086     1.0  0.55904  0.91898  0.36025  1.0000
  H   H1661     1.0  0.58071  0.89310  0.31727  1.0000
  C   C2087     1.0  0.58579  0.87047  0.24388  1.0000
  H   H1662     1.0  0.50023  0.91993  0.12313  1.0000
  C   C2088     1.0  0.56042  0.91811  0.39734  1.0000
  H   H1663     1.0  0.60367  0.89550  0.27354  1.0000
  H   H1664     1.0  0.56552  0.85825  0.37624  1.0000
  H   H1665     1.0  0.51428  0.91311  0.39712  1.0000
  C   C2089     1.0  0.53532  0.81318  0.38177  1.0000
  H   H1666     1.0  0.55664  0.90048  0.44141  1.0000
  P   P71       1.0  0.54212  0.86550  0.32467  1.0000
  C   C2090     1.0  0.57694  0.88264  0.29591  1.0000
  C   C2091     1.0  0.59010  0.88399  0.27129  1.0000
  C   C2092     1.0  0.52145  0.81247  0.35793  1.0000
  H   H1667     1.0  0.56506  0.84492  0.22013  1.0000
  H   H1668     1.0  0.51236  0.82737  0.32237  1.0000
  C   C2093     1.0  0.55615  0.90122  0.41259  1.0000
  C   C2094     1.0  0.55033  0.88513  0.39090  1.0000
  C   C2095     1.0  0.51619  0.90613  0.41993  1.0000
  H   H1669     1.0  0.55242  0.90383  0.30969  1.0000
  H   H1670     1.0  0.56197  0.83026  0.40669  1.0000
  C   C2096     1.0  0.51419  0.95931  0.02889  1.0000
  H   H1671     1.0  0.54604  0.87212  0.40361  1.0000
  C   C2097     1.0  0.51710  0.93083  0.02880  1.0000
  H   H1672     1.0  0.52793  0.96276  0.39676  1.0000
  C   C2098     1.0  0.53889  0.84516  0.34819  1.0000
  H   H1673     1.0  0.52438  0.92290  0.02105  1.0000
  C   C2099     1.0  0.49946  0.95223  0.37899  1.0000
  C   C2100     1.0  0.55929  0.86781  0.29298  1.0000
  H   H1674     1.0  0.56201  0.93205  0.34858  1.0000
  H   H1675     1.0  0.50212  0.89564  0.15914  1.0000
  C   C2101     1.0  0.50606  0.80370  0.46853  1.0000
  H   H1676     1.0  0.59598  0.87154  0.22478  1.0000
  H   H1677     1.0  0.56423  0.93042  0.41441  1.0000
  C   C2102     1.0  0.52320  0.82837  0.34112  1.0000
  C   C2103     1.0  0.52810  0.90729  0.48023  1.0000
  C   C2104     1.0  0.50906  0.98745  0.35441  1.0000
  C   C2105     1.0  0.49809  0.95115  0.04775  1.0000
  H   H1678     1.0  0.53260  0.87020  0.24970  1.0000
  H   H1679     1.0  0.49504  0.81449  0.21199  1.0000
  C   C2106     1.0  0.55113  0.82974  0.38845  1.0000
  C   C2107     1.0  0.51761  0.96582  0.38338  1.0000
  C   C2108     1.0  0.52372  0.94917  0.01950  1.0000
  C   C2109     1.0  0.49114  0.93258  0.05688  1.0000
  H   H1680     1.0  0.53388  0.80085  0.39487  1.0000
  H   H1681     1.0  0.54179  0.84230  0.26362  1.0000
  S   S278      1.0  0.50872  0.85402  0.44131  1.0000
  C   C2110     1.0  0.50346  0.78547  0.47016  1.0000
  H   H1682     1.0  0.50543  0.85559  0.34968  1.0000
  C   C2111     1.0  0.52049  0.86597  0.26526  1.0000
  H   H1683     1.0  0.49857  0.75621  0.00832  1.0000
  H   H1684     1.0  0.50290  0.87913  0.39315  1.0000
  H   H1685     1.0  0.51925  0.97350  0.02127  1.0000
  C   C2112     1.0  0.52547  0.91655  0.45119  1.0000
  C   C2113     1.0  0.52220  0.88802  0.47738  1.0000
  H   H1686     1.0  0.50928  0.79957  0.35239  1.0000
  H   H1687     1.0  0.50336  0.86524  0.21954  1.0000
  H   H1688     1.0  0.49606  0.93873  0.38890  1.0000
  C   C2114     1.0  0.48813  0.85831  0.26744  1.0000
  H   H1689     1.0  0.49249  0.92684  0.44611  1.0000
  C   C2115     1.0  0.50074  0.92246  0.04673  1.0000
  C   C2116     1.0  0.48909  0.89347  0.14653  1.0000
  H   H1690     1.0  0.49562  0.90800  0.05232  1.0000
  S   S279      1.0  0.54196  0.98952  0.48495  1.0000
  H   H1691     1.0  0.49123  0.95950  0.05457  1.0000
  C   C2117     1.0  0.48800  0.90713  0.12584  1.0000
  C   C2118     1.0  0.63466  0.98438  0.78007  1.0000
  S   S280      1.0  0.52500  0.95762  0.54441  1.0000
  H   H1692     1.0  0.54859  0.94775  0.70196  1.0000
  C   C2119     1.0  0.55537  0.98873  0.74209  1.0000
  H   H1693     1.0  0.60276  0.97338  0.65199  1.0000
  C   C2120     1.0  0.60826  0.98026  0.70857  1.0000
  C   C2121     1.0  0.48950  0.92275  0.79868  1.0000
  Fe  Fe139     1.0  0.54305  0.95955  0.89744  1.0000
  S   S281      1.0  0.52734  0.96006  0.84712  1.0000
  H   H1694     1.0  0.49659  0.91377  0.61801  1.0000
  C   C2122     1.0  0.50611  0.80984  0.64210  1.0000
  H   H1695     1.0  0.49592  0.81813  0.68840  1.0000
  C   C2123     1.0  0.49468  0.75161  0.60432  1.0000
  Fe  Fe140     1.0  0.54304  0.96279  0.49779  1.0000
  C   C2124     1.0  0.49567  0.85895  0.57249  1.0000
  H   H1696     1.0  0.49976  0.76323  0.62335  1.0000
  C   C2125     1.0  0.48814  0.88465  0.56491  1.0000
  C   C2126     1.0  0.59507  0.96697  0.83719  1.0000
  C   C2127     1.0  0.49524  0.77513  0.49959  1.0000
  S   S282      1.0  0.53143  0.97440  0.93244  1.0000
  Fe  Fe141     1.0  0.52570  0.98503  0.53430  1.0000
  S   S283      1.0  0.48805  0.97218  0.87546  1.0000
  C   C2128     1.0  0.56740  0.94062  0.79213  1.0000
  Fe  Fe142     1.0  0.55084  0.97398  0.57806  1.0000
  H   H1697     1.0  0.49075  0.92439  0.51071  1.0000
  C   C2129     1.0  0.52835  0.89845  0.94412  1.0000
  C   C2130     1.0  0.49659  0.90072  0.96417  1.0000
  C   C2131     1.0  0.55179  0.97019  0.73858  1.0000
  C   C2132     1.0  0.60353  0.98287  0.67369  1.0000
  H   H1698     1.0  0.52027  0.81974  0.64801  1.0000
  C   C2133     1.0  0.51485  0.88390  0.96246  1.0000
  C   C2134     1.0  0.49892  0.88503  0.97296  1.0000
  Fe  Fe143     1.0  0.55102  0.98739  0.83793  1.0000
  C   C2135     1.0  0.52003  0.89002  0.57148  1.0000
  C   C2136     1.0  0.55243  0.97187  0.67335  1.0000
  H   H1699     1.0  0.51167  0.91128  0.56166  1.0000
  H   H1700     1.0  0.52523  0.88117  0.49918  1.0000
  C   C2137     1.0  0.58061  0.95201  0.85161  1.0000
  H   H1701     1.0  0.50228  0.82569  0.49476  1.0000
  H   H1702     1.0  0.55650  0.93058  0.77473  1.0000
  H   H1703     1.0  0.55536  0.92752  0.84057  1.0000
  C   C2138     1.0  0.51001  0.91517  0.94567  1.0000
  C   C2139     1.0  0.56673  0.93889  0.82913  1.0000
  C   C2140     1.0  0.65300  0.96941  0.80189  1.0000
  C   C2141     1.0  0.55062  0.96188  0.70438  1.0000
  H   H1704     1.0  0.51696  0.87200  0.96902  1.0000
  H   H1705     1.0  0.67877  0.97672  0.77692  1.0000
  H   H1706     1.0  0.55055  0.96248  0.76227  1.0000
  H   H1707     1.0  0.50106  0.92891  0.78160  1.0000
  H   H1708     1.0  0.57991  0.95072  0.88035  1.0000
  C   C2142     1.0  0.49214  0.80131  0.52567  1.0000
  H   H1709     1.0  0.53455  0.89946  0.57222  1.0000
  H   H1710     1.0  0.52456  0.86595  0.57822  1.0000
  S   S284      1.0  0.56942  0.97774  0.53182  1.0000
  Fe  Fe144     1.0  0.51727  0.97647  0.88154  1.0000
  H   H1711     1.0  0.54073  0.89753  0.93668  1.0000
  C   C2143     1.0  0.52609  0.91425  0.93582  1.0000
  C   C2144     1.0  0.48951  0.78297  0.52766  1.0000
  H   H1712     1.0  0.53543  0.91510  0.50423  1.0000
  S   S285      1.0  0.54377  0.93268  0.91401  1.0000
  C   C2145     1.0  0.50160  0.79791  0.61185  1.0000
  H   H1713     1.0  0.51239  0.79867  0.59454  1.0000
  S   S286      1.0  0.55258  0.96143  0.63109  1.0000
  C   C2146     1.0  0.50699  0.89671  0.56584  1.0000
  H   H1714     1.0  0.50824  0.92731  0.93985  1.0000
  C   C2147     1.0  0.51439  0.87115  0.57479  1.0000
  H   H1715     1.0  0.48825  0.93931  0.96591  1.0000
  H   H1716     1.0  0.65479  0.95991  0.81964  1.0000
  H   H1717     1.0  0.49310  0.76097  0.49975  1.0000
  C   C2148     1.0  0.59583  0.96889  0.80001  1.0000
  H   H1718     1.0  0.60554  0.97714  0.85515  1.0000
  H   H1719     1.0  0.62693  0.96473  0.82205  1.0000
  C   C2149     1.0  0.49239  0.80894  0.66484  1.0000
  C   C2150     1.0  0.63715  0.97218  0.80313  1.0000
  C   C2151     1.0  0.58188  0.95554  0.77756  1.0000
  H   H1720     1.0  0.58180  0.95674  0.74891  1.0000
  C   C2152     1.0  0.55493  0.99009  0.67683  1.0000
  H   H1721     1.0  0.61147  0.96884  0.71348  1.0000
  H   H1722     1.0  0.48734  0.80755  0.54628  1.0000
  C   C2153     1.0  0.49623  0.98930  0.94167  1.0000
  S   S287      1.0  0.56821  0.98602  0.88557  1.0000
  C   C2154     1.0  0.66651  0.97889  0.77785  1.0000
  C   C2155     1.0  0.66423  0.99122  0.75510  1.0000
  C   C2156     1.0  0.49632  0.94010  0.62134  1.0000
  C   C2157     1.0  0.50051  0.81164  0.49639  1.0000
  H   H1723     1.0  0.49132  0.84427  0.57388  1.0000
  S   S288      1.0  0.49959  0.98790  0.54018  1.0000
  H   H1724     1.0  0.49379  0.96547  0.61778  1.0000
  P   P72       1.0  0.61454  0.98852  0.78194  1.0000
  H   H1725     1.0  0.50713  0.94556  0.64225  1.0000
  H   H1726     1.0  0.48889  0.89587  0.79548  1.0000
  C   C2158     1.0  0.49049  0.92214  0.60706  1.0000
  C   C2159     1.0  0.48881  0.95132  0.60765  1.0000
  H   H1727     1.0  0.48794  0.75613  0.92888  1.0000
  H   H1728     1.0  0.48750  0.94819  0.80869  1.0000
  C   C2160     1.0  0.49058  0.99053  0.49897  1.0000
