data_image0
_chemical_formula_structural       HS2CS2CHSCSFeS2FeSH2FeSHSHSFeS2FeSC9H4C3HC2H2C6H3CHC3SHC4SH4C4H3CH2C2HCHFeH2CFeHC2HC2H3CHCH4C6PC4H2C4HC7H6CHSH3C2H6CHCHC2HC2H2CHC3HCSC4HC2H3C5FeC3H2PCH3PCHC3PHC3HCHC2H2C3H2CFeC2H2CHCFeHFeHSFeH2S2FeS2CFeHFeS6C6H4CHFeC3HCH2CHSH2C3HCH2S2H3SHSFeS2FeSFeSH2C3H2C5H2C3H2C4HC6PHCHSCHC3H3C7HCH3SC2H2FeHC2H5FeCH2CH2C3PHC6H2CH2C4HC2H2CH2CH3CHFeHC2HCHCHC3PC4HC10HC2H4CH4CH2C2SH4FeHCH2C2H2CHC3H3SHCSC6HFeCH3C2HC4HCH2FeS2FeSHS2HFeS2FeS2FeHFeS4FeS2FeSCFeSFeS3C4H2C6H4C7H3C6H3C4H2CHC3H2FeC5H3CSHCHC4HFeHCH2SH2CH2CH3CHCHC2H2C2H5CHC2H2C7PC3H2C8SCHC2H6C2H9C2H4CHC6PHC6FeC3HC2HC2HC3H6CHCH3C2HCHC3HCHCHSFeS2FeS2FeHFeHS2FeHSHS3C4PC6H4C5PH2CHCH2C4H3CHC9H4CHC2HCFeCHC2HC4HC6HC2H2CH6CHC4HCH4CHCHCH2CHC11H3CHC3H4C2H3CH2CH5CH3C4PC2H3C2HC2H5SPC2PCH2C4SCHC6HSC3HCHCFeCHC4PC3HCHC3H4SH2C2H2C7HCHC5H5CHCHC2HC2HCHSHCH3C6H2SCHFeHSCHS2HC2HCHC3HC2H2SH2CH3C3SC2HCH2C2HCH3CHC2HC2HCFeCPC4HCHPC9PC9HC8H11C3H6CHCHPCHCHC3SHCHCH2CHCHC3H4C2H2CH4SC5H4CHC7H2CH3CH3SHC3H2SHC2H2CSHFeS2FeS2FeHCSH4C3HC3H2C3HC2H2C2HC4HC2HC2HC3H2C3HCHC3SCHC5H2CHPHCH2PCH2CH2CH6PCH2CH5SCHCHCHC3H2CH2C8H3PCHC2HCHC4H2FeC3SH3C3HC2SHCH3CH2CHC2HCSC2SFeSFeSFeCFeS2FeS2FeSFeS3HC4H2C2SC3H2CH2C7H4CH3C4H5CHC3PCHPHC2H2C2H2C4HC4H4CH2C2H4C2PH3C2H2C4HC2SC6HC3PHCSHC2HCH4C5HC2HCH2C2HCHC3H2CSC2H2CHCHCHCH3C5HC3H3C3H6C2H2C5H4CFeSH2SHC3FeHC3HCH2CFeS2FeS2FeSHSH2C4HC3HC3H5C2H3C2PC2H5C6SC4HC2HC3H3C2H2C2HC3H4CH3CH2CH2C8HC4H2C2PCHCHC6H4FeC3H3CHC3HC2H2C3H2CH2CHSC4FeSCSH2SFeS2C6H2CH3CHC4H2C8PC18H20CH5CPC2H3CHSCH3C3HSC3H3C2FeHCH2CHC5H2C2SC2H2SC2HCH4C3SC9H2CH2CH3PFeHC2HCHPC3H3C2H2C3SHCSCHCH2C2HCH5C2HC5H2FeC2HC2HCH3CHCH3C3H2C5H4FeS2FeS2CFeSCSHFeS2FeSFeS3C5FeHCHC3H3C6H9C3H3CH2CH3C2H4CHC2HCHC3H2C2H5CH2C2HC6PC18H8CH9CHSH2CHC2H2PCHCH2CH3CH3C4H7C3HPCHCH3C2H2CHC8HC5H2C3H5C6PC18H7CH4C2HC4HC5H6CHC5HCH2CFeH5C2HCH4C2H2CHCFeSFeHSH2CS2HFeCS5C6H4C2H3CHC3H2C2Fe2S2FeSFeS3C6H2C4HC3H3PC4HCHCH2C2SHCHCHFeHC4PC6H2CHSCHC4HC2HCH2FeC2H2P2CH2C4HCHC7HFeCHCHCH2CH4CH4C2H2CHC5HCHC2H2CH3CH2C3HCH3C2HC2HC2HCHCH2C2H3C2HC5HC2H3C4HCHCHCHCHCHCH3CHCHCHCHSCPC3HC2HC2H2C2HCH2CHCH4CHC2PC3HSHCHCHCH3SFeSFeHSCH2SHCFeCS3FeS2FeS2FeSFeS3CSCHC4H2CH2C7H4C6H5C2HCHC6HCHSPC8FeCHC4H2C2H4CHCH3C6PC13PHCH14CSH3C2H2C6HC3HCH4CHCHC2HC2HCHC5H2C5H3C8PH2C4HCH2CHCHCH7C3H2CHC3HFePC2HCH3C3H2FeHCH2SHCHC2H6C3HC5
_chemical_formula_sum              "H1152 S192 C1440 Fe96 P48"
_cell_length_a       45.8457
_cell_length_b       45.9559
_cell_length_c       50.5385
_cell_angle_alpha    89.9803
_cell_angle_beta     89.9937
_cell_angle_gamma    120.049

_space_group_name_H-M_alt    "P 1"
_space_group_IT_number       1

loop_
  _space_group_symop_operation_xyz
  'x, y, z'

loop_
  _atom_site_type_symbol
  _atom_site_label
  _atom_site_symmetry_multiplicity
  _atom_site_fract_x
  _atom_site_fract_y
  _atom_site_fract_z
  _atom_site_occupancy
  H   H1        1.0  0.39063  0.48400  0.24542  1.0000
  S   S1        1.0  0.03730  0.40503  0.14316  1.0000
  S   S2        1.0  0.00993  0.42994  0.20708  1.0000
  C   C1        1.0  0.45570  0.07808  0.17489  1.0000
  S   S3        1.0  0.39728  0.04237  0.29389  1.0000
  S   S4        1.0  0.40249  0.03631  0.11271  1.0000
  C   C2        1.0  0.41426  0.12375  0.14441  1.0000
  H   H2        1.0  0.06145  0.34701  0.99537  1.0000
  S   S5        1.0  0.35515  0.04270  0.17423  1.0000
  C   C3        1.0  0.46694  0.16881  0.22989  1.0000
  S   S6        1.0  0.37281  0.04792  0.04711  1.0000
  Fe  Fe1       1.0  0.42231  0.35299  0.28569  1.0000
  S   S7        1.0  0.37298  0.35292  0.28478  1.0000
  S   S8        1.0  0.42274  0.30326  0.28127  1.0000
  Fe  Fe2       1.0  0.46299  0.43063  0.28364  1.0000
  S   S9        1.0  0.41644  0.43465  0.28243  1.0000
  H   H3        1.0  0.17991  0.46609  0.01017  1.0000
  H   H4        1.0  0.03085  0.45348  0.27185  1.0000
  Fe  Fe3       1.0  0.39642  0.39240  0.25303  1.0000
  S   S10       1.0  0.36309  0.39383  0.21998  1.0000
  H   H5        1.0  0.24105  0.32150  0.31364  1.0000
  S   S11       1.0  0.44448  0.39049  0.25200  1.0000
  H   H6        1.0  0.43204  0.22614  0.17720  1.0000
  S   S12       1.0  0.41529  0.45952  0.03202  1.0000
  Fe  Fe4       1.0  0.33205  0.46102  0.02877  1.0000
  S   S13       1.0  0.33421  0.41260  0.02907  1.0000
  S   S14       1.0  0.28392  0.46490  0.03355  1.0000
  Fe  Fe5       1.0  0.37312  0.43726  0.06143  1.0000
  S   S15       1.0  0.38739  0.41315  0.09504  1.0000
  C   C4        1.0  0.46719  0.07985  0.03318  1.0000
  C   C5        1.0  0.99794  0.37711  0.09838  1.0000
  C   C6        1.0  0.37036  0.47830  0.23163  1.0000
  C   C7        1.0  0.37091  0.40011  0.18538  1.0000
  C   C8        1.0  0.35034  0.40792  0.16973  1.0000
  C   C9        1.0  0.35552  0.41299  0.14218  1.0000
  C   C10       1.0  0.38095  0.40952  0.12988  1.0000
  C   C11       1.0  0.40150  0.40170  0.14557  1.0000
  C   C12       1.0  0.39685  0.39747  0.17318  1.0000
  H   H7        1.0  0.33009  0.40980  0.17895  1.0000
  H   H8        1.0  0.33936  0.41873  0.13039  1.0000
  H   H9        1.0  0.42097  0.39855  0.13623  1.0000
  H   H10       1.0  0.41276  0.39130  0.18489  1.0000
  C   C13       1.0  0.33217  0.26521  0.25968  1.0000
  C   C14       1.0  0.49248  0.02061  0.11532  1.0000
  C   C15       1.0  0.14445  0.36991  0.99323  1.0000
  H   H11       1.0  0.42364  0.00649  0.04083  1.0000
  C   C16       1.0  0.41804  0.24252  0.29374  1.0000
  C   C17       1.0  0.35470  0.00970  0.00090  1.0000
  H   H12       1.0  0.43299  0.07310  0.16448  1.0000
  H   H13       1.0  0.41363  0.23735  0.27286  1.0000
  C   C18       1.0  0.45086  0.27234  0.19868  1.0000
  C   C19       1.0  0.38438  0.04228  0.26099  1.0000
  C   C20       1.0  0.37169  0.06279  0.25277  1.0000
  C   C21       1.0  0.36247  0.06234  0.22614  1.0000
  C   C22       1.0  0.36605  0.04155  0.20758  1.0000
  C   C23       1.0  0.37794  0.02041  0.21598  1.0000
  H   H14       1.0  0.46029  0.04749  0.24990  1.0000
  H   H15       1.0  0.36912  0.07899  0.26691  1.0000
  H   H16       1.0  0.35269  0.07830  0.21986  1.0000
  C   C24       1.0  0.02967  0.47602  0.27598  1.0000
  H   H17       1.0  0.47018  0.22799  0.25569  1.0000
  C   C25       1.0  0.14915  0.47626  0.06500  1.0000
  C   C26       1.0  0.37005  0.04172  0.01231  1.0000
  C   C27       1.0  0.38279  0.07004  0.99566  1.0000
  S   S16       1.0  0.37257  0.48633  0.99765  1.0000
  H   H18       1.0  0.39465  0.09490  0.00430  1.0000
  C   C28       1.0  0.03387  0.39579  0.30057  1.0000
  C   C29       1.0  0.22591  0.46590  0.01992  1.0000
  C   C30       1.0  0.39788  0.15867  0.22775  1.0000
  C   C31       1.0  0.33743  0.13637  0.22492  1.0000
  S   S17       1.0  0.09616  0.46231  0.99045  1.0000
  H   H19       1.0  0.37104  0.15617  0.19176  1.0000
  H   H20       1.0  0.48186  0.19479  0.12077  1.0000
  H   H21       1.0  0.48225  0.21309  0.16685  1.0000
  H   H22       1.0  0.32049  0.27844  0.26832  1.0000
  C   C32       1.0  0.02013  0.38939  0.05315  1.0000
  C   C33       1.0  0.05210  0.41163  0.06328  1.0000
  C   C34       1.0  0.05718  0.41574  0.09088  1.0000
  C   C35       1.0  0.03006  0.39861  0.10858  1.0000
  H   H23       1.0  0.08212  0.43248  0.09857  1.0000
  H   H24       1.0  0.07291  0.42508  0.04980  1.0000
  H   H25       1.0  0.29221  0.00268  0.19825  1.0000
  C   C36       1.0  0.45471  0.13590  0.23903  1.0000
  H   H26       1.0  0.02737  0.44924  0.02058  1.0000
  H   H27       1.0  0.46733  0.05863  0.29794  1.0000
  C   C37       1.0  0.36909  0.15095  0.21278  1.0000
  C   C38       1.0  0.36328  0.23230  0.23685  1.0000
  H   H28       1.0  0.39552  0.09863  0.13814  1.0000
  C   C39       1.0  0.31120  0.44492  0.22041  1.0000
  H   H29       1.0  0.31522  0.12990  0.21318  1.0000
  Fe  Fe6       1.0  0.37684  0.43952  0.99962  1.0000
  H   H30       1.0  0.47488  0.47979  0.15960  1.0000
  H   H31       1.0  0.41666  0.15955  0.26727  1.0000
  C   C40       1.0  0.39471  0.15292  0.25516  1.0000
  Fe  Fe7       1.0  0.35983  0.01119  0.14168  1.0000
  H   H32       1.0  0.20446  0.18436  0.24210  1.0000
  C   C41       1.0  0.35002  0.48748  0.18996  1.0000
  C   C42       1.0  0.35153  0.27810  0.23674  1.0000
  H   H33       1.0  0.30987  0.11853  0.26148  1.0000
  C   C43       1.0  0.43816  0.16651  0.17868  1.0000
  C   C44       1.0  0.34398  0.21937  0.25984  1.0000
  H   H34       1.0  0.16377  0.14260  0.27390  1.0000
  H   H35       1.0  0.03018  0.45695  0.10081  1.0000
  H   H36       1.0  0.47683  0.05591  0.12646  1.0000
  C   C45       1.0  0.36714  0.26170  0.22537  1.0000
  H   H37       1.0  0.35502  0.30126  0.22812  1.0000
  C   C46       1.0  0.36309  0.13863  0.26728  1.0000
  H   H38       1.0  0.34212  0.19712  0.26874  1.0000
  H   H39       1.0  0.43895  0.02593  0.18039  1.0000
  H   H40       1.0  0.45424  0.44392  0.21541  1.0000
  H   H41       1.0  0.46890  0.31443  0.22550  1.0000
  C   C47       1.0  0.19465  0.34293  0.10011  1.0000
  C   C48       1.0  0.22741  0.36852  0.09436  1.0000
  C   C49       1.0  0.23266  0.39822  0.08253  1.0000
  C   C50       1.0  0.20523  0.40240  0.07644  1.0000
  C   C51       1.0  0.17221  0.37686  0.08212  1.0000
  C   C52       1.0  0.16711  0.34698  0.09394  1.0000
  P   P1        1.0  0.13692  0.38198  0.07283  1.0000
  C   C53       1.0  0.14803  0.42506  0.07885  1.0000
  C   C54       1.0  0.12721  0.37242  0.03822  1.0000
  C   C55       1.0  0.09451  0.36204  0.02902  1.0000
  C   C56       1.0  0.46237  0.47046  0.21491  1.0000
  H   H42       1.0  0.01844  0.29203  0.13029  1.0000
  H   H43       1.0  0.46920  0.06414  0.07297  1.0000
  C   C57       1.0  0.15223  0.37655  0.02009  1.0000
  C   C58       1.0  0.14092  0.44310  0.06000  1.0000
  C   C59       1.0  0.19944  0.46154  0.00299  1.0000
  C   C60       1.0  0.00768  0.48086  0.12253  1.0000
  H   H44       1.0  0.37609  0.22008  0.22840  1.0000
  C   C61       1.0  0.16408  0.44092  0.10255  1.0000
  C   C62       1.0  0.09996  0.35356  0.09179  1.0000
  C   C63       1.0  0.08924  0.36490  0.11350  1.0000
  C   C64       1.0  0.06016  0.34258  0.12745  1.0000
  C   C65       1.0  0.04133  0.30897  0.11972  1.0000
  C   C66       1.0  0.05180  0.29744  0.09819  1.0000
  C   C67       1.0  0.08103  0.31959  0.08432  1.0000
  H   H45       1.0  0.19060  0.31982  0.10914  1.0000
  H   H46       1.0  0.24876  0.36529  0.09881  1.0000
  H   H47       1.0  0.25803  0.41791  0.07766  1.0000
  H   H48       1.0  0.20989  0.42540  0.06688  1.0000
  H   H49       1.0  0.14204  0.32671  0.09838  1.0000
  H   H50       1.0  0.07500  0.35985  0.04239  1.0000
  C   C68       1.0  0.43847  0.14572  0.12647  1.0000
  H   H51       1.0  0.41606  0.19535  0.30236  1.0000
  S   S18       1.0  0.01278  0.38165  0.01869  1.0000
  H   H52       1.0  0.17793  0.38562  0.02635  1.0000
  H   H53       1.0  0.12895  0.43170  0.04140  1.0000
  H   H54       1.0  0.42875  0.11688  0.23577  1.0000
  C   C69       1.0  0.45192  0.22325  0.21542  1.0000
  C   C70       1.0  0.48192  0.08675  0.00809  1.0000
  H   H55       1.0  0.16991  0.42745  0.11728  1.0000
  H   H56       1.0  0.10266  0.39093  0.11958  1.0000
  H   H57       1.0  0.05180  0.35156  0.14400  1.0000
  H   H58       1.0  0.18446  0.48609  0.12593  1.0000
  H   H59       1.0  0.29679  0.45593  0.18281  1.0000
  H   H60       1.0  0.08866  0.31031  0.06752  1.0000
  C   C71       1.0  0.48225  0.04974  0.28780  1.0000
  H   H61       1.0  0.44449  0.28456  0.18322  1.0000
  C   C72       1.0  0.44415  0.23933  0.19526  1.0000
  H   H62       1.0  0.22654  0.47412  0.04005  1.0000
  C   C73       1.0  0.08675  0.35496  0.00224  1.0000
  C   C74       1.0  0.41936  0.21854  0.31041  1.0000
  H   H63       1.0  0.43836  0.13760  0.10629  1.0000
  C   C75       1.0  0.02758  0.47253  0.02435  1.0000
  C   C76       1.0  0.46484  0.28931  0.22237  1.0000
  H   H64       1.0  0.39574  0.00406  0.24911  1.0000
  H   H65       1.0  0.33315  0.43897  0.25625  1.0000
  C   C77       1.0  0.47583  0.12730  0.25265  1.0000
  H   H66       1.0  0.41340  0.46182  0.20484  1.0000
  C   C78       1.0  0.17235  0.47414  0.10749  1.0000
  C   C79       1.0  0.48097  0.07009  0.05360  1.0000
  C   C80       1.0  0.47410  0.48223  0.11722  1.0000
  H   H67       1.0  0.46568  0.10207  0.26041  1.0000
  C   C81       1.0  0.25064  0.44992  0.98470  1.0000
  S   S19       1.0  0.36936  0.48415  0.06260  1.0000
  C   C82       1.0  0.25888  0.19506  0.29217  1.0000
  C   C83       1.0  0.41432  0.13391  0.17050  1.0000
  C   C84       1.0  0.38680  0.02063  0.24264  1.0000
  C   C85       1.0  0.48564  0.49562  0.14238  1.0000
  H   H68       1.0  0.44479  0.08163  0.03672  1.0000
  C   C86       1.0  0.25162  0.45990  0.01099  1.0000
  C   C87       1.0  0.11175  0.35908  0.98431  1.0000
  H   H69       1.0  0.03703  0.27144  0.09203  1.0000
  H   H70       1.0  0.39590  0.11612  0.18424  1.0000
  H   H71       1.0  0.48215  0.28626  0.26126  1.0000
  C   C88       1.0  0.46288  0.18826  0.16071  1.0000
  C   C89       1.0  0.46288  0.17792  0.13465  1.0000
  C   C90       1.0  0.46578  0.24043  0.23923  1.0000
  C   C91       1.0  0.31731  0.46236  0.19651  1.0000
  C   C92       1.0  0.33771  0.45298  0.23799  1.0000
  Fe  Fe8       1.0  0.36333  0.01131  0.08093  1.0000
  C   C93       1.0  0.16486  0.49180  0.08874  1.0000
  C   C94       1.0  0.00115  0.39031  0.30368  1.0000
  C   C95       1.0  0.48819  0.05744  0.19812  1.0000
  H   H72       1.0  0.28605  0.42484  0.22518  1.0000
  H   H73       1.0  0.04270  0.39420  0.28108  1.0000
  P   P2        1.0  0.30294  0.21931  0.30097  1.0000
  C   C96       1.0  0.47250  0.27344  0.24253  1.0000
  H   H74       1.0  0.43159  0.01837  0.99325  1.0000
  H   H75       1.0  0.45446  0.45626  0.11496  1.0000
  H   H76       1.0  0.38276  0.27219  0.20798  1.0000
  P   P3        1.0  0.43903  0.17931  0.21256  1.0000
  C   C97       1.0  0.45917  0.05128  0.18410  1.0000
  H   H77       1.0  0.36097  0.13411  0.28845  1.0000
  C   C98       1.0  0.20149  0.15261  0.30351  1.0000
  C   C99       1.0  0.33441  0.13004  0.25213  1.0000
  C   C100      1.0  0.30132  0.15872  0.31051  1.0000
  P   P4        1.0  0.49162  0.02329  0.21254  1.0000
  H   H78       1.0  0.28471  0.14907  0.29357  1.0000
  C   C101      1.0  0.43909  0.48069  0.20913  1.0000
  C   C102      1.0  0.47842  0.04347  0.26064  1.0000
  C   C103      1.0  0.24737  0.19962  0.26761  1.0000
  H   H79       1.0  0.26460  0.21772  0.25344  1.0000
  C   C104      1.0  0.32833  0.23580  0.27147  1.0000
  H   H80       1.0  0.40461  0.47965  0.15694  1.0000
  C   C105      1.0  0.21318  0.18072  0.26109  1.0000
  C   C106      1.0  0.00961  0.46197  0.10171  1.0000
  H   H81       1.0  0.47875  0.13182  0.17173  1.0000
  H   H82       1.0  0.47867  0.49179  0.07537  1.0000
  C   C107      1.0  0.19025  0.15721  0.27900  1.0000
  C   C108      1.0  0.48135  0.11115  0.17916  1.0000
  C   C109      1.0  0.42256  0.27312  0.30378  1.0000
  H   H83       1.0  0.41155  0.48539  0.10860  1.0000
  H   H84       1.0  0.47082  0.09388  0.99225  1.0000
  C   C110      1.0  0.00257  0.47373  0.29032  1.0000
  Fe  Fe9       1.0  0.04739  0.41379  0.98523  1.0000
  C   C111      1.0  0.43291  0.99709  0.00082  1.0000
  C   C112      1.0  0.99991  0.47567  0.01714  1.0000
  H   H85       1.0  0.02630  0.48981  0.13818  1.0000
  H   H86       1.0  0.38026  0.00387  0.20199  1.0000
  C   C113      1.0  0.37689  0.49513  0.20727  1.0000
  H   H87       1.0  0.14325  0.48975  0.05035  1.0000
  C   C114      1.0  0.23565  0.17148  0.31011  1.0000
  Fe  Fe10      1.0  0.04932  0.41696  0.47763  1.0000
  H   H88       1.0  0.25053  0.14754  0.58334  1.0000
  Fe  Fe11      1.0  0.07113  0.42618  0.41901  1.0000
  H   H89       1.0  0.24222  0.37539  0.47104  1.0000
  S   S20       1.0  0.06997  0.40815  0.37632  1.0000
  Fe  Fe12      1.0  0.12450  0.45539  0.46410  1.0000
  H   H90       1.0  0.25996  0.34922  0.50497  1.0000
  H   H91       1.0  0.43290  0.25986  0.36872  1.0000
  S   S21       1.0  0.08279  0.40307  0.45431  1.0000
  S   S22       1.0  0.03387  0.43521  0.44151  1.0000
  Fe  Fe13      1.0  0.39512  0.07833  0.38837  1.0000
  S   S23       1.0  0.44136  0.12898  0.39354  1.0000
  S   S24       1.0  0.36038  0.04305  0.42080  1.0000
  C   C115      1.0  0.42502  0.22465  0.33753  1.0000
  Fe  Fe14      1.0  0.46676  0.10990  0.36612  1.0000
  H   H92       1.0  0.23251  0.43625  0.60335  1.0000
  Fe  Fe15      1.0  0.42461  0.14417  0.35637  1.0000
  S   S25       1.0  0.42674  0.19519  0.35964  1.0000
  S   S26       1.0  0.42163  0.05875  0.36310  1.0000
  S   S27       1.0  0.37639  0.09392  0.35262  1.0000
  S   S28       1.0  0.37040  0.40640  0.34711  1.0000
  S   S29       1.0  0.38184  0.38275  0.46957  1.0000
  S   S30       1.0  0.36433  0.45524  0.49607  1.0000
  C   C116      1.0  0.37646  0.40203  0.38110  1.0000
  C   C117      1.0  0.39026  0.38259  0.38968  1.0000
  C   C118      1.0  0.39160  0.37681  0.41687  1.0000
  C   C119      1.0  0.38013  0.39123  0.43571  1.0000
  C   C120      1.0  0.36751  0.41176  0.42717  1.0000
  C   C121      1.0  0.36557  0.41701  0.39996  1.0000
  H   H93       1.0  0.39941  0.37154  0.37545  1.0000
  H   H94       1.0  0.40168  0.36116  0.42337  1.0000
  H   H95       1.0  0.35873  0.42307  0.44153  1.0000
  H   H96       1.0  0.35540  0.43259  0.39354  1.0000
  C   C122      1.0  0.05472  0.40185  0.32293  1.0000
  H   H97       1.0  0.26765  0.28316  0.35943  1.0000
  Fe  Fe16      1.0  0.39734  0.39527  0.31421  1.0000
  C   C123      1.0  0.37042  0.04258  0.45485  1.0000
  C   C124      1.0  0.39634  0.07083  0.46742  1.0000
  C   C125      1.0  0.35115  0.01320  0.46985  1.0000
  H   H98       1.0  0.41102  0.09383  0.45635  1.0000
  C   C126      1.0  0.32253  0.08898  0.45507  1.0000
  H   H99       1.0  0.29342  0.02587  0.50006  1.0000
  H   H100      1.0  0.47111  0.04449  0.37847  1.0000
  C   C127      1.0  0.48103  0.44854  0.61864  1.0000
  H   H101      1.0  0.43535  0.13812  0.54943  1.0000
  S   S31       1.0  0.44524  0.39308  0.31723  1.0000
  H   H102      1.0  0.27777  0.43441  0.37102  1.0000
  H   H103      1.0  0.47366  0.46472  0.58070  1.0000
  C   C128      1.0  0.25622  0.36324  0.46503  1.0000
  C   C129      1.0  0.04359  0.40338  0.34864  1.0000
  C   C130      1.0  0.43255  0.49350  0.63959  1.0000
  H   H104      1.0  0.33637  0.13266  0.51235  1.0000
  C   C131      1.0  0.11881  0.40467  0.63698  1.0000
  H   H105      1.0  0.45802  0.43287  0.45502  1.0000
  H   H106      1.0  0.47132  0.47526  0.48994  1.0000
  S   S32       1.0  0.03228  0.39093  0.63263  1.0000
  S   S33       1.0  0.41069  0.02740  0.61348  1.0000
  H   H107      1.0  0.06881  0.42150  0.54072  1.0000
  H   H108      1.0  0.48869  0.43774  0.36934  1.0000
  H   H109      1.0  0.29998  0.11174  0.31775  1.0000
  S   S34       1.0  0.39371  0.04059  0.54360  1.0000
  H   H110      1.0  0.44226  0.44356  0.34992  1.0000
  S   S35       1.0  0.41148  0.43629  0.53281  1.0000
  Fe  Fe17      1.0  0.32494  0.43110  0.52800  1.0000
  S   S36       1.0  0.33146  0.38561  0.53245  1.0000
  S   S37       1.0  0.26913  0.41598  0.52419  1.0000
  Fe  Fe18      1.0  0.37055  0.41526  0.56341  1.0000
  S   S38       1.0  0.38904  0.39700  0.59823  1.0000
  Fe  Fe19      1.0  0.37194  0.41109  0.50179  1.0000
  S   S39       1.0  0.36143  0.45900  0.56146  1.0000
  H   H111      1.0  0.04725  0.34031  0.52579  1.0000
  H   H112      1.0  0.29356  0.34985  0.41164  1.0000
  C   C132      1.0  0.37943  0.39108  0.63255  1.0000
  C   C133      1.0  0.02167  0.49328  0.51027  1.0000
  C   C134      1.0  0.45945  0.45656  0.45025  1.0000
  H   H113      1.0  0.34110  0.40503  0.63194  1.0000
  H   H114      1.0  0.44724  0.44423  0.40930  1.0000
  C   C135      1.0  0.30292  0.11506  0.58140  1.0000
  C   C136      1.0  0.48484  0.08554  0.53543  1.0000
  C   C137      1.0  0.40304  0.06954  0.49449  1.0000
  C   C138      1.0  0.38390  0.04014  0.50947  1.0000
  C   C139      1.0  0.35794  0.01185  0.49695  1.0000
  H   H115      1.0  0.42306  0.09164  0.50393  1.0000
  H   H116      1.0  0.48853  0.09707  0.49386  1.0000
  C   C140      1.0  0.18981  0.42353  0.49569  1.0000
  C   C141      1.0  0.21008  0.41144  0.50666  1.0000
  C   C142      1.0  0.24532  0.43215  0.50853  1.0000
  H   H117      1.0  0.16284  0.40723  0.49432  1.0000
  H   H118      1.0  0.19831  0.38589  0.51395  1.0000
  C   C143      1.0  0.01539  0.38754  0.54257  1.0000
  C   C144      1.0  0.04740  0.40728  0.55354  1.0000
  C   C145      1.0  0.05196  0.40739  0.58108  1.0000
  C   C146      1.0  0.02447  0.38960  0.59816  1.0000
  H   H119      1.0  0.07696  0.42121  0.58925  1.0000
  C   C147      1.0  0.19681  0.34722  0.57317  1.0000
  C   C148      1.0  0.23106  0.36659  0.57923  1.0000
  C   C149      1.0  0.24371  0.39854  0.59025  1.0000
  C   C150      1.0  0.22219  0.41131  0.59501  1.0000
  C   C151      1.0  0.18781  0.39222  0.58860  1.0000
  C   C152      1.0  0.17517  0.35986  0.57796  1.0000
  P   P5        1.0  0.16016  0.40892  0.59476  1.0000
  H   H120      1.0  0.34741  0.22996  0.34697  1.0000
  C   C153      1.0  0.18258  0.45318  0.58651  1.0000
  H   H121      1.0  0.46395  0.08986  0.53873  1.0000
  S   S40       1.0  0.00908  0.38412  0.50781  1.0000
  C   C154      1.0  0.01128  0.39902  0.35162  1.0000
  H   H122      1.0  0.37376  0.32878  0.34430  1.0000
  C   C155      1.0  0.20474  0.46471  0.56481  1.0000
  C   C156      1.0  0.45317  0.46291  0.42452  1.0000
  C   C157      1.0  0.32829  0.11118  0.49941  1.0000
  H   H123      1.0  0.03915  0.49155  0.49679  1.0000
  H   H124      1.0  0.30066  0.43092  0.45350  1.0000
  H   H125      1.0  0.28714  0.48134  0.50020  1.0000
  C   C158      1.0  0.12398  0.38759  0.57315  1.0000
  C   C159      1.0  0.09430  0.35920  0.58203  1.0000
  C   C160      1.0  0.06678  0.34219  0.56499  1.0000
  C   C161      1.0  0.06888  0.35290  0.53883  1.0000
  C   C162      1.0  0.09846  0.38074  0.52972  1.0000
  C   C163      1.0  0.12584  0.39808  0.54679  1.0000
  C   C164      1.0  0.28650  0.42790  0.41218  1.0000
  H   H126      1.0  0.24804  0.35721  0.57487  1.0000
  C   C165      1.0  0.30967  0.25417  0.32178  1.0000
  H   H127      1.0  0.99850  0.43584  0.56559  1.0000
  H   H128      1.0  0.14877  0.34448  0.57303  1.0000
  H   H129      1.0  0.18370  0.13445  0.31744  1.0000
  S   S41       1.0  0.09149  0.46784  0.48925  1.0000
  C   C166      1.0  0.34448  0.18282  0.35410  1.0000
  C   C167      1.0  0.01083  0.45200  0.58235  1.0000
  H   H130      1.0  0.20854  0.44734  0.55283  1.0000
  H   H131      1.0  0.10413  0.40929  0.62261  1.0000
  Fe  Fe20      1.0  0.07821  0.48531  0.45197  1.0000
  H   H132      1.0  0.04355  0.32106  0.57219  1.0000
  C   C168      1.0  0.30784  0.05647  0.46538  1.0000
  C   C169      1.0  0.21747  0.34149  0.37170  1.0000
  H   H133      1.0  0.09220  0.35016  0.60212  1.0000
  H   H134      1.0  0.09987  0.38934  0.50955  1.0000
  H   H135      1.0  0.14831  0.41960  0.53922  1.0000
  H   H136      1.0  0.31172  0.32469  0.44611  1.0000
  H   H137      1.0  0.16122  0.46840  0.61826  1.0000
  Fe  Fe21      1.0  0.40773  0.07884  0.32780  1.0000
  C   C170      1.0  0.48817  0.03191  0.44911  1.0000
  H   H138      1.0  0.99653  0.46113  0.64697  1.0000
  H   H139      1.0  0.24394  0.16781  0.32928  1.0000
  C   C171      1.0  0.46663  0.48037  0.46998  1.0000
  H   H140      1.0  0.18791  0.39555  0.64311  1.0000
  H   H141      1.0  0.36175  0.19232  0.37072  1.0000
  C   C172      1.0  0.29534  0.33454  0.45120  1.0000
  C   C173      1.0  0.24940  0.36472  0.38173  1.0000
  C   C174      1.0  0.45294  0.01201  0.44755  1.0000
  P   P6        1.0  0.25382  0.38433  0.41370  1.0000
  H   H142      1.0  0.25700  0.23482  0.33157  1.0000
  C   C175      1.0  0.21479  0.38239  0.42311  1.0000
  C   C176      1.0  0.18806  0.35238  0.43329  1.0000
  C   C177      1.0  0.15775  0.35061  0.44050  1.0000
  C   C178      1.0  0.15389  0.37873  0.43760  1.0000
  C   C179      1.0  0.18038  0.40871  0.42767  1.0000
  C   C180      1.0  0.21074  0.41061  0.42044  1.0000
  H   H143      1.0  0.18978  0.30837  0.33948  1.0000
  H   H144      1.0  0.43795  0.12038  0.59535  1.0000
  C   C181      1.0  0.34251  0.28105  0.32560  1.0000
  H   H145      1.0  0.24182  0.03251  0.56836  1.0000
  H   H146      1.0  0.46162  0.42261  0.61545  1.0000
  C   C182      1.0  0.30408  0.05125  0.49272  1.0000
  C   C183      1.0  0.27516  0.35629  0.34253  1.0000
  C   C184      1.0  0.31422  0.19218  0.31873  1.0000
  C   C185      1.0  0.28503  0.34903  0.43169  1.0000
  H   H147      1.0  0.38085  0.11724  0.52732  1.0000
  C   C186      1.0  0.26526  0.36341  0.43843  1.0000
  C   C187      1.0  0.14736  0.40302  0.62916  1.0000
  H   H148      1.0  0.32322  0.11576  0.59278  1.0000
  H   H149      1.0  0.07955  0.40498  0.32034  1.0000
  C   C188      1.0  0.33255  0.11633  0.47206  1.0000
  H   H150      1.0  0.48701  0.07266  0.57600  1.0000
  H   H151      1.0  0.19068  0.33038  0.43567  1.0000
  C   C189      1.0  0.23978  0.47734  0.48837  1.0000
  H   H152      1.0  0.13048  0.37746  0.44322  1.0000
  H   H153      1.0  0.17744  0.43065  0.42588  1.0000
  H   H154      1.0  0.23086  0.43423  0.41297  1.0000
  C   C190      1.0  0.45327  0.49266  0.41860  1.0000
  H   H155      1.0  0.29501  0.32399  0.49272  1.0000
  Fe  Fe22      1.0  0.37408  0.00563  0.57971  1.0000
  H   H156      1.0  0.30307  0.38951  0.37421  1.0000
  C   C191      1.0  0.33624  0.20418  0.34046  1.0000
  C   C192      1.0  0.26013  0.46510  0.49896  1.0000
  H   H157      1.0  0.34407  0.14156  0.46403  1.0000
  C   C193      1.0  0.31458  0.07864  0.51000  1.0000
  H   H158      1.0  0.34372  0.49052  0.45159  1.0000
  C   C194      1.0  0.04328  0.49190  0.62627  1.0000
  H   H159      1.0  0.43582  0.47308  0.64662  1.0000
  C   C195      1.0  0.25205  0.01619  0.56476  1.0000
  C   C196      1.0  0.28438  0.02873  0.55388  1.0000
  C   C197      1.0  0.29677  0.00668  0.54979  1.0000
  P   P7        1.0  0.31046  0.07271  0.54548  1.0000
  C   C198      1.0  0.35115  0.08792  0.56092  1.0000
  C   C199      1.0  0.33153  0.14962  0.34587  1.0000
  C   C200      1.0  0.26639  0.34851  0.48443  1.0000
  C   C201      1.0  0.28262  0.25503  0.33415  1.0000
  H   H160      1.0  0.27042  0.41373  0.59438  1.0000
  C   C202      1.0  0.42755  0.27897  0.33102  1.0000
  C   C203      1.0  0.35293  0.07791  0.58685  1.0000
  C   C204      1.0  0.38413  0.08991  0.59926  1.0000
  C   C205      1.0  0.41381  0.11180  0.58588  1.0000
  C   C206      1.0  0.41232  0.12183  0.56006  1.0000
  C   C207      1.0  0.38114  0.10989  0.54756  1.0000
  C   C208      1.0  0.29161  0.09641  0.55785  1.0000
  C   C209      1.0  0.26517  0.09629  0.54370  1.0000
  C   C210      1.0  0.25042  0.11465  0.55289  1.0000
  C   C211      1.0  0.26189  0.13322  0.57627  1.0000
  H   H161      1.0  0.36373  0.28108  0.31613  1.0000
  C   C212      1.0  0.28809  0.13338  0.59053  1.0000
  C   C213      1.0  0.49018  0.00384  0.62551  1.0000
  H   H162      1.0  0.32661  0.09288  0.43392  1.0000
  H   H163      1.0  0.32183  0.01599  0.54191  1.0000
  H   H164      1.0  0.13721  0.32748  0.44840  1.0000
  H   H165      1.0  0.29764  0.36216  0.33129  1.0000
  C   C214      1.0  0.46633  0.46568  0.35393  1.0000
  H   H166      1.0  0.33022  0.06069  0.59748  1.0000
  H   H167      1.0  0.38533  0.08167  0.61909  1.0000
  H   H168      1.0  0.47372  0.48806  0.53860  1.0000
  H   H169      1.0  0.40713  0.01249  0.43731  1.0000
  C   C215      1.0  0.28604  0.33428  0.47754  1.0000
  H   H170      1.0  0.25595  0.08195  0.52556  1.0000
  H   H171      1.0  0.23011  0.11454  0.54183  1.0000
  C   C216      1.0  0.42876  0.25490  0.34773  1.0000
  C   C217      1.0  0.17825  0.47644  0.60157  1.0000
  S   S42       1.0  0.45474  0.12972  0.32945  1.0000
  H   H172      1.0  0.00718  0.48728  0.45332  1.0000
  H   H173      1.0  0.42831  0.47758  0.59898  1.0000
  H   H174      1.0  0.00218  0.39989  0.37118  1.0000
  H   H175      1.0  0.10770  0.47464  0.57686  1.0000
  Fe  Fe23      1.0  0.40159  0.47893  0.52976  1.0000
  H   H176      1.0  0.29703  0.14783  0.60865  1.0000
  C   C218      1.0  0.35477  0.39647  0.64406  1.0000
  H   H177      1.0  0.33868  0.13351  0.35629  1.0000
  H   H178      1.0  0.19478  0.33543  0.38252  1.0000
  C   C219      1.0  0.48784  0.47240  0.59900  1.0000
  C   C220      1.0  0.00985  0.46590  0.62831  1.0000
  H   H179      1.0  0.32595  0.33032  0.36592  1.0000
  H   H180      1.0  0.47528  0.04086  0.62031  1.0000
  C   C221      1.0  0.43431  0.02662  0.43832  1.0000
  H   H181      1.0  0.09262  0.47473  0.63611  1.0000
  C   C222      1.0  0.45062  0.06029  0.43063  1.0000
  C   C223      1.0  0.20447  0.45679  0.48686  1.0000
  C   C224      1.0  0.34830  0.30815  0.34166  1.0000
  H   H182      1.0  0.41565  0.37514  0.63991  1.0000
  H   H183      1.0  0.43602  0.07124  0.42351  1.0000
  H   H184      1.0  0.18716  0.32259  0.56440  1.0000
  S   S43       1.0  0.18016  0.47454  0.47477  1.0000
  H   H185      1.0  0.43099  0.30224  0.33919  1.0000
  C   C225      1.0  0.48558  0.07971  0.43186  1.0000
  S   S44       1.0  0.11489  0.47769  0.42769  1.0000
  C   C226      1.0  0.27818  0.37186  0.36693  1.0000
  C   C227      1.0  0.30514  0.44423  0.43490  1.0000
  C   C228      1.0  0.21450  0.32599  0.34721  1.0000
  C   C229      1.0  0.32135  0.30898  0.35377  1.0000
  C   C230      1.0  0.28851  0.28242  0.35002  1.0000
  C   C231      1.0  0.32962  0.47826  0.43393  1.0000
  H   H186      1.0  0.13841  0.47020  0.53826  1.0000
  Fe  Fe24      1.0  0.36648  0.01113  0.64049  1.0000
  C   C232      1.0  0.29243  0.44627  0.38861  1.0000
  H   H187      1.0  0.05679  0.48233  0.56123  1.0000
  H   H188      1.0  0.30049  0.03535  0.45214  1.0000
  H   H189      1.0  0.43704  0.01230  0.54989  1.0000
  C   C233      1.0  0.49249  0.46251  0.36502  1.0000
  C   C234      1.0  0.30990  0.13751  0.32410  1.0000
  H   H190      1.0  0.43195  0.01327  0.50141  1.0000
  C   C235      1.0  0.04420  0.47808  0.58014  1.0000
  C   C236      1.0  0.31697  0.48036  0.38775  1.0000
  C   C237      1.0  0.24333  0.33337  0.33264  1.0000
  C   C238      1.0  0.42837  0.49597  0.61245  1.0000
  H   H191      1.0  0.32128  0.49441  0.36955  1.0000
  C   C239      1.0  0.14100  0.49423  0.54358  1.0000
  H   H192      1.0  0.42041  0.44358  0.68989  1.0000
  H   H193      1.0  0.46385  0.16897  0.78003  1.0000
  Fe  Fe25      1.0  0.04977  0.41922  0.92354  1.0000
  S   S45       1.0  0.09927  0.46768  0.92503  1.0000
  S   S46       1.0  0.01403  0.39515  0.88818  1.0000
  Fe  Fe26      1.0  0.11494  0.44359  0.95697  1.0000
  S   S47       1.0  0.16623  0.44616  0.95403  1.0000
  H   H194      1.0  0.45034  0.49023  0.79233  1.0000
  S   S48       1.0  0.06658  0.39368  0.95306  1.0000
  S   S49       1.0  0.02624  0.43475  0.95559  1.0000
  H   H195      1.0  0.47022  0.07139  0.66128  1.0000
  Fe  Fe27      1.0  0.38442  0.06530  0.88790  1.0000
  S   S50       1.0  0.42934  0.11759  0.88811  1.0000
  S   S51       1.0  0.35765  0.02844  0.92181  1.0000
  Fe  Fe28      1.0  0.38461  0.06221  0.82633  1.0000
  S   S52       1.0  0.42970  0.11394  0.82243  1.0000
  S   S53       1.0  0.35815  0.02401  0.79369  1.0000
  Fe  Fe29      1.0  0.45037  0.09816  0.85674  1.0000
  H   H196      1.0  0.45459  0.08098  0.72761  1.0000
  Fe  Fe30      1.0  0.40429  0.12848  0.85386  1.0000
  S   S54       1.0  0.39168  0.17090  0.85338  1.0000
  S   S55       1.0  0.40697  0.04580  0.85839  1.0000
  S   S56       1.0  0.35775  0.07694  0.85583  1.0000
  S   S57       1.0  0.37209  0.05135  0.66966  1.0000
  Fe  Fe31      1.0  0.42468  0.34483  0.78887  1.0000
  S   S58       1.0  0.37081  0.33354  0.78762  1.0000
  S   S59       1.0  0.44540  0.30854  0.78943  1.0000
  Fe  Fe32      1.0  0.45229  0.42078  0.78407  1.0000
  S   S60       1.0  0.40105  0.41500  0.78276  1.0000
  C   C240      1.0  0.45530  0.28811  0.89631  1.0000
  Fe  Fe33      1.0  0.38847  0.37755  0.81555  1.0000
  S   S61       1.0  0.35483  0.37832  0.84825  1.0000
  Fe  Fe34      1.0  0.38758  0.37213  0.75486  1.0000
  S   S62       1.0  0.35302  0.36877  0.72101  1.0000
  S   S63       1.0  0.44116  0.38640  0.81903  1.0000
  S   S64       1.0  0.44011  0.38026  0.75394  1.0000
  C   C241      1.0  0.32718  0.09437  0.66878  1.0000
  C   C242      1.0  0.06616  0.49449  0.83781  1.0000
  C   C243      1.0  0.36461  0.37853  0.68728  1.0000
  C   C244      1.0  0.32156  0.29248  0.92586  1.0000
  H   H197      1.0  0.32759  0.39336  0.67989  1.0000
  H   H198      1.0  0.40261  0.36420  0.68776  1.0000
  C   C245      1.0  0.36824  0.39134  0.88116  1.0000
  C   C246      1.0  0.34843  0.39910  0.89774  1.0000
  C   C247      1.0  0.35796  0.40909  0.92417  1.0000
  C   C248      1.0  0.38708  0.41074  0.93437  1.0000
  C   C249      1.0  0.40669  0.40264  0.91785  1.0000
  C   C250      1.0  0.39756  0.39333  0.89129  1.0000
  H   H199      1.0  0.32562  0.39744  0.89007  1.0000
  H   H200      1.0  0.34249  0.41495  0.93674  1.0000
  H   H201      1.0  0.42876  0.40302  0.92578  1.0000
  H   H202      1.0  0.41286  0.38716  0.87880  1.0000
  C   C251      1.0  0.40638  0.20786  0.83380  1.0000
  C   C252      1.0  0.38713  0.22393  0.83309  1.0000
  C   C253      1.0  0.39856  0.25460  0.81961  1.0000
  C   C254      1.0  0.42964  0.26971  0.80659  1.0000
  C   C255      1.0  0.44849  0.25314  0.80652  1.0000
  C   C256      1.0  0.43698  0.22240  0.82008  1.0000
  C   C257      1.0  0.45925  0.47081  0.85180  1.0000
  H   H203      1.0  0.38337  0.26656  0.81935  1.0000
  H   H204      1.0  0.47229  0.26433  0.79612  1.0000
  H   H205      1.0  0.45205  0.21034  0.82036  1.0000
  C   C258      1.0  0.36354  0.03250  0.75936  1.0000
  C   C259      1.0  0.38026  0.06533  0.74942  1.0000
  C   C260      1.0  0.38277  0.07087  0.72188  1.0000
  C   C261      1.0  0.36935  0.04365  0.70413  1.0000
  C   C262      1.0  0.35359  0.01090  0.71410  1.0000
  C   C263      1.0  0.46431  0.44342  0.70420  1.0000
  H   H206      1.0  0.39073  0.08635  0.76296  1.0000
  H   H207      1.0  0.39514  0.09630  0.71432  1.0000
  H   H208      1.0  0.47882  0.45655  0.92264  1.0000
  C   C264      1.0  0.15564  0.39238  0.67494  1.0000
  C   C265      1.0  0.36338  0.03448  0.95655  1.0000
  C   C266      1.0  0.35704  0.44722  0.73997  1.0000
  C   C267      1.0  0.49198  0.09601  0.92656  1.0000
  H   H209      1.0  0.30057  0.27667  0.91306  1.0000
  H   H210      1.0  0.41480  0.02697  0.67742  1.0000
  C   C268      1.0  0.41201  0.47550  0.86793  1.0000
  H   H211      1.0  0.45882  0.03361  0.85066  1.0000
  C   C269      1.0  0.46385  0.02836  0.94148  1.0000
  C   C270      1.0  0.39688  0.37986  0.64864  1.0000
  C   C271      1.0  0.46884  0.05467  0.67698  1.0000
  H   H212      1.0  0.34197  0.35032  0.97486  1.0000
  H   H213      1.0  0.31508  0.20900  0.86450  1.0000
  Fe  Fe35      1.0  0.99523  0.38259  0.66586  1.0000
  C   C272      1.0  0.01999  0.39899  0.85317  1.0000
  C   C273      1.0  0.05190  0.41338  0.84148  1.0000
  C   C274      1.0  0.05508  0.41360  0.81365  1.0000
  C   C275      1.0  0.02652  0.39984  0.79709  1.0000
  C   C276      1.0  0.36068  0.12015  0.67083  1.0000
  H   H214      1.0  0.11889  0.38988  0.70296  1.0000
  H   H215      1.0  0.07407  0.42350  0.85389  1.0000
  H   H216      1.0  0.07985  0.42398  0.80491  1.0000
  C   C277      1.0  0.43752  0.02979  0.68617  1.0000
  S   S65       1.0  0.03213  0.39883  0.76221  1.0000
  H   H217      1.0  0.45300  0.41645  0.70244  1.0000
  C   C278      1.0  0.45726  0.07013  0.76859  1.0000
  H   H218      1.0  0.44418  0.09061  0.93781  1.0000
  C   C279      1.0  0.19854  0.45157  0.97668  1.0000
  C   C280      1.0  0.34454  0.33372  0.96099  1.0000
  C   C281      1.0  0.45995  0.49374  0.69999  1.0000
  C   C282      1.0  0.37971  0.06650  0.96793  1.0000
  H   H219      1.0  0.36630  0.49064  0.67224  1.0000
  Fe  Fe36      1.0  0.99515  0.38517  0.72757  1.0000
  H   H220      1.0  0.28413  0.20494  0.82364  1.0000
  C   C283      1.0  0.31431  0.11219  0.71010  1.0000
  H   H221      1.0  0.48144  0.24766  0.72519  1.0000
  H   H222      1.0  0.27013  0.44528  0.97742  1.0000
  S   S66       1.0  0.39927  0.42114  0.96786  1.0000
  H   H223      1.0  0.49291  0.31773  0.86715  1.0000
  H   H224      1.0  0.37946  0.27689  0.76109  1.0000
  C   C284      1.0  0.45920  0.07849  0.93647  1.0000
  H   H225      1.0  0.28962  0.17277  0.96267  1.0000
  H   H226      1.0  0.46964  0.46168  0.83686  1.0000
  C   C285      1.0  0.47792  0.07749  0.79073  1.0000
  H   H227      1.0  0.49121  0.45242  0.96937  1.0000
  H   H228      1.0  0.22413  0.43840  0.94739  1.0000
  H   H229      1.0  0.35084  0.15566  0.90744  1.0000
  C   C286      1.0  0.38921  0.46955  0.73022  1.0000
  H   H230      1.0  0.00942  0.48293  0.74907  1.0000
  C   C287      1.0  0.37889  0.31334  0.94085  1.0000
  H   H231      1.0  0.37135  0.21171  0.88848  1.0000
  C   C288      1.0  0.22442  0.44598  0.96770  1.0000
  C   C289      1.0  0.46464  0.01027  0.71694  1.0000
  H   H232      1.0  0.31007  0.13586  0.94476  1.0000
  H   H233      1.0  0.41098  0.44944  0.83244  1.0000
  C   C290      1.0  0.45433  0.18061  0.76659  1.0000
  C   C291      1.0  0.44520  0.04482  0.94376  1.0000
  H   H234      1.0  0.38916  0.08849  0.95541  1.0000
  H   H235      1.0  0.27811  0.07016  0.68692  1.0000
  H   H236      1.0  0.16981  0.38749  0.68969  1.0000
  H   H237      1.0  0.29608  0.10854  0.72527  1.0000
  H   H238      1.0  0.41936  0.03124  0.95045  1.0000
  C   C292      1.0  0.46420  0.22486  0.73568  1.0000
  H   H239      1.0  0.40280  0.31408  0.93970  1.0000
  C   C293      1.0  0.03471  0.49206  0.83465  1.0000
  C   C294      1.0  0.12702  0.39377  0.68246  1.0000
  H   H240      1.0  0.47121  0.28057  0.90654  1.0000
  H   H241      1.0  0.37879  0.12244  0.65601  1.0000
  C   C295      1.0  0.47099  0.08608  0.74455  1.0000
  C   C296      1.0  0.31759  0.08567  0.79437  1.0000
  C   C297      1.0  0.31046  0.10002  0.81599  1.0000
  C   C298      1.0  0.31857  0.13364  0.81505  1.0000
  C   C299      1.0  0.33356  0.15292  0.79241  1.0000
  C   C300      1.0  0.34023  0.13853  0.77041  1.0000
  C   C301      1.0  0.33246  0.10484  0.77169  1.0000
  P   P8        1.0  0.36191  0.16388  0.74187  1.0000
  C   C302      1.0  0.35239  0.19745  0.73846  1.0000
  C   C303      1.0  0.40681  0.18175  0.74631  1.0000
  C   C304      1.0  0.42945  0.21088  0.73236  1.0000
  H   H242      1.0  0.10606  0.35472  0.96337  1.0000
  H   H243      1.0  0.31952  0.07675  0.65245  1.0000
  C   C305      1.0  0.30395  0.09052  0.68831  1.0000
  C   C306      1.0  0.41953  0.16674  0.76351  1.0000
  C   C307      1.0  0.37113  0.22736  0.75277  1.0000
  C   C308      1.0  0.36453  0.25378  0.75012  1.0000
  C   C309      1.0  0.33901  0.25057  0.73319  1.0000
  C   C310      1.0  0.31995  0.22076  0.71901  1.0000
  C   C311      1.0  0.32654  0.19424  0.72163  1.0000
  C   C312      1.0  0.34815  0.13769  0.71263  1.0000
  S   S67       1.0  0.01522  0.42442  0.69563  1.0000
  C   C313      1.0  0.36419  0.47908  0.69131  1.0000
  H   H244      1.0  0.36308  0.21245  0.84295  1.0000
  C   C314      1.0  0.34720  0.38988  0.67125  1.0000
  C   C315      1.0  0.37119  0.14174  0.69266  1.0000
  H   H245      1.0  0.31231  0.05988  0.79539  1.0000
  H   H246      1.0  0.29952  0.08535  0.83377  1.0000
  H   H247      1.0  0.31441  0.14512  0.83227  1.0000
  H   H248      1.0  0.34055  0.17915  0.79245  1.0000
  H   H249      1.0  0.33836  0.09342  0.75536  1.0000
  H   H250      1.0  0.42024  0.22294  0.71902  1.0000
  C   C316      1.0  0.35220  0.29258  0.92391  1.0000
  C   C317      1.0  0.42613  0.46415  0.84898  1.0000
  H   H251      1.0  0.28243  0.25479  0.80663  1.0000
  H   H252      1.0  0.40276  0.14455  0.77479  1.0000
  H   H253      1.0  0.39105  0.23034  0.76592  1.0000
  H   H254      1.0  0.46694  0.06595  0.80955  1.0000
  H   H255      1.0  0.33416  0.27128  0.73103  1.0000
  H   H256      1.0  0.30018  0.21835  0.70589  1.0000
  H   H257      1.0  0.31154  0.17147  0.71042  1.0000
  H   H258      1.0  0.45652  0.33508  0.84390  1.0000
  H   H259      1.0  0.39744  0.16089  0.69411  1.0000
  C   C318      1.0  0.38961  0.37369  0.67582  1.0000
  C   C319      1.0  0.47664  0.20969  0.75272  1.0000
  H   H260      1.0  0.34426  0.31387  0.87121  1.0000
  H   H261      1.0  0.45831  0.00220  0.79474  1.0000
  H   H262      1.0  0.39839  0.31423  0.85850  1.0000
  H   H263      1.0  0.05743  0.47323  0.75512  1.0000
  C   C320      1.0  0.44593  0.45890  0.69707  1.0000
  H   H264      1.0  0.43051  0.05238  0.77027  1.0000
  C   C321      1.0  0.31276  0.28706  0.83828  1.0000
  C   C322      1.0  0.29603  0.25658  0.82466  1.0000
  C   C323      1.0  0.29702  0.22856  0.83425  1.0000
  C   C324      1.0  0.31478  0.23105  0.85745  1.0000
  C   C325      1.0  0.33204  0.26175  0.87109  1.0000
  C   C326      1.0  0.33092  0.28977  0.86125  1.0000
  P   P9        1.0  0.35694  0.26593  0.90011  1.0000
  H   H265      1.0  0.29456  0.31373  0.94521  1.0000
  C   C327      1.0  0.34219  0.22484  0.91461  1.0000
  C   C328      1.0  0.35346  0.20364  0.90461  1.0000
  C   C329      1.0  0.34188  0.17172  0.91541  1.0000
  C   C330      1.0  0.31893  0.16061  0.93636  1.0000
  C   C331      1.0  0.30745  0.18143  0.94643  1.0000
  C   C332      1.0  0.31893  0.21339  0.93558  1.0000
  Fe  Fe37      1.0  0.07611  0.48183  0.95826  1.0000
  C   C333      1.0  0.32851  0.44067  0.72541  1.0000
  C   C334      1.0  0.48421  0.03868  0.85302  1.0000
  C   C335      1.0  0.42216  0.27606  0.90479  1.0000
  H   H266      1.0  0.30370  0.42266  0.73277  1.0000
  C   C336      1.0  0.40080  0.28440  0.89086  1.0000
  C   C337      1.0  0.41386  0.30677  0.86942  1.0000
  H   H267      1.0  0.31205  0.30886  0.83087  1.0000
  C   C338      1.0  0.43530  0.00785  0.70616  1.0000
  C   C339      1.0  0.46759  0.30916  0.87425  1.0000
  H   H268      1.0  0.35416  0.43420  0.75851  1.0000
  C   C340      1.0  0.44707  0.31893  0.86113  1.0000
  C   C341      1.0  0.37499  0.33379  0.95932  1.0000
  C   C342      1.0  0.33207  0.45672  0.70116  1.0000
  H   H269      1.0  0.30959  0.22899  0.94362  1.0000
  H   H270      1.0  0.38596  0.46927  0.86604  1.0000
  H   H271      1.0  0.39583  0.35053  0.97194  1.0000
  H   H272      1.0  0.41306  0.25965  0.92186  1.0000
  H   H273      1.0  0.41106  0.47380  0.74159  1.0000
  H   H274      1.0  0.12417  0.47125  0.67405  1.0000
  C   C343      1.0  0.31788  0.31317  0.94422  1.0000
  H   H275      1.0  0.00793  0.48435  0.96133  1.0000
  C   C344      1.0  0.35038  0.00539  0.74159  1.0000
  H   H276      1.0  0.02228  0.48410  0.81568  1.0000
  H   H277      1.0  0.07731  0.48815  0.82154  1.0000
  H   H278      1.0  0.02913  0.49007  0.69336  1.0000
  C   C345      1.0  0.10863  0.39991  0.66347  1.0000
  C   C346      1.0  0.16580  0.39696  0.64842  1.0000
  H   H279      1.0  0.08618  0.40061  0.66921  1.0000
  C   C347      1.0  0.39304  0.48556  0.70573  1.0000
  H   H280      1.0  0.30993  0.45123  0.68973  1.0000
  C   C348      1.0  0.49098  0.01206  0.85117  1.0000
  C   C349      1.0  0.35114  0.00614  0.97316  1.0000
  C   C350      1.0  0.47845  0.48885  0.87380  1.0000
  H   H281      1.0  0.49411  0.43939  0.65730  1.0000
  C   C351      1.0  0.13370  0.49487  0.66354  1.0000
  H   H282      1.0  0.42517  0.49548  0.96495  1.0000
  C   C352      1.0  0.43121  0.49414  0.88955  1.0000
  H   H283      1.0  0.16404  0.37415  0.97915  1.0000
  S   S68       1.0  0.02959  0.69975  0.99800  1.0000
  Fe  Fe38      1.0  0.08854  0.67076  0.18864  1.0000
  S   S69       1.0  0.03524  0.65954  0.18852  1.0000
  S   S70       1.0  0.09787  0.62661  0.19189  1.0000
  Fe  Fe39      1.0  0.11542  0.74610  0.18096  1.0000
  S   S71       1.0  0.06272  0.73840  0.17966  1.0000
  S   S72       1.0  0.15733  0.80120  0.18081  1.0000
  Fe  Fe40      1.0  0.05216  0.70418  0.21470  1.0000
  H   H284      1.0  0.17128  0.51748  0.09262  1.0000
  Fe  Fe41      1.0  0.05092  0.69421  0.15371  1.0000
  H   H285      1.0  0.07590  0.66399  0.10376  1.0000
  S   S73       1.0  0.10524  0.71384  0.21753  1.0000
  S   S74       1.0  0.10400  0.70392  0.15243  1.0000
  Fe  Fe42      1.0  0.32695  0.94438  0.11233  1.0000
  H   H286      1.0  0.06745  0.69863  0.27952  1.0000
  S   S75       1.0  0.28725  0.88847  0.10873  1.0000
  H   H287      1.0  0.01556  0.75337  0.02848  1.0000
  S   S76       1.0  0.36435  0.96486  0.14589  1.0000
  S   S77       1.0  0.36723  0.96462  0.08070  1.0000
  S   S78       1.0  0.45757  0.55638  0.03247  1.0000
  C   C353      1.0  0.04646  0.57022  0.09041  1.0000
  C   C354      1.0  0.27968  0.95591  0.21729  1.0000
  C   C355      1.0  0.14276  0.59294  0.11758  1.0000
  C   C356      1.0  0.44095  0.56743  0.12428  1.0000
  P   P10       1.0  0.02222  0.57113  0.29161  1.0000
  C   C357      1.0  0.19278  0.82465  0.15991  1.0000
  C   C358      1.0  0.21176  0.85971  0.16321  1.0000
  C   C359      1.0  0.24048  0.87965  0.14762  1.0000
  C   C360      1.0  0.25078  0.86462  0.12858  1.0000
  C   C361      1.0  0.23151  0.82955  0.12493  1.0000
  C   C362      1.0  0.20265  0.80963  0.14051  1.0000
  H   H288      1.0  0.20405  0.87154  0.17787  1.0000
  H   H289      1.0  0.25479  0.90658  0.15051  1.0000
  H   H290      1.0  0.23908  0.81770  0.11009  1.0000
  H   H291      1.0  0.18829  0.78272  0.13774  1.0000
  C   C363      1.0  0.14903  0.84216  0.10790  1.0000
  C   C364      1.0  0.03403  0.52575  0.20080  1.0000
  C   C365      1.0  0.06320  0.55790  0.20034  1.0000
  C   C366      1.0  0.06153  0.58598  0.19134  1.0000
  C   C367      1.0  0.03083  0.58125  0.18186  1.0000
  P   P11       1.0  0.41911  0.52779  0.19928  1.0000
  H   H292      1.0  0.08685  0.56110  0.20752  1.0000
  H   H293      1.0  0.16028  0.87474  0.02060  1.0000
  C   C368      1.0  0.29702  0.91778  0.26507  1.0000
  H   H294      1.0  0.22051  0.53725  0.02518  1.0000
  C   C369      1.0  0.27212  0.97814  0.20422  1.0000
  H   H295      1.0  0.15882  0.61977  0.12050  1.0000
  H   H296      1.0  0.46717  0.50288  0.28842  1.0000
  C   C370      1.0  0.02556  0.68932  0.03192  1.0000
  C   C371      1.0  0.01865  0.67780  0.08694  1.0000
  C   C372      1.0  0.04936  0.70263  0.07651  1.0000
  C   C373      1.0  0.05271  0.70849  0.04905  1.0000
  H   H297      1.0  0.07018  0.71766  0.08964  1.0000
  H   H298      1.0  0.07618  0.72830  0.04105  1.0000
  H   H299      1.0  0.30518  0.83185  0.16505  1.0000
  C   C374      1.0  0.20188  0.54522  0.02431  1.0000
  H   H300      1.0  0.31904  0.89070  0.15862  1.0000
  C   C375      1.0  0.42475  0.56532  0.21545  1.0000
  C   C376      1.0  0.40718  0.58104  0.20619  1.0000
  C   C377      1.0  0.41134  0.61016  0.21849  1.0000
  C   C378      1.0  0.43264  0.62346  0.24039  1.0000
  C   C379      1.0  0.44929  0.60729  0.25026  1.0000
  C   C380      1.0  0.44494  0.57806  0.23809  1.0000
  C   C381      1.0  0.27097  0.67388  0.08810  1.0000
  C   C382      1.0  0.42363  0.53267  0.16385  1.0000
  C   C383      1.0  0.29594  0.89299  0.19507  1.0000
  H   H301      1.0  0.39795  0.62235  0.21111  1.0000
  H   H302      1.0  0.43599  0.64607  0.24990  1.0000
  H   H303      1.0  0.13420  0.57217  0.02059  1.0000
  H   H304      1.0  0.45716  0.56542  0.24655  1.0000
  C   C384      1.0  0.10141  0.81591  0.02672  1.0000
  H   H305      1.0  0.12107  0.58546  0.15664  1.0000
  C   C385      1.0  0.10252  0.52335  0.11178  1.0000
  C   C386      1.0  0.30595  0.87732  0.17638  1.0000
  H   H306      1.0  0.18679  0.92972  0.20199  1.0000
  C   C387      1.0  0.15329  0.56496  0.02193  1.0000
  Fe  Fe43      1.0  0.40982  0.50477  0.03131  1.0000
  C   C388      1.0  0.06275  0.60914  0.28905  1.0000
  H   H307      1.0  0.08639  0.81012  0.15390  1.0000
  C   C389      1.0  0.27123  0.84232  0.22167  1.0000
  C   C390      1.0  0.43174  0.53900  0.10872  1.0000
  H   H308      1.0  0.14430  0.79488  0.29250  1.0000
  C   C391      1.0  0.05493  0.50723  0.26676  1.0000
  C   C392      1.0  0.15866  0.76830  0.08034  1.0000
  C   C393      1.0  0.17601  0.57561  0.04323  1.0000
  C   C394      1.0  0.22011  0.91489  0.21966  1.0000
  H   H309      1.0  0.18473  0.68104  0.99723  1.0000
  C   C395      1.0  0.10776  0.65142  0.26185  1.0000
  C   C396      1.0  0.07690  0.62154  0.26406  1.0000
  C   C397      1.0  0.05318  0.53624  0.27190  1.0000
  C   C398      1.0  0.43732  0.56440  0.15180  1.0000
  C   C399      1.0  0.17178  0.81175  0.25586  1.0000
  C   C400      1.0  0.12172  0.57354  0.13826  1.0000
  H   H310      1.0  0.02931  0.60178  0.17332  1.0000
  C   C401      1.0  0.27801  0.65911  0.10949  1.0000
  C   C402      1.0  0.08190  0.79124  0.11416  1.0000
  H   H311      1.0  0.27498  0.80087  0.20563  1.0000
  H   H312      1.0  0.35426  0.50049  0.17126  1.0000
  C   C403      1.0  0.41852  0.50747  0.12064  1.0000
  H   H313      1.0  0.05628  0.77083  0.11693  1.0000
  H   H314      1.0  0.31946  0.88625  0.26067  1.0000
  H   H315      1.0  0.43493  0.54135  0.08741  1.0000
  H   H316      1.0  0.21254  0.73817  0.07299  1.0000
  H   H317      1.0  0.06026  0.81189  0.00323  1.0000
  H   H318      1.0  0.11857  0.66067  0.24249  1.0000
  C   C404      1.0  0.00176  0.54954  0.18285  1.0000
  H   H319      1.0  0.25913  0.61582  0.13498  1.0000
  C   C405      1.0  0.24460  0.91055  0.05877  1.0000
  C   C406      1.0  0.42829  0.99039  0.02795  1.0000
  C   C407      1.0  0.14372  0.57772  0.09372  1.0000
  C   C408      1.0  0.00070  0.50266  0.29549  1.0000
  H   H320      1.0  0.13219  0.63261  0.08402  1.0000
  C   C409      1.0  0.41456  0.50429  0.14806  1.0000
  H   H321      1.0  0.03655  0.54356  0.08759  1.0000
  H   H322      1.0  0.14636  0.77718  0.01185  1.0000
  H   H323      1.0  0.49136  0.56519  0.21251  1.0000
  H   H324      1.0  0.14561  0.85523  0.14827  1.0000
  C   C410      1.0  0.18355  0.88421  0.03149  1.0000
  H   H325      1.0  0.06402  0.60815  0.24624  1.0000
  C   C411      1.0  0.17294  0.74796  0.08424  1.0000
  H   H326      1.0  0.30240  0.67228  0.11911  1.0000
  C   C412      1.0  0.22219  0.61027  0.10600  1.0000
  H   H327      1.0  0.19945  0.89053  0.22527  1.0000
  H   H328      1.0  0.22287  0.86287  0.07845  1.0000
  C   C413      1.0  0.05605  0.52972  0.04060  1.0000
  H   H329      1.0  0.34486  0.98770  0.01344  1.0000
  C   C414      1.0  0.05792  0.62473  0.07458  1.0000
  C   C415      1.0  0.48291  0.53875  0.21320  1.0000
  C   C416      1.0  0.15341  0.68117  0.02891  1.0000
  C   C417      1.0  0.11059  0.65735  0.30946  1.0000
  C   C418      1.0  0.13879  0.66744  0.05333  1.0000
  C   C419      1.0  0.29819  0.84410  0.18003  1.0000
  C   C420      1.0  0.41911  0.93876  0.17591  1.0000
  C   C421      1.0  0.39459  0.92305  0.19549  1.0000
  C   C422      1.0  0.39934  0.93776  0.22048  1.0000
  C   C423      1.0  0.24003  0.93020  0.04000  1.0000
  C   C424      1.0  0.08330  0.59970  0.00078  1.0000
  H   H330      1.0  0.20376  0.58552  0.11312  1.0000
  H   H331      1.0  0.17536  0.86120  0.10639  1.0000
  H   H332      1.0  0.15231  0.79147  0.24421  1.0000
  C   C425      1.0  0.09881  0.81331  0.13499  1.0000
  H   H333      1.0  0.23483  0.66887  0.05907  1.0000
  C   C426      1.0  0.13224  0.82015  0.08684  1.0000
  C   C427      1.0  0.22173  0.86486  0.28540  1.0000
  C   C428      1.0  0.48781  0.50233  0.09483  1.0000
  H   H334      1.0  0.41531  0.92785  0.15630  1.0000
  H   H335      1.0  0.37192  0.89955  0.19124  1.0000
  H   H336      1.0  0.38017  0.92576  0.23554  1.0000
  H   H337      1.0  0.30175  0.91851  0.19139  1.0000
  C   C429      1.0  0.06847  0.63803  0.09988  1.0000
  C   C430      1.0  0.12591  0.80626  0.02944  1.0000
  H   H338      1.0  0.42578  0.95776  0.05955  1.0000
  H   H339      1.0  0.45110  0.59181  0.11490  1.0000
  H   H340      1.0  0.26021  0.95563  0.03604  1.0000
  C   C431      1.0  0.05198  0.62910  0.00413  1.0000
  H   H341      1.0  0.14819  0.69280  0.28268  1.0000
  H   H342      1.0  0.44560  0.58690  0.16345  1.0000
  C   C432      1.0  0.14409  0.64294  0.06520  1.0000
  H   H343      1.0  0.18087  0.51965  0.98739  1.0000
  H   H344      1.0  0.05705  0.64072  0.05921  1.0000
  H   H345      1.0  0.03179  0.63201  0.01240  1.0000
  H   H346      1.0  0.08726  0.57914  0.00578  1.0000
  H   H347      1.0  0.07629  0.62801  0.13997  1.0000
  C   C433      1.0  0.06837  0.61763  0.12035  1.0000
  H   H348      1.0  0.07818  0.55054  0.04940  1.0000
  H   H349      1.0  0.39030  0.57079  0.18941  1.0000
  H   H350      1.0  0.08602  0.52366  0.15175  1.0000
  C   C434      1.0  0.05708  0.58368  0.11571  1.0000
  C   C435      1.0  0.29933  0.94569  0.27837  1.0000
  C   C436      1.0  0.02843  0.53331  0.03319  1.0000
  C   C437      1.0  0.17279  0.79480  0.06193  1.0000
  P   P12       1.0  0.03037  0.57344  0.03746  1.0000
  C   C438      1.0  0.04738  0.59087  0.06952  1.0000
  C   C439      1.0  0.05704  0.60271  0.01228  1.0000
  H   H351      1.0  0.14890  0.69988  0.01969  1.0000
  H   H352      1.0  0.12338  0.67598  0.06304  1.0000
  H   H353      1.0  0.26828  0.92081  0.06938  1.0000
  C   C440      1.0  0.07919  0.80452  0.00525  1.0000
  C   C441      1.0  0.09845  0.79474  0.09012  1.0000
  H   H354      1.0  0.05580  0.56763  0.13194  1.0000
  C   C442      1.0  0.27789  0.87539  0.21766  1.0000
  C   C443      1.0  0.21877  0.87770  0.06388  1.0000
  H   H355      1.0  0.08522  0.77686  0.07446  1.0000
  H   H356      1.0  0.28997  0.69849  0.08113  1.0000
  H   H357      1.0  0.20412  0.83445  0.22239  1.0000
  H   H358      1.0  0.07273  0.55997  0.26414  1.0000
  H   H359      1.0  0.21803  0.57296  0.06050  1.0000
  S   S79       1.0  0.01205  0.67062  0.12123  1.0000
  P   P13       1.0  0.15478  0.82158  0.05709  1.0000
  C   C444      1.0  0.43373  0.94117  0.02176  1.0000
  C   C445      1.0  0.20114  0.80028  0.04728  1.0000
  P   P14       1.0  0.17413  0.60258  0.06849  1.0000
  C   C446      1.0  0.25363  0.62731  0.11842  1.0000
  H   H360      1.0  0.01518  0.76292  0.07678  1.0000
  H   H361      1.0  0.12365  0.53019  0.07295  1.0000
  C   C447      1.0  0.20951  0.91704  0.02638  1.0000
  C   C448      1.0  0.10544  0.77362  0.98899  1.0000
  C   C449      1.0  0.17356  0.67056  0.01629  1.0000
  C   C450      1.0  0.05558  0.49945  0.03617  1.0000
  S   S80       1.0  0.45158  0.98528  0.11201  1.0000
  C   C451      1.0  0.21480  0.62500  0.08455  1.0000
  H   H362      1.0  0.13699  0.76354  0.09209  1.0000
  C   C452      1.0  0.18806  0.86413  0.05019  1.0000
  C   C453      1.0  0.16728  0.81377  0.28299  1.0000
  C   C454      1.0  0.21272  0.93713  0.20640  1.0000
  C   C455      1.0  0.21534  0.77984  0.05122  1.0000
  C   C456      1.0  0.44852  0.96901  0.18139  1.0000
  C   C457      1.0  0.20129  0.75373  0.06972  1.0000
  H   H363      1.0  0.21247  0.82053  0.03298  1.0000
  S   S81       1.0  0.01498  0.69948  0.24675  1.0000
  C   C458      1.0  0.16460  0.63232  0.05278  1.0000
  C   C459      1.0  0.25371  0.92392  0.22497  1.0000
  C   C460      1.0  0.28108  0.82668  0.20279  1.0000
  H   H364      1.0  0.16230  0.72806  0.09890  1.0000
  C   C461      1.0  0.12315  0.54276  0.09089  1.0000
  H   H365      1.0  0.47566  0.56049  0.28758  1.0000
  C   C462      1.0  0.43845  0.97608  0.98393  1.0000
  Fe  Fe44      1.0  0.40396  0.98854  0.11409  1.0000
  C   C463      1.0  0.34972  0.95444  0.30090  1.0000
  H   H366      1.0  0.23756  0.78460  0.04017  1.0000
  C   C464      1.0  0.42913  0.96272  0.03847  1.0000
  C   C465      1.0  0.42881  0.96803  0.22604  1.0000
  C   C466      1.0  0.23953  0.65693  0.07563  1.0000
  C   C467      1.0  0.07278  0.65190  0.98484  1.0000
  P   P15       1.0  0.26361  0.89496  0.24146  1.0000
  C   C468      1.0  0.22654  0.86277  0.25817  1.0000
  C   C469      1.0  0.07990  0.62727  0.31179  1.0000
  C   C470      1.0  0.32093  0.90793  0.27035  1.0000
  H   H367      1.0  0.46558  0.61733  0.26742  1.0000
  C   C471      1.0  0.04644  0.69391  0.29209  1.0000
  H   H368      1.0  0.25802  0.82836  0.23917  1.0000
  C   C472      1.0  0.44900  0.51491  0.20865  1.0000
  C   C473      1.0  0.20123  0.83615  0.24351  1.0000
  C   C474      1.0  0.08112  0.78327  0.98646  1.0000
  H   H369      1.0  0.30583  0.96371  0.22124  1.0000
  H   H370      1.0  0.48294  0.50886  0.02884  1.0000
  H   H371      1.0  0.24054  0.88539  0.29713  1.0000
  H   H372      1.0  0.19503  0.63853  0.01807  1.0000
  S   S82       1.0  0.31993  0.98957  0.10989  1.0000
  H   H373      1.0  0.13821  0.53770  0.98509  1.0000
  H   H374      1.0  0.09963  0.83240  0.04113  1.0000
  C   C475      1.0  0.13223  0.83887  0.13178  1.0000
  C   C476      1.0  0.12788  0.78513  0.01032  1.0000
  H   H375      1.0  0.20603  0.93233  0.01179  1.0000
  H   H376      1.0  0.28107  0.95364  0.27486  1.0000
  C   C477      1.0  0.17910  0.64623  0.02811  1.0000
  C   C478      1.0  0.19224  0.84031  0.29776  1.0000
  C   C479      1.0  0.12451  0.66944  0.28450  1.0000
  C   C480      1.0  0.01776  0.69249  0.28105  1.0000
  C   C481      1.0  0.20025  0.56541  0.04435  1.0000
  C   C482      1.0  0.15537  0.54525  0.00178  1.0000
  C   C483      1.0  0.32561  0.96392  0.29617  1.0000
  H   H377      1.0  0.43359  0.91930  0.02990  1.0000
  C   C484      1.0  0.23872  0.96872  0.19862  1.0000
  H   H378      1.0  0.23308  0.98590  0.18816  1.0000
  C   C485      1.0  0.00305  0.52172  0.19255  1.0000
  C   C486      1.0  0.10179  0.53873  0.13544  1.0000
  C   C487      1.0  0.43815  0.94764  0.99458  1.0000
  C   C488      1.0  0.17953  0.53524  0.00298  1.0000
  C   C489      1.0  0.34726  0.92633  0.28815  1.0000
  H   H379      1.0  0.43201  0.97884  0.24555  1.0000
  H   H380      1.0  0.03528  0.50440  0.20836  1.0000
  H   H381      1.0  0.01371  0.62596  0.27062  1.0000
  H   H382      1.0  0.46729  0.98100  0.16600  1.0000
  H   H383      1.0  0.36596  0.91900  0.29196  1.0000
  C   C490      1.0  0.45367  0.98380  0.20648  1.0000
  H   H384      1.0  0.07568  0.50883  0.25535  1.0000
  C   C491      1.0  0.02622  0.53426  0.28658  1.0000
  H   H385      1.0  0.32785  0.98597  0.30592  1.0000
  C   C492      1.0  0.99657  0.60310  0.26016  1.0000
  C   C493      1.0  0.00036  0.50597  0.02134  1.0000
  H   H386      1.0  0.07700  0.49679  0.04144  1.0000
  C   C494      1.0  0.99536  0.66362  0.04233  1.0000
  C   C495      1.0  0.10413  0.62265  0.98162  1.0000
  H   H387      1.0  0.44093  0.93020  0.98190  1.0000
  C   C496      1.0  0.49214  0.52407  0.28573  1.0000
  H   H388      1.0  0.08758  0.49624  0.10988  1.0000
  S   S83       1.0  0.07990  0.53556  0.45040  1.0000
  H   H389      1.0  0.37673  0.52929  0.50281  1.0000
  C   C497      1.0  0.02131  0.68420  0.33640  1.0000
  H   H390      1.0  0.01018  0.55157  0.54252  1.0000
  H   H391      1.0  0.07074  0.69178  0.32805  1.0000
  H   H392      1.0  0.06960  0.61862  0.33136  1.0000
  C   C498      1.0  0.01037  0.58833  0.62554  1.0000
  C   C499      1.0  0.04361  0.53979  0.44839  1.0000
  C   C500      1.0  0.04792  0.57200  0.44497  1.0000
  C   C501      1.0  0.01998  0.57686  0.44465  1.0000
  C   C502      1.0  0.24439  0.86475  0.62727  1.0000
  C   C503      1.0  0.16197  0.52275  0.52864  1.0000
  H   H393      1.0  0.07300  0.59332  0.44241  1.0000
  H   H394      1.0  0.02376  0.60160  0.44124  1.0000
  S   S84       1.0  0.02078  0.71655  0.49665  1.0000
  C   C504      1.0  0.41680  0.53641  0.35784  1.0000
  H   H395      1.0  0.42033  0.52355  0.47955  1.0000
  Fe  Fe45      1.0  0.32622  0.94323  0.61287  1.0000
  H   H396      1.0  0.02581  0.79618  0.61074  1.0000
  S   S85       1.0  0.27427  0.89643  0.60551  1.0000
  C   C505      1.0  0.06097  0.49760  0.60236  1.0000
  H   H397      1.0  0.43590  0.56455  0.32168  1.0000
  S   S86       1.0  0.36880  0.95454  0.58423  1.0000
  S   S87       1.0  0.44646  0.53261  0.53065  1.0000
  H   H398      1.0  0.12337  0.67138  0.32707  1.0000
  C   C506      1.0  0.01694  0.70474  0.53026  1.0000
  C   C507      1.0  0.42603  0.55731  0.44758  1.0000
  H   H399      1.0  0.42018  0.52345  0.58167  1.0000
  C   C508      1.0  0.42195  0.54443  0.62003  1.0000
  H   H400      1.0  0.15175  0.58082  0.56247  1.0000
  C   C509      1.0  0.41372  0.57748  0.43713  1.0000
  C   C510      1.0  0.43964  0.97093  0.49475  1.0000
  C   C511      1.0  0.22204  0.49880  0.55816  1.0000
  H   H401      1.0  0.29086  0.91110  0.44086  1.0000
  C   C512      1.0  0.04070  0.71521  0.57488  1.0000
  C   C513      1.0  0.04366  0.72360  0.54782  1.0000
  H   H402      1.0  0.06142  0.72969  0.58827  1.0000
  H   H403      1.0  0.06673  0.74470  0.54046  1.0000
  S   S88       1.0  0.02610  0.68190  0.37112  1.0000
  H   H404      1.0  0.02453  0.54034  0.34222  1.0000
  H   H405      1.0  0.47796  0.99480  0.37354  1.0000
  C   C514      1.0  0.42343  0.52161  0.60268  1.0000
  H   H406      1.0  0.45266  0.92799  0.54410  1.0000
  H   H407      1.0  0.34304  0.98902  0.50814  1.0000
  H   H408      1.0  0.00934  0.52073  0.59747  1.0000
  C   C515      1.0  0.42417  0.90729  0.44583  1.0000
  C   C516      1.0  0.04821  0.68996  0.31963  1.0000
  C   C517      1.0  0.34006  0.93078  0.42336  1.0000
  S   S89       1.0  0.00861  0.65273  0.44084  1.0000
  C   C518      1.0  0.48310  0.93382  0.41579  1.0000
  C   C519      1.0  0.37466  0.56257  0.47375  1.0000
  H   H409      1.0  0.35492  0.56457  0.48393  1.0000
  C   C520      1.0  0.11562  0.49713  0.64213  1.0000
  H   H410      1.0  0.48212  0.62713  0.43893  1.0000
  H   H411      1.0  0.39346  0.51730  0.34899  1.0000
  C   C521      1.0  0.01095  0.51235  0.45113  1.0000
  C   C522      1.0  0.11169  0.59096  0.62041  1.0000
  H   H412      1.0  0.48918  0.98203  0.42387  1.0000
  C   C523      1.0  0.21777  0.52179  0.57333  1.0000
  H   H413      1.0  0.11670  0.63740  0.63486  1.0000
  H   H414      1.0  0.23101  0.54818  0.56803  1.0000
  H   H415      1.0  0.35417  0.52285  0.40988  1.0000
  C   C524      1.0  0.38804  0.57992  0.45009  1.0000
  H   H416      1.0  0.42407  0.59158  0.41904  1.0000
  C   C525      1.0  0.49428  0.51282  0.53486  1.0000
  C   C526      1.0  0.08654  0.60391  0.57420  1.0000
  H   H417      1.0  0.16816  0.57928  0.62567  1.0000
  C   C527      1.0  0.38681  0.54262  0.48433  1.0000
  C   C528      1.0  0.33550  0.49637  0.41043  1.0000
  H   H418      1.0  0.48919  0.60782  0.34183  1.0000
  C   C529      1.0  0.46710  0.51032  0.46407  1.0000
  Fe  Fe46      1.0  0.40317  0.97599  0.61959  1.0000
  C   C530      1.0  0.32956  0.92654  0.47053  1.0000
  P   P16       1.0  0.43175  0.96924  0.45965  1.0000
  C   C531      1.0  0.15808  0.55574  0.63634  1.0000
  C   C532      1.0  0.45979  0.51659  0.43844  1.0000
  C   C533      1.0  0.37457  0.94482  0.42812  1.0000
  C   C534      1.0  0.45368  0.55838  0.39618  1.0000
  H   H419      1.0  0.44813  0.92852  0.49562  1.0000
  C   C535      1.0  0.46317  0.89909  0.41894  1.0000
  H   H420      1.0  0.37869  0.59550  0.44192  1.0000
  P   P17       1.0  0.46032  0.55561  0.43114  1.0000
  C   C536      1.0  0.01060  0.68847  0.58458  1.0000
  C   C537      1.0  0.02765  0.52466  0.51884  1.0000
  C   C538      1.0  0.48822  0.53945  0.53121  1.0000
  C   C539      1.0  0.08510  0.72813  0.44927  1.0000
  C   C540      1.0  0.09137  0.71649  0.42564  1.0000
  C   C541      1.0  0.10435  0.69472  0.42628  1.0000
  C   C542      1.0  0.11124  0.68472  0.45054  1.0000
  C   C543      1.0  0.10535  0.69666  0.47443  1.0000
  C   C544      1.0  0.09173  0.71797  0.47352  1.0000
  P   P18       1.0  0.10947  0.68040  0.50595  1.0000
  C   C545      1.0  0.06716  0.65448  0.51844  1.0000
  C   C546      1.0  0.12911  0.65524  0.50067  1.0000
  C   C547      1.0  0.11036  0.61997  0.50152  1.0000
  C   C548      1.0  0.12594  0.60107  0.49630  1.0000
  C   C549      1.0  0.16008  0.61713  0.48970  1.0000
  C   C550      1.0  0.17901  0.65222  0.48908  1.0000
  C   C551      1.0  0.16362  0.67124  0.49462  1.0000
  C   C552      1.0  0.05930  0.65564  0.54511  1.0000
  C   C553      1.0  0.02704  0.63337  0.55471  1.0000
  H   H421      1.0  0.04182  0.56625  0.62952  1.0000
  C   C554      1.0  0.38690  0.95029  0.45415  1.0000
  C   C555      1.0  0.04166  0.63225  0.50127  1.0000
  C   C556      1.0  0.13561  0.71236  0.52977  1.0000
  C   C557      1.0  0.14609  0.74650  0.52591  1.0000
  C   C558      1.0  0.16531  0.77027  0.54524  1.0000
  C   C559      1.0  0.17449  0.76026  0.56840  1.0000
  C   C560      1.0  0.16478  0.72650  0.57216  1.0000
  C   C561      1.0  0.14571  0.70271  0.55285  1.0000
  H   H422      1.0  0.07360  0.74379  0.44889  1.0000
  H   H423      1.0  0.08494  0.72329  0.40686  1.0000
  H   H424      1.0  0.10793  0.68472  0.40792  1.0000
  H   H425      1.0  0.12002  0.66683  0.45042  1.0000
  H   H426      1.0  0.08513  0.72587  0.49163  1.0000
  H   H427      1.0  0.08366  0.60688  0.50554  1.0000
  H   H428      1.0  0.11129  0.57385  0.49645  1.0000
  H   H429      1.0  0.17159  0.60226  0.48453  1.0000
  H   H430      1.0  0.20545  0.66466  0.48381  1.0000
  H   H431      1.0  0.17843  0.69842  0.49364  1.0000
  H   H432      1.0  0.07772  0.67372  0.55860  1.0000
  C   C562      1.0  0.01143  0.55418  0.34534  1.0000
  C   C563      1.0  0.00246  0.77857  0.60101  1.0000
  C   C564      1.0  0.14803  0.55636  0.55721  1.0000
  H   H433      1.0  0.04702  0.63160  0.48053  1.0000
  H   H434      1.0  0.13969  0.75511  0.50816  1.0000
  H   H435      1.0  0.17296  0.79652  0.54237  1.0000
  H   H436      1.0  0.18918  0.77867  0.58343  1.0000
  H   H437      1.0  0.17189  0.71882  0.59019  1.0000
  H   H438      1.0  0.13845  0.67666  0.55604  1.0000
  C   C565      1.0  0.43714  0.99488  0.51036  1.0000
  H   H439      1.0  0.99708  0.73593  0.62286  1.0000
  C   C566      1.0  0.09661  0.62648  0.59537  1.0000
  H   H440      1.0  0.07602  0.60829  0.55655  1.0000
  P   P19       1.0  0.10445  0.53054  0.60067  1.0000
  C   C567      1.0  0.10237  0.56863  0.59897  1.0000
  H   H441      1.0  0.18857  0.84195  0.31877  1.0000
  C   C568      1.0  0.44072  0.56290  0.34247  1.0000
  H   H442      1.0  0.40430  0.51365  0.39634  1.0000
  C   C569      1.0  0.12727  0.52786  0.62878  1.0000
  C   C570      1.0  0.08942  0.57514  0.57598  1.0000
  C   C571      1.0  0.31756  0.92164  0.44456  1.0000
  S   S90       1.0  0.44858  0.96889  0.62668  1.0000
  H   H443      1.0  0.16447  0.79590  0.62535  1.0000
  C   C572      1.0  0.36410  0.94088  0.47537  1.0000
  H   H444      1.0  0.44704  0.96975  0.57131  1.0000
  C   C573      1.0  0.00912  0.61077  0.51073  1.0000
  H   H445      1.0  0.17538  0.52066  0.51172  1.0000
  H   H446      1.0  0.40125  0.89656  0.45748  1.0000
  C   C574      1.0  0.02007  0.56469  0.61975  1.0000
  H   H447      1.0  0.41799  0.85882  0.43616  1.0000
  C   C575      1.0  0.41199  0.53963  0.47112  1.0000
  H   H448      1.0  0.08120  0.55770  0.55952  1.0000
  C   C576      1.0  0.44587  0.94715  0.50705  1.0000
  C   C577      1.0  0.47360  0.95542  0.42745  1.0000
  C   C578      1.0  0.24534  0.96044  0.56753  1.0000
  H   H449      1.0  0.23857  0.50724  0.54107  1.0000
  H   H450      1.0  0.47061  0.88256  0.40962  1.0000
  H   H451      1.0  0.18237  0.57598  0.52420  1.0000
  H   H452      1.0  0.02129  0.63428  0.57538  1.0000
  C   C579      1.0  0.44429  0.94235  0.44301  1.0000
  C   C580      1.0  0.43359  0.88580  0.43386  1.0000
  H   H453      1.0  0.20711  0.84140  0.59656  1.0000
  H   H454      1.0  0.28722  0.95588  0.55364  1.0000
  C   C581      1.0  0.16571  0.55385  0.53560  1.0000
  H   H455      1.0  0.09378  0.64849  0.59440  1.0000
  H   H456      1.0  0.41740  0.56382  0.61238  1.0000
  H   H457      1.0  0.33082  0.92742  0.40323  1.0000
  H   H458      1.0  0.31217  0.91976  0.48698  1.0000
  S   S91       1.0  0.00493  0.67688  0.61827  1.0000
  C   C582      1.0  0.10949  0.62016  0.61830  1.0000
  C   C583      1.0  0.42308  0.53436  0.38464  1.0000
  C   C584      1.0  0.12602  0.52754  0.57180  1.0000
  C   C585      1.0  0.44535  0.97024  0.54998  1.0000
  C   C586      1.0  0.18857  0.81437  0.63343  1.0000
  H   H459      1.0  0.47323  0.52872  0.47951  1.0000
  H   H460      1.0  0.37267  0.94480  0.49568  1.0000
  H   H461      1.0  0.04951  0.54710  0.51156  1.0000
  H   H462      1.0  0.02511  0.60858  0.63927  1.0000
  C   C587      1.0  0.21285  0.84026  0.61715  1.0000
  H   H463      1.0  0.39180  0.95213  0.41150  1.0000
  C   C588      1.0  0.44854  0.94676  0.53459  1.0000
  C   C589      1.0  0.00185  0.61118  0.53750  1.0000
  C   C590      1.0  0.43991  0.99439  0.53786  1.0000
  C   C591      1.0  0.19596  0.51062  0.59505  1.0000
  C   C592      1.0  0.00579  0.57076  0.32424  1.0000
  C   C593      1.0  0.00147  0.53883  0.60179  1.0000
  C   C594      1.0  0.12335  0.49670  0.56520  1.0000
  H   H464      1.0  0.23077  0.93425  0.57344  1.0000
  H   H465      1.0  0.19240  0.52840  0.60662  1.0000
  C   C595      1.0  0.00508  0.52698  0.53613  1.0000
  H   H466      1.0  0.25146  0.50303  0.48146  1.0000
  H   H467      1.0  0.11967  0.58565  0.63906  1.0000
  H   H468      1.0  0.48511  0.59524  0.59909  1.0000
  C   C596      1.0  0.00109  0.55621  0.37099  1.0000
  H   H469      1.0  0.33085  0.99132  0.46040  1.0000
  H   H470      1.0  0.00560  0.54354  0.38726  1.0000
  H   H471      1.0  0.05552  0.50726  0.64346  1.0000
  S   S92       1.0  0.33014  0.99383  0.60645  1.0000
  H   H472      1.0  0.00157  0.81596  0.57592  1.0000
  C   C597      1.0  0.27720  0.97264  0.55632  1.0000
  C   C598      1.0  0.47755  0.58500  0.38066  1.0000
  C   C599      1.0  0.47091  0.58729  0.35390  1.0000
  H   H473      1.0  0.49007  0.83057  0.63202  1.0000
  H   H474      1.0  0.20805  0.97265  0.58051  1.0000
  S   S93       1.0  0.09472  0.69412  0.64728  1.0000
  H   H475      1.0  0.45090  0.49958  0.33898  1.0000
  C   C600      1.0  0.23270  0.98217  0.57165  1.0000
  C   C601      1.0  0.47116  0.49739  0.34797  1.0000
  H   H476      1.0  0.37049  0.96923  0.31427  1.0000
  H   H477      1.0  0.44807  0.49643  0.39854  1.0000
  C   C602      1.0  0.42587  0.54194  0.64719  1.0000
  S   S94       1.0  0.08009  0.53317  0.95795  1.0000
  H   H478      1.0  0.11154  0.67158  0.79531  1.0000
  Fe  Fe47      1.0  0.07510  0.65778  0.68143  1.0000
  S   S95       1.0  0.02507  0.65448  0.68189  1.0000
  S   S96       1.0  0.08107  0.61162  0.68282  1.0000
  Fe  Fe48      1.0  0.11248  0.73476  0.67847  1.0000
  S   S97       1.0  0.06361  0.73609  0.67940  1.0000
  S   S98       1.0  0.16634  0.78013  0.68182  1.0000
  Fe  Fe49      1.0  0.04687  0.69648  0.71150  1.0000
  H   H479      1.0  0.19959  0.57513  0.66383  1.0000
  C   C603      1.0  0.19555  0.81250  0.66016  1.0000
  S   S99       1.0  0.09652  0.69784  0.71270  1.0000
  H   H480      1.0  0.42002  0.50255  0.90434  1.0000
  H   H481      1.0  0.23278  0.83599  0.69089  1.0000
  H   H482      1.0  0.41962  0.54278  0.94692  1.0000
  H   H483      1.0  0.49034  0.57821  0.67644  1.0000
  C   C604      1.0  0.03524  0.53272  0.76602  1.0000
  C   C605      1.0  0.02733  0.60630  0.75176  1.0000
  C   C606      1.0  0.17611  0.55338  0.65777  1.0000
  H   H484      1.0  0.01414  0.53656  0.76259  1.0000
  C   C607      1.0  0.36625  0.96171  0.89737  1.0000
  C   C608      1.0  0.05162  0.54361  0.68940  1.0000
  C   C609      1.0  0.04612  0.57092  0.68762  1.0000
  H   H485      1.0  0.48086  0.50339  0.97495  1.0000
  H   H486      1.0  0.10629  0.75656  0.97461  1.0000
  C   C610      1.0  0.43746  0.91034  0.73566  1.0000
  C   C611      1.0  0.45344  0.55381  0.70753  1.0000
  C   C612      1.0  0.01105  0.50801  0.95472  1.0000
  H   H487      1.0  0.47900  0.51567  0.90916  1.0000
  C   C613      1.0  0.04304  0.69501  0.79301  1.0000
  C   C614      1.0  0.47332  0.57608  0.94351  1.0000
  H   H488      1.0  0.07434  0.65888  0.86902  1.0000
  H   H489      1.0  0.02087  0.55694  0.87740  1.0000
  C   C615      1.0  0.22706  0.83705  0.67027  1.0000
  C   C616      1.0  0.02437  0.51067  0.69199  1.0000
  H   H490      1.0  0.09993  0.58132  0.87804  1.0000
  C   C617      1.0  0.01467  0.68168  0.83627  1.0000
  C   C618      1.0  0.04341  0.53543  0.95077  1.0000
  C   C619      1.0  0.04676  0.56583  0.94179  1.0000
  C   C620      1.0  0.01830  0.56942  0.93828  1.0000
  H   H491      1.0  0.06830  0.67179  0.97830  1.0000
  C   C621      1.0  0.01236  0.68447  0.78008  1.0000
  C   C622      1.0  0.40254  0.96428  0.93347  1.0000
  H   H492      1.0  0.02147  0.59313  0.93173  1.0000
  C   C623      1.0  0.48063  0.58143  0.69506  1.0000
  C   C624      1.0  0.25127  0.86299  0.65402  1.0000
  H   H493      1.0  0.37679  0.92920  0.96551  1.0000
  C   C625      1.0  0.46828  0.96668  0.93519  1.0000
  C   C626      1.0  0.15747  0.68277  0.73990  1.0000
  C   C627      1.0  0.45624  0.94217  0.69484  1.0000
  H   H494      1.0  0.35215  0.95378  0.80850  1.0000
  H   H495      1.0  0.17713  0.70280  0.72825  1.0000
  C   C628      1.0  0.43162  0.51669  0.65717  1.0000
  C   C629      1.0  0.39826  0.97570  0.90876  1.0000
  C   C630      1.0  0.09879  0.64867  0.97355  1.0000
  H   H496      1.0  0.47055  0.59636  0.93536  1.0000
  C   C631      1.0  0.00582  0.59027  0.79636  1.0000
  H   H497      1.0  0.43967  0.94877  0.89876  1.0000
  C   C632      1.0  0.04418  0.69405  0.82091  1.0000
  C   C633      1.0  0.40611  0.97907  0.80429  1.0000
  C   C634      1.0  0.45724  0.59027  0.74372  1.0000
  S   S100      1.0  0.36036  0.96019  0.64877  1.0000
  C   C635      1.0  0.03563  0.50701  0.88072  1.0000
  H   H498      1.0  0.48779  0.60014  0.84955  1.0000
  C   C636      1.0  0.99833  0.55600  0.87005  1.0000
  C   C637      1.0  0.06727  0.50992  0.88367  1.0000
  C   C638      1.0  0.34236  0.92443  0.93491  1.0000
  C   C639      1.0  0.33829  0.93625  0.91051  1.0000
  C   C640      1.0  0.11553  0.62396  0.74528  1.0000
  H   H499      1.0  0.11114  0.51822  0.77405  1.0000
  H   H500      1.0  0.14946  0.64392  0.71216  1.0000
  C   C641      1.0  0.43252  0.88177  0.69417  1.0000
  H   H501      1.0  0.07705  0.54789  0.68865  1.0000
  P   P20       1.0  0.43470  0.51270  0.69245  1.0000
  H   H502      1.0  0.01462  0.60694  0.88224  1.0000
  C   C642      1.0  0.03178  0.59885  0.77786  1.0000
  H   H503      1.0  0.47059  0.98680  0.84742  1.0000
  H   H504      1.0  0.00847  0.58576  0.68743  1.0000
  P   P21       1.0  0.06939  0.59796  0.78701  1.0000
  C   C643      1.0  0.43311  0.98508  0.78786  1.0000
  H   H505      1.0  0.45926  0.86538  0.77488  1.0000
  H   H506      1.0  0.04662  0.61242  0.73692  1.0000
  C   C644      1.0  0.12005  0.66471  0.77778  1.0000
  H   H507      1.0  0.45594  0.54660  0.79791  1.0000
  H   H508      1.0  0.41609  0.85674  0.73182  1.0000
  C   C645      1.0  0.09242  0.59559  0.86553  1.0000
  H   H509      1.0  0.32058  0.90498  0.94521  1.0000
  H   H510      1.0  0.31340  0.92620  0.90196  1.0000
  H   H511      1.0  0.47428  0.92648  0.88057  1.0000
  H   H512      1.0  0.11434  0.66593  0.95819  1.0000
  H   H513      1.0  0.42168  0.53757  0.74248  1.0000
  H   H514      1.0  0.07151  0.58679  0.93765  1.0000
  P   P22       1.0  0.44374  0.98397  0.94869  1.0000
  C   C646      1.0  0.37304  0.95740  0.79612  1.0000
  H   H515      1.0  0.34117  0.92504  0.76513  1.0000
  H   H516      1.0  0.42457  0.85877  0.68317  1.0000
  C   C647      1.0  0.09271  0.55272  0.78003  1.0000
  H   H517      1.0  0.06822  0.70338  0.83068  1.0000
  H   H518      1.0  0.42381  0.55935  0.66043  1.0000
  H   H519      1.0  0.34300  0.98975  0.70065  1.0000
  H   H520      1.0  0.33868  0.98128  0.96450  1.0000
  H   H521      1.0  0.46643  0.96551  0.68387  1.0000
  S   S101      1.0  0.01823  0.68249  0.87146  1.0000
  C   C648      1.0  0.44734  0.51933  0.96050  1.0000
  H   H522      1.0  0.06345  0.64559  0.82174  1.0000
  C   C649      1.0  0.37436  0.93834  0.94639  1.0000
  H   H523      1.0  0.06599  0.70491  0.78154  1.0000
  C   C650      1.0  0.10449  0.63118  0.76903  1.0000
  H   H524      1.0  0.10301  0.59876  0.73720  1.0000
  C   C651      1.0  0.08992  0.52228  0.77198  1.0000
  C   C652      1.0  0.07660  0.60642  0.82222  1.0000
  C   C653      1.0  0.46445  0.50113  0.89235  1.0000
  H   H525      1.0  0.48894  0.88287  0.73189  1.0000
  H   H526      1.0  0.44901  0.59356  0.76304  1.0000
  C   C654      1.0  0.03251  0.50228  0.75809  1.0000
  H   H527      1.0  0.08928  0.56777  0.83072  1.0000
  H   H528      1.0  0.15774  0.71618  0.76982  1.0000
  C   C655      1.0  0.07823  0.63937  0.86053  1.0000
  C   C656      1.0  0.07208  0.63178  0.83364  1.0000
  C   C657      1.0  0.44193  0.55844  0.73203  1.0000
  C   C658      1.0  0.14198  0.64962  0.73090  1.0000
  C   C659      1.0  0.42776  0.88067  0.72156  1.0000
  C   C660      1.0  0.44439  0.54580  0.94998  1.0000
  C   C661      1.0  0.44679  0.91252  0.68085  1.0000
  C   C662      1.0  0.42720  0.96941  0.76299  1.0000
  H   H529      1.0  0.33727  0.97994  0.74911  1.0000
  H   H530      1.0  0.07954  0.51625  0.90280  1.0000
  H   H531      1.0  0.09255  0.62674  0.89747  1.0000
  P   P23       1.0  0.46153  0.97913  0.74034  1.0000
  C   C663      1.0  0.06516  0.55797  0.77758  1.0000
  H   H532      1.0  0.36291  0.97151  0.87881  1.0000
  C   C664      1.0  0.39379  0.94734  0.75509  1.0000
  C   C665      1.0  0.14648  0.69030  0.76332  1.0000
  H   H533      1.0  0.43333  0.90913  0.75686  1.0000
  C   C666      1.0  0.08835  0.62124  0.87651  1.0000
  H   H534      1.0  0.11644  0.57231  0.78794  1.0000
  C   C667      1.0  0.45161  0.94130  0.72237  1.0000
  C   C668      1.0  0.47453  0.51265  0.78955  1.0000
  C   C669      1.0  0.36690  0.94137  0.77162  1.0000
  C   C670      1.0  0.08643  0.58805  0.83853  1.0000
  H   H535      1.0  0.17766  0.52122  0.68817  1.0000
  H   H536      1.0  0.38836  0.93524  0.73590  1.0000
  Fe  Fe50      1.0  0.04535  0.69349  0.64998  1.0000
  C   C671      1.0  0.08245  0.50342  0.86229  1.0000
  C   C672      1.0  0.47905  0.52350  0.96549  1.0000
  C   C673      1.0  0.01909  0.49815  0.85619  1.0000
  S   S102      1.0  0.00601  0.64433  0.93671  1.0000
  H   H537      1.0  0.27528  0.88152  0.66220  1.0000
  H   H538      1.0  0.41068  0.99179  0.82315  1.0000
  H   H539      1.0  0.06335  0.77364  0.97017  1.0000
  C   C674      1.0  0.47775  0.54465  0.79262  1.0000
  C   C675      1.0  0.48433  0.61757  0.73126  1.0000
  C   C676      1.0  0.47994  0.93800  0.90000  1.0000
  H   H540      1.0  0.49185  0.87731  0.81657  1.0000
  C   C677      1.0  0.99780  0.60617  0.74463  1.0000
  C   C678      1.0  0.48651  0.87789  0.77418  1.0000
  S   S103      1.0  0.00964  0.68807  0.74512  1.0000
  H   H541      1.0  0.44970  0.91344  0.65950  1.0000
  C   C679      1.0  0.46047  0.95089  0.91036  1.0000
  H   H542      1.0  0.02349  0.51047  0.89784  1.0000
  H   H543      1.0  0.12357  0.61932  0.97232  1.0000
  H   H544      1.0  0.48489  0.80761  0.67732  1.0000
  C   C680      1.0  0.01312  0.56504  0.68886  1.0000
  H   H545      1.0  0.41055  0.98863  0.71253  1.0000
  H   H546      1.0  0.00818  0.58355  0.81640  1.0000
  C   C681      1.0  0.16383  0.52300  0.67145  1.0000
  H   H547      1.0  0.10638  0.50439  0.86491  1.0000
  C   C682      1.0  0.49291  0.51296  0.70979  1.0000
  C   C683      1.0  0.05972  0.49694  0.76124  1.0000
  H   H548      1.0  0.41951  0.99596  0.89852  1.0000
  C   C684      1.0  0.88610  0.29785  0.27462  1.0000
  S   S104      1.0  0.92952  0.39153  0.22061  1.0000
  C   C685      1.0  0.81436  0.13775  0.25735  1.0000
  C   C686      1.0  0.84628  0.23836  0.27988  1.0000
  S   S105      1.0  0.95197  0.40047  0.15910  1.0000
  Fe  Fe51      1.0  0.96531  0.43388  0.19480  1.0000
  S   S106      1.0  0.96503  0.48291  0.19426  1.0000
  Fe  Fe52      1.0  0.92004  0.35679  0.18621  1.0000
  S   S107      1.0  0.86363  0.31870  0.17998  1.0000
  Fe  Fe53      1.0  0.97370  0.38532  0.23150  1.0000
  C   C687      1.0  0.76824  0.12702  0.29769  1.0000
  Fe  Fe54      1.0  0.64532  0.10051  0.12223  1.0000
  S   S108      1.0  0.63693  0.04840  0.11846  1.0000
  S   S109      1.0  0.60062  0.10929  0.12561  1.0000
  Fe  Fe55      1.0  0.72227  0.13216  0.12337  1.0000
  S   S110      1.0  0.71797  0.08110  0.11944  1.0000
  S   S111      1.0  0.77750  0.17498  0.12373  1.0000
  Fe  Fe56      1.0  0.67853  0.07008  0.08839  1.0000
  S   S112      1.0  0.67233  0.03660  0.05284  1.0000
  Fe  Fe57      1.0  0.67670  0.06371  0.14969  1.0000
  S   S113      1.0  0.66506  0.02351  0.18088  1.0000
  S   S114      1.0  0.68511  0.12195  0.09016  1.0000
  S   S115      1.0  0.68290  0.11497  0.15565  1.0000
  H   H549      1.0  0.88496  0.21831  0.22570  1.0000
  C   C688      1.0  0.53124  0.07950  0.12556  1.0000
  C   C689      1.0  0.55907  0.07518  0.12080  1.0000
  C   C690      1.0  0.55327  0.04359  0.11288  1.0000
  C   C691      1.0  0.57154  0.07030  0.98408  1.0000
  H   H550      1.0  0.53534  0.10382  0.13169  1.0000
  H   H551      1.0  0.57415  0.03984  0.10869  1.0000
  C   C692      1.0  0.67885  0.04265  0.27039  1.0000
  C   C693      1.0  0.89611  0.47118  0.07824  1.0000
  S   S116      1.0  0.97211  0.37871  0.27675  1.0000
  C   C694      1.0  0.66953  0.03182  0.21522  1.0000
  C   C695      1.0  0.69132  0.06398  0.22501  1.0000
  C   C696      1.0  0.69618  0.06929  0.25249  1.0000
  H   H552      1.0  0.70512  0.08442  0.21130  1.0000
  H   H553      1.0  0.71349  0.09406  0.25998  1.0000
  C   C697      1.0  0.66534  0.04185  0.01903  1.0000
  H   H554      1.0  0.53489  0.01625  0.25284  1.0000
  H   H555      1.0  0.67747  0.09328  0.02246  1.0000
  C   C698      1.0  0.98403  0.44805  0.08281  1.0000
  C   C699      1.0  0.84054  0.27925  0.16344  1.0000
  C   C700      1.0  0.80511  0.26318  0.16313  1.0000
  C   C701      1.0  0.78538  0.23121  0.15139  1.0000
  C   C702      1.0  0.80092  0.21516  0.13924  1.0000
  C   C703      1.0  0.83642  0.23171  0.13889  1.0000
  C   C704      1.0  0.85613  0.26331  0.15119  1.0000
  H   H556      1.0  0.79283  0.27550  0.17220  1.0000
  H   H557      1.0  0.75820  0.21912  0.15150  1.0000
  H   H558      1.0  0.84882  0.21986  0.12921  1.0000
  H   H559      1.0  0.88332  0.27532  0.15109  1.0000
  C   C705      1.0  0.55263  0.04571  0.18525  1.0000
  H   H560      1.0  0.90674  0.47847  0.16627  1.0000
  H   H561      1.0  0.61034  0.05673  0.04593  1.0000
  H   H562      1.0  0.84862  0.45617  0.01135  1.0000
  C   C706      1.0  0.88615  0.19799  0.18780  1.0000
  C   C707      1.0  0.86730  0.17812  0.16648  1.0000
  C   C708      1.0  0.83225  0.16329  0.16663  1.0000
  C   C709      1.0  0.71512  0.18723  0.20794  1.0000
  H   H563      1.0  0.91335  0.20965  0.18765  1.0000
  H   H564      1.0  0.87981  0.17451  0.14967  1.0000
  H   H565      1.0  0.81760  0.14836  0.14988  1.0000
  H   H566      1.0  0.69214  0.18519  0.20019  1.0000
  H   H567      1.0  0.60332  0.03372  0.23464  1.0000
  C   C710      1.0  0.80289  0.10977  0.27399  1.0000
  H   H568      1.0  0.96829  0.35490  0.06321  1.0000
  C   C711      1.0  0.61206  0.05498  0.24793  1.0000
  C   C712      1.0  0.62645  0.08753  0.23773  1.0000
  C   C713      1.0  0.74574  0.16083  0.22447  1.0000
  P   P24       1.0  0.81382  0.19442  0.23746  1.0000
  C   C714      1.0  0.71580  0.15836  0.21547  1.0000
  H   H569      1.0  0.91102  0.48780  0.01225  1.0000
  P   P25       1.0  0.65178  0.14555  0.30482  1.0000
  H   H570      1.0  0.62838  0.09129  0.21648  1.0000
  C   C715      1.0  0.77433  0.22123  0.21912  1.0000
  C   C716      1.0  0.51344  0.09080  0.20294  1.0000
  H   H571      1.0  0.51982  0.05967  0.06508  1.0000
  H   H572      1.0  0.69341  0.13389  0.21365  1.0000
  C   C717      1.0  0.51061  0.08412  0.00338  1.0000
  C   C718      1.0  0.70713  0.23205  0.26204  1.0000
  H   H573      1.0  0.76087  0.26591  0.26208  1.0000
  H   H574      1.0  0.53556  0.09610  0.21435  1.0000
  C   C719      1.0  0.74437  0.21863  0.20978  1.0000
  C   C720      1.0  0.61794  0.15415  0.31062  1.0000
  C   C721      1.0  0.77967  0.10429  0.29402  1.0000
  C   C722      1.0  0.89337  0.44499  0.13256  1.0000
  H   H575      1.0  0.74407  0.24101  0.20348  1.0000
  C   C723      1.0  0.86105  0.38551  0.14339  1.0000
  C   C724      1.0  0.86061  0.39347  0.17000  1.0000
  C   C725      1.0  0.87660  0.42706  0.17799  1.0000
  C   C726      1.0  0.89294  0.45275  0.15936  1.0000
  H   H576      1.0  0.76951  0.17165  0.28352  1.0000
  H   H577      1.0  0.65501  0.19428  0.26582  1.0000
  H   H578      1.0  0.85649  0.26129  0.21481  1.0000
  H   H579      1.0  0.63420  0.11039  0.00399  1.0000
  C   C727      1.0  0.65191  0.00519  0.23310  1.0000
  H   H580      1.0  0.84896  0.37356  0.18458  1.0000
  H   H581      1.0  0.87777  0.43318  0.19881  1.0000
  C   C728      1.0  0.58537  0.03477  0.04665  1.0000
  C   C729      1.0  0.50491  0.04399  0.30207  1.0000
  H   H582      1.0  0.83185  0.14113  0.24166  1.0000
  H   H583      1.0  0.57775  0.10380  0.30115  1.0000
  H   H584      1.0  0.64991  0.14006  0.24655  1.0000
  H   H585      1.0  0.59911  0.02467  0.28322  1.0000
  C   C730      1.0  0.55752  0.03528  0.03564  1.0000
  C   C731      1.0  0.65836  0.15044  0.03197  1.0000
  P   P26       1.0  0.56273  0.07219  0.01874  1.0000
  H   H586      1.0  0.81638  0.43439  0.05317  1.0000
  H   H587      1.0  0.59923  0.06212  0.16428  1.0000
  H   H588      1.0  0.50401  0.00561  0.02756  1.0000
  C   C732      1.0  0.65622  0.01496  0.00137  1.0000
  C   C733      1.0  0.52259  0.18370  0.24617  1.0000
  H   H589      1.0  0.83347  0.21695  0.29290  1.0000
  H   H590      1.0  0.54080  0.02693  0.30086  1.0000
  C   C734      1.0  0.63884  0.11511  0.25488  1.0000
  C   C735      1.0  0.51023  0.11752  0.19314  1.0000
  C   C736      1.0  0.84368  0.44832  0.05359  1.0000
  C   C737      1.0  0.63695  0.11025  0.28241  1.0000
  H   H591      1.0  0.87892  0.40450  0.10438  1.0000
  C   C738      1.0  0.59850  0.10897  0.03282  1.0000
  C   C739      1.0  0.63052  0.12218  0.02118  1.0000
  S   S117      1.0  0.68733  0.05028  0.30462  1.0000
  C   C740      1.0  0.65456  0.16569  0.05458  1.0000
  C   C741      1.0  0.62296  0.15250  0.06650  1.0000
  C   C742      1.0  0.59506  0.12418  0.05579  1.0000
  C   C743      1.0  0.81599  0.16877  0.18782  1.0000
  C   C744      1.0  0.74672  0.22336  0.28758  1.0000
  C   C745      1.0  0.52025  0.01643  0.11051  1.0000
  H   H592      1.0  0.52997  0.14318  0.19662  1.0000
  C   C746      1.0  0.58420  0.12887  0.30730  1.0000
  C   C747      1.0  0.75197  0.10569  0.01566  1.0000
  C   C748      1.0  0.50131  0.19246  0.23281  1.0000
  P   P27       1.0  0.91836  0.47762  0.10906  1.0000
  H   H593      1.0  0.76721  0.04294  0.99908  1.0000
  C   C749      1.0  0.52370  0.03185  0.28940  1.0000
  S   S118      1.0  0.96247  0.34794  0.19815  1.0000
  H   H594      1.0  0.54843  0.49055  0.98742  1.0000
  C   C750      1.0  0.86075  0.45361  0.07765  1.0000
  C   C751      1.0  0.89700  0.47844  0.03055  1.0000
  H   H595      1.0  0.68304  0.16010  0.02313  1.0000
  C   C752      1.0  0.86995  0.20313  0.20923  1.0000
  H   H596      1.0  0.72591  0.17938  0.31181  1.0000
  H   H597      1.0  0.89519  0.31636  0.23459  1.0000
  H   H598      1.0  0.62019  0.16354  0.08460  1.0000
  H   H599      1.0  0.57121  0.11402  0.06597  1.0000
  C   C753      1.0  0.50977  0.15121  0.25628  1.0000
  C   C754      1.0  0.67038  0.07242  0.00910  1.0000
  C   C755      1.0  0.86854  0.26975  0.29093  1.0000
  C   C756      1.0  0.86180  0.46057  0.03004  1.0000
  C   C757      1.0  0.77943  0.15487  0.28100  1.0000
  H   H600      1.0  0.55280  0.06886  0.18117  1.0000
  C   C758      1.0  0.98058  0.48657  0.12403  1.0000
  C   C759      1.0  0.84143  0.23492  0.25234  1.0000
  H   H601      1.0  0.98289  0.44934  0.29718  1.0000
  C   C760      1.0  0.85936  0.26330  0.23613  1.0000
  H   H602      1.0  0.81150  0.09195  0.27103  1.0000
  H   H603      1.0  0.79672  0.24577  0.21989  1.0000
  C   C761      1.0  0.60972  0.04989  0.27528  1.0000
  C   C762      1.0  0.87752  0.41114  0.12472  1.0000
  H   H604      1.0  0.78887  0.15752  0.18710  1.0000
  C   C763      1.0  0.52625  0.01946  0.19944  1.0000
  H   H605      1.0  0.52612  0.14444  0.26675  1.0000
  C   C764      1.0  0.88144  0.29460  0.24726  1.0000
  C   C765      1.0  0.77524  0.19225  0.22649  1.0000
  C   C766      1.0  0.66836  0.07661  0.98163  1.0000
  H   H606      1.0  0.67627  0.18711  0.06334  1.0000
  H   H607      1.0  0.54899  0.20215  0.24882  1.0000
  C   C767      1.0  0.75764  0.07873  0.01865  1.0000
  S   S119      1.0  0.51493  0.47808  0.28342  1.0000
  C   C768      1.0  0.83476  0.18904  0.20919  1.0000
  C   C769      1.0  0.52502  0.07488  0.02393  1.0000
  H   H608      1.0  0.74611  0.13808  0.22921  1.0000
  H   H609      1.0  0.84981  0.35936  0.13753  1.0000
  C   C770      1.0  0.80247  0.16039  0.26062  1.0000
  H   H610      1.0  0.74757  0.11691  0.03297  1.0000
  C   C771      1.0  0.76262  0.06369  0.99638  1.0000
  H   H611      1.0  0.75753  0.06916  0.03829  1.0000
  C   C772      1.0  0.68051  0.20208  0.27202  1.0000
  H   H612      1.0  0.84633  0.44380  0.09570  1.0000
  C   C773      1.0  0.57903  0.04192  0.17539  1.0000
  H   H613      1.0  0.70216  0.24700  0.24813  1.0000
  H   H614      1.0  0.74538  0.13760  0.98807  1.0000
  H   H615      1.0  0.93649  0.44123  0.07024  1.0000
  C   C774      1.0  0.95538  0.47386  0.10462  1.0000
  C   C775      1.0  0.95679  0.45365  0.08436  1.0000
  C   C776      1.0  0.91411  0.48427  0.05462  1.0000
  C   C777      1.0  0.49594  0.49436  0.21995  1.0000
  C   C778      1.0  0.74020  0.24275  0.26990  1.0000
  H   H616      1.0  0.97848  0.45479  0.00761  1.0000
  C   C779      1.0  0.52006  0.02565  0.26219  1.0000
  C   C780      1.0  0.68673  0.18267  0.29020  1.0000
  C   C781      1.0  0.62194  0.07734  0.29247  1.0000
  H   H617      1.0  0.56585  0.02050  0.98592  1.0000
  H   H618      1.0  0.90364  0.32214  0.28312  1.0000
  H   H619      1.0  0.97685  0.36384  0.11173  1.0000
  C   C782      1.0  0.72014  0.19351  0.29778  1.0000
  C   C783      1.0  0.75068  0.11727  0.99035  1.0000
  C   C784      1.0  0.65615  0.01066  0.26060  1.0000
  H   H620      1.0  0.77244  0.23166  0.29354  1.0000
  H   H621      1.0  0.51376  0.48627  0.22499  1.0000
  H   H622      1.0  0.52116  0.08919  0.98370  1.0000
  H   H623      1.0  0.98479  0.43195  0.06748  1.0000
  H   H624      1.0  0.87264  0.27236  0.31212  1.0000
  H   H625      1.0  0.51165  0.21763  0.22494  1.0000
  C   C785      1.0  0.55821  0.13552  0.31277  1.0000
  C   C786      1.0  0.57902  0.01183  0.17912  1.0000
  H   H626      1.0  0.59909  0.00874  0.17087  1.0000
  H   H627      1.0  0.53216  0.11571  0.31121  1.0000
  C   C787      1.0  0.49804  0.05235  0.12272  1.0000
  C   C788      1.0  0.50963  0.06746  0.04900  1.0000
  C   C789      1.0  0.58122  0.00561  0.05884  1.0000
  C   C790      1.0  0.99314  0.37216  0.07085  1.0000
  C   C791      1.0  0.52573  0.00597  0.03634  1.0000
  H   H628      1.0  0.60275  0.00541  0.06747  1.0000
  H   H629      1.0  0.74985  0.12230  0.31299  1.0000
  H   H630      1.0  0.76994  0.08210  0.30645  1.0000
  H   H631      1.0  0.61977  0.07273  0.31360  1.0000
  C   C792      1.0  0.49731  0.03140  0.24761  1.0000
  Fe  Fe58      1.0  0.99500  0.39384  0.17256  1.0000
  S   S120      1.0  0.63214  0.03699  0.36529  1.0000
  H   H632      1.0  0.80852  0.08786  0.58978  1.0000
  H   H633      1.0  0.53674  0.08829  0.48660  1.0000
  S   S121      1.0  0.67071  0.05057  0.43206  1.0000
  H   H634      1.0  0.65773  0.13955  0.40259  1.0000
  C   C793      1.0  0.67186  0.04498  0.46683  1.0000
  C   C794      1.0  0.68275  0.07312  0.48344  1.0000
  C   C795      1.0  0.68555  0.07053  0.51104  1.0000
  Fe  Fe59      1.0  0.65288  0.01494  0.33650  1.0000
  H   H635      1.0  0.68933  0.09720  0.47483  1.0000
  C   C796      1.0  0.87393  0.19313  0.62767  1.0000
  C   C797      1.0  0.55554  0.08428  0.36794  1.0000
  C   C798      1.0  0.55958  0.05598  0.36530  1.0000
  H   H636      1.0  0.97078  0.35661  0.60022  1.0000
  C   C799      1.0  0.79713  0.21791  0.64401  1.0000
  H   H637      1.0  0.87290  0.37977  0.62712  1.0000
  H   H638      1.0  0.58419  0.05938  0.36122  1.0000
  C   C800      1.0  0.53678  0.00611  0.55018  1.0000
  Fe  Fe60      1.0  0.64548  0.09143  0.62352  1.0000
  S   S122      1.0  0.64656  0.04342  0.62172  1.0000
  S   S123      1.0  0.59779  0.09487  0.62350  1.0000
  Fe  Fe61      1.0  0.72264  0.13509  0.62424  1.0000
  S   S124      1.0  0.72904  0.08954  0.62172  1.0000
  S   S125      1.0  0.76620  0.18963  0.62118  1.0000
  Fe  Fe62      1.0  0.68748  0.06930  0.59123  1.0000
  S   S126      1.0  0.68542  0.03625  0.55652  1.0000
  H   H639      1.0  0.66990  0.44239  0.38142  1.0000
  S   S127      1.0  0.68403  0.11630  0.59124  1.0000
  H   H640      1.0  0.82201  0.18767  0.59424  1.0000
  H   H641      1.0  0.59105  0.11392  0.56464  1.0000
  C   C801      1.0  0.52915  0.06402  0.62214  1.0000
  C   C802      1.0  0.55687  0.05914  0.62434  1.0000
  C   C803      1.0  0.55119  0.02641  0.62734  1.0000
  C   C804      1.0  0.59745  0.03082  0.55050  1.0000
  H   H642      1.0  0.53323  0.08921  0.61985  1.0000
  C   C805      1.0  0.61154  0.10319  0.52970  1.0000
  C   C806      1.0  0.67857  0.03992  0.52230  1.0000
  C   C807      1.0  0.66478  0.13549  0.33563  1.0000
  H   H643      1.0  0.69396  0.09238  0.52351  1.0000
  C   C808      1.0  0.96976  0.46635  0.53540  1.0000
  C   C809      1.0  0.66382  0.01407  0.47818  1.0000
  C   C810      1.0  0.77042  0.12243  0.55453  1.0000
  H   H644      1.0  0.69225  0.11444  0.31650  1.0000
  H   H645      1.0  0.50310  0.02167  0.45697  1.0000
  H   H646      1.0  0.70783  0.48562  0.41303  1.0000
  H   H647      1.0  0.82649  0.25330  0.61344  1.0000
  H   H648      1.0  0.64354  0.16532  0.57619  1.0000
  C   C811      1.0  0.64265  0.15135  0.55865  1.0000
  C   C812      1.0  0.67160  0.16191  0.54329  1.0000
  H   H649      1.0  0.96288  0.35393  0.55129  1.0000
  H   H650      1.0  0.59633  0.08652  0.42502  1.0000
  H   H651      1.0  0.54527  0.17176  0.32696  1.0000
  C   C813      1.0  0.87870  0.13522  0.61351  1.0000
  C   C814      1.0  0.61280  0.12204  0.55199  1.0000
  P   P28       1.0  0.57279  0.06540  0.52118  1.0000
  C   C815      1.0  0.56193  0.01930  0.48067  1.0000
  C   C816      1.0  0.68515  0.12070  0.33517  1.0000
  H   H652      1.0  0.96488  0.38784  0.33209  1.0000
  H   H653      1.0  0.89286  0.43409  0.55398  1.0000
  H   H654      1.0  0.54347  0.48825  0.37897  1.0000
  H   H655      1.0  0.55247  0.00002  0.49575  1.0000
  H   H656      1.0  0.69490  0.18424  0.54884  1.0000
  C   C817      1.0  0.57359  0.05314  0.48715  1.0000
  C   C818      1.0  0.88030  0.40384  0.58909  1.0000
  C   C819      1.0  0.64092  0.11358  0.51473  1.0000
  C   C820      1.0  0.67076  0.14293  0.52142  1.0000
  C   C821      1.0  0.53155  0.02353  0.36697  1.0000
  C   C822      1.0  0.49977  0.01974  0.37212  1.0000
  S   S128      1.0  0.51881  0.11645  0.37237  1.0000
  C   C823      1.0  0.98778  0.36925  0.55960  1.0000
  C   C824      1.0  0.66570  0.13473  0.38373  1.0000
  C   C825      1.0  0.99379  0.44564  0.60643  1.0000
  C   C826      1.0  0.99256  0.46418  0.51824  1.0000
  H   H657      1.0  0.96830  0.42471  0.60818  1.0000
  C   C827      1.0  0.62520  0.18589  0.31996  1.0000
  C   C828      1.0  0.56878  0.03210  0.54258  1.0000
  H   H658      1.0  0.49810  0.10578  0.42568  1.0000
  C   C829      1.0  0.77874  0.09860  0.56310  1.0000
  C   C830      1.0  0.91161  0.43187  0.62853  1.0000
  C   C831      1.0  0.51793  0.99888  0.62808  1.0000
  H   H659      1.0  0.75090  0.11560  0.53982  1.0000
  H   H660      1.0  0.94774  0.44332  0.54145  1.0000
  H   H661      1.0  0.59467  0.10349  0.47123  1.0000
  C   C832      1.0  0.80322  0.10697  0.58270  1.0000
  C   C833      1.0  0.81105  0.16309  0.58514  1.0000
  H   H662      1.0  0.64106  0.09881  0.49815  1.0000
  H   H663      1.0  0.69341  0.15058  0.50991  1.0000
  C   C834      1.0  0.82460  0.24792  0.63441  1.0000
  C   C835      1.0  0.59407  0.00424  0.56621  1.0000
  H   H664      1.0  0.63908  0.15346  0.36119  1.0000
  C   C836      1.0  0.92223  0.12366  0.62861  1.0000
  C   C837      1.0  0.52348  0.08043  0.37196  1.0000
  C   C838      1.0  0.91095  0.25022  0.61215  1.0000
  H   H665      1.0  0.92277  0.26789  0.59603  1.0000
  H   H666      1.0  0.62243  0.05007  0.54442  1.0000
  H   H667      1.0  0.65100  0.20542  0.32350  1.0000
  H   H668      1.0  0.50780  0.04886  0.32299  1.0000
  C   C839      1.0  0.68633  0.12040  0.38306  1.0000
  H   H669      1.0  0.53158  0.08015  0.44010  1.0000
  H   H670      1.0  0.69402  0.11380  0.40136  1.0000
  H   H671      1.0  0.91516  0.11803  0.56154  1.0000
  C   C840      1.0  0.58567  0.07729  0.46682  1.0000
  H   H672      1.0  0.87239  0.13412  0.57092  1.0000
  H   H673      1.0  0.75445  0.01236  0.41382  1.0000
  C   C841      1.0  0.65506  0.14243  0.36012  1.0000
  H   H674      1.0  0.86098  0.38139  0.57939  1.0000
  H   H675      1.0  0.77915  0.17272  0.55974  1.0000
  C   C842      1.0  0.88693  0.40290  0.61596  1.0000
  C   C843      1.0  0.69619  0.11356  0.35878  1.0000
  C   C844      1.0  0.81984  0.13943  0.59366  1.0000
  C   C845      1.0  0.92828  0.11814  0.60250  1.0000
  C   C846      1.0  0.89857  0.43369  0.57474  1.0000
  C   C847      1.0  0.93016  0.46170  0.61423  1.0000
  C   C848      1.0  0.52444  0.06969  0.55212  1.0000
  C   C849      1.0  0.88558  0.13058  0.58726  1.0000
  H   H676      1.0  0.57714  0.10924  0.36600  1.0000
  C   C850      1.0  0.89774  0.13248  0.63410  1.0000
  C   C851      1.0  0.66743  0.46432  0.38492  1.0000
  C   C852      1.0  0.78650  0.15461  0.56559  1.0000
  C   C853      1.0  0.91006  0.12174  0.58183  1.0000
  H   H677      1.0  0.76530  0.07331  0.55509  1.0000
  H   H678      1.0  0.94740  0.11149  0.59824  1.0000
  C   C854      1.0  0.99013  0.39213  0.32935  1.0000
  C   C855      1.0  0.49786  0.07584  0.55644  1.0000
  P   P29       1.0  0.84879  0.14869  0.62077  1.0000
  C   C856      1.0  0.92415  0.46272  0.58704  1.0000
  H   H679      1.0  0.88590  0.20736  0.58654  1.0000
  C   C857      1.0  0.56562  0.16723  0.32177  1.0000
  H   H680      1.0  0.71124  0.10139  0.35827  1.0000
  C   C858      1.0  0.57539  0.03423  0.43448  1.0000
  C   C859      1.0  0.56298  0.00999  0.45447  1.0000
  C   C860      1.0  0.58667  0.06784  0.44063  1.0000
  C   C861      1.0  0.53825  0.07321  0.52672  1.0000
  C   C862      1.0  0.68895  0.48896  0.40285  1.0000
  C   C863      1.0  0.49577  0.04799  0.37467  1.0000
  H   H681      1.0  0.87090  0.29381  0.64391  1.0000
  H   H682      1.0  0.57655  0.02699  0.41424  1.0000
  H   H683      1.0  0.51436  0.00607  0.54359  1.0000
  H   H684      1.0  0.94907  0.48362  0.62466  1.0000
  Fe  Fe63      1.0  0.64682  0.01341  0.39777  1.0000
  C   C864      1.0  0.88982  0.21598  0.60686  1.0000
  C   C865      1.0  0.66759  0.01171  0.50571  1.0000
  C   C866      1.0  0.49922  0.45813  0.64227  1.0000
  H   H685      1.0  0.98781  0.43986  0.51118  1.0000
  H   H686      1.0  0.53427  0.06222  0.56860  1.0000
  H   H687      1.0  0.61627  0.00323  0.57203  1.0000
  C   C867      1.0  0.49869  0.08956  0.51017  1.0000
  H   H688      1.0  0.93304  0.28832  0.64241  1.0000
  C   C868      1.0  0.50440  0.06528  0.44037  1.0000
  C   C869      1.0  0.49611  0.03655  0.62232  1.0000
  C   C870      1.0  0.52343  0.49119  0.37045  1.0000
  H   H689      1.0  0.88051  0.48860  0.58167  1.0000
  C   C871      1.0  0.59910  0.19241  0.32538  1.0000
  C   C872      1.0  0.91691  0.26176  0.63826  1.0000
  H   H690      1.0  0.60471  0.21667  0.33307  1.0000
  H   H691      1.0  0.57235  0.02229  0.62911  1.0000
  C   C873      1.0  0.64260  0.46783  0.37165  1.0000
  C   C874      1.0  0.52563  0.08393  0.50596  1.0000
  C   C875      1.0  0.99218  0.37067  0.58733  1.0000
  H   H692      1.0  0.62583  0.44861  0.35788  1.0000
  H   H693      1.0  0.93679  0.12148  0.64459  1.0000
  C   C876      1.0  0.52397  0.49171  0.64643  1.0000
  H   H694      1.0  0.83071  0.08352  0.64563  1.0000
  H   H695      1.0  0.84415  0.02035  0.31707  1.0000
  C   C877      1.0  0.63924  0.49598  0.37630  1.0000
  H   H696      1.0  0.78999  0.00619  0.93056  1.0000
  S   S129      1.0  0.94422  0.38090  0.72804  1.0000
  C   C878      1.0  0.58157  0.09862  0.96789  1.0000
  C   C879      1.0  0.92221  0.41630  0.92305  1.0000
  C   C880      1.0  0.92986  0.46306  0.89580  1.0000
  C   C881      1.0  0.57193  0.04213  0.97369  1.0000
  Fe  Fe64      1.0  0.92942  0.34147  0.69599  1.0000
  S   S130      1.0  0.87975  0.29164  0.70150  1.0000
  C   C882      1.0  0.63338  0.11436  0.81390  1.0000
  S   S131      1.0  0.62747  0.04328  0.86272  1.0000
  H   H697      1.0  0.81848  0.22919  0.70941  1.0000
  H   H698      1.0  0.82901  0.10682  0.91290  1.0000
  S   S132      1.0  0.66246  0.05803  0.92936  1.0000
  Fe  Fe65      1.0  0.65493  0.02882  0.83403  1.0000
  S   S133      1.0  0.68489  0.07094  0.80519  1.0000
  S   S134      1.0  0.68689  0.03328  0.68491  1.0000
  C   C883      1.0  0.68561  0.06047  0.77184  1.0000
  C   C884      1.0  0.67915  0.02844  0.76477  1.0000
  C   C885      1.0  0.68066  0.02085  0.73810  1.0000
  C   C886      1.0  0.68720  0.04468  0.71823  1.0000
  C   C887      1.0  0.69391  0.07687  0.72532  1.0000
  C   C888      1.0  0.69354  0.08485  0.75213  1.0000
  H   H699      1.0  0.69957  0.09561  0.71022  1.0000
  H   H700      1.0  0.69907  0.10984  0.75759  1.0000
  C   C889      1.0  0.66059  0.05013  0.96389  1.0000
  H   H701      1.0  0.64734  0.10599  0.82594  1.0000
  H   H702      1.0  0.77401  0.18863  0.67884  1.0000
  H   H703      1.0  0.92400  0.48278  0.89221  1.0000
  C   C890      1.0  0.86659  0.05360  0.95923  1.0000
  H   H704      1.0  0.84227  0.00544  0.93975  1.0000
  C   C891      1.0  0.54318  0.07736  0.86071  1.0000
  C   C892      1.0  0.54998  0.05078  0.85893  1.0000
  C   C893      1.0  0.55239  0.21826  0.79493  1.0000
  C   C894      1.0  0.52395  0.01796  0.85398  1.0000
  H   H705      1.0  0.56337  0.10253  0.86475  1.0000
  H   H706      1.0  0.57538  0.05587  0.86127  1.0000
  C   C895      1.0  0.84801  0.26429  0.67881  1.0000
  C   C896      1.0  0.82034  0.23444  0.68845  1.0000
  C   C897      1.0  0.82039  0.14344  0.74047  1.0000
  C   C898      1.0  0.80411  0.11107  0.75121  1.0000
  C   C899      1.0  0.78034  0.10285  0.77133  1.0000
  C   C900      1.0  0.77313  0.12707  0.78094  1.0000
  C   C901      1.0  0.78949  0.15974  0.77043  1.0000
  C   C902      1.0  0.81296  0.16762  0.74986  1.0000
  P   P30       1.0  0.77816  0.19030  0.78127  1.0000
  C   C903      1.0  0.76558  0.18292  0.81575  1.0000
  C   C904      1.0  0.81439  0.23181  0.77709  1.0000
  C   C905      1.0  0.84645  0.23824  0.78508  1.0000
  C   C906      1.0  0.87478  0.26996  0.78110  1.0000
  C   C907      1.0  0.87136  0.29540  0.76899  1.0000
  C   C908      1.0  0.83959  0.28923  0.76097  1.0000
  C   C909      1.0  0.81115  0.25759  0.76502  1.0000
  C   C910      1.0  0.78795  0.20225  0.83600  1.0000
  C   C911      1.0  0.77806  0.19553  0.86255  1.0000
  C   C912      1.0  0.74583  0.16952  0.86912  1.0000
  C   C913      1.0  0.72338  0.15034  0.84913  1.0000
  C   C914      1.0  0.73312  0.15710  0.82259  1.0000
  C   C915      1.0  0.74369  0.18585  0.76095  1.0000
  C   C916      1.0  0.74145  0.17629  0.73431  1.0000
  C   C917      1.0  0.71487  0.17288  0.71853  1.0000
  C   C918      1.0  0.69021  0.17878  0.72920  1.0000
  C   C919      1.0  0.69247  0.18876  0.75560  1.0000
  C   C920      1.0  0.71930  0.19265  0.77136  1.0000
  H   H707      1.0  0.83841  0.14969  0.72454  1.0000
  H   H708      1.0  0.80953  0.09220  0.74369  1.0000
  H   H709      1.0  0.76702  0.07753  0.77929  1.0000
  H   H710      1.0  0.75439  0.11988  0.79629  1.0000
  H   H711      1.0  0.82533  0.19233  0.74082  1.0000
  H   H712      1.0  0.84964  0.21863  0.79410  1.0000
  H   H713      1.0  0.89958  0.27474  0.78686  1.0000
  H   H714      1.0  0.89347  0.31962  0.76505  1.0000
  H   H715      1.0  0.83730  0.30872  0.75073  1.0000
  H   H716      1.0  0.78696  0.25329  0.75815  1.0000
  H   H717      1.0  0.81303  0.22250  0.83155  1.0000
  H   H718      1.0  0.79549  0.21041  0.87808  1.0000
  H   H719      1.0  0.73833  0.16398  0.88969  1.0000
  H   H720      1.0  0.69858  0.12977  0.85422  1.0000
  H   H721      1.0  0.71543  0.14183  0.80738  1.0000
  H   H722      1.0  0.76019  0.17149  0.72563  1.0000
  H   H723      1.0  0.71354  0.16585  0.69792  1.0000
  H   H724      1.0  0.58508  0.10540  0.67640  1.0000
  H   H725      1.0  0.67352  0.19358  0.76384  1.0000
  H   H726      1.0  0.72094  0.20097  0.79162  1.0000
  C   C921      1.0  0.51255  0.09998  0.78873  1.0000
  H   H727      1.0  0.67356  0.00968  0.77989  1.0000
  H   H728      1.0  0.61890  0.13400  0.84677  1.0000
  H   H729      1.0  0.53058  0.22033  0.80029  1.0000
  H   H730      1.0  0.76421  0.12795  0.68944  1.0000
  H   H731      1.0  0.75755  0.07326  0.70330  1.0000
  C   C922      1.0  0.88036  0.20489  0.65388  1.0000
  P   P31       1.0  0.76886  0.05602  0.94237  1.0000
  C   C923      1.0  0.95920  0.47080  0.82203  1.0000
  C   C924      1.0  0.59144  0.09860  0.94170  1.0000
  H   H732      1.0  0.61870  0.16181  0.65661  1.0000
  H   H733      1.0  0.58258  0.12103  0.97575  1.0000
  H   H734      1.0  0.52566  0.38720  0.82893  1.0000
  C   C925      1.0  0.59023  0.12740  0.68785  1.0000
  H   H735      1.0  0.94747  0.42056  0.83334  1.0000
  S   S135      1.0  0.97961  0.34317  0.69778  1.0000
  C   C926      1.0  0.95364  0.46008  0.88024  1.0000
  H   H736      1.0  0.52266  0.16877  0.77901  1.0000
  H   H737      1.0  0.55572  0.06295  0.79444  1.0000
  H   H738      1.0  0.79070  0.05112  0.68126  1.0000
  C   C927      1.0  0.53590  0.43809  0.82475  1.0000
  C   C928      1.0  0.96157  0.43505  0.88648  1.0000
  C   C929      1.0  0.59126  0.07030  0.93144  1.0000
  H   H739      1.0  0.96664  0.37445  0.84539  1.0000
  S   S136      1.0  0.67563  0.01067  0.86618  1.0000
  C   C930      1.0  0.58159  0.04216  0.94744  1.0000
  C   C931      1.0  0.51076  0.07984  0.92411  1.0000
  C   C932      1.0  0.57782  0.12386  0.71360  1.0000
  H   H740      1.0  0.53556  0.09311  0.91530  1.0000
  H   H741      1.0  0.74874  0.01265  0.89572  1.0000
  H   H742      1.0  0.59948  0.07038  0.91132  1.0000
  C   C933      1.0  0.51035  0.07159  0.85754  1.0000
  C   C934      1.0  0.61716  0.12994  0.82558  1.0000
  Fe  Fe66      1.0  0.96385  0.41829  0.69468  1.0000
  H   H743      1.0  0.59961  0.12066  0.92941  1.0000
  C   C935      1.0  0.51629  0.02710  0.76913  1.0000
  H   H744      1.0  0.54222  0.48751  0.82554  1.0000
  H   H745      1.0  0.83199  0.10318  0.96856  1.0000
  C   C936      1.0  0.81738  0.09416  0.65568  1.0000
  H   H746      1.0  0.95291  0.39458  0.91264  1.0000
  C   C937      1.0  0.94841  0.47682  0.77575  1.0000
  C   C938      1.0  0.61286  0.24169  0.79429  1.0000
  C   C939      1.0  0.73411  0.01405  0.93629  1.0000
  C   C940      1.0  0.52370  0.46218  0.86310  1.0000
  C   C941      1.0  0.51327  0.43197  0.87687  1.0000
  H   H747      1.0  0.98039  0.43268  0.87524  1.0000
  H   H748      1.0  0.58108  0.02710  0.80188  1.0000
  C   C942      1.0  0.94597  0.41333  0.90779  1.0000
  C   C943      1.0  0.86356  0.08105  0.96732  1.0000
  S   S137      1.0  0.94447  0.37886  0.66252  1.0000
  C   C944      1.0  0.77574  0.08798  0.68814  1.0000
  C   C945      1.0  0.58476  0.24466  0.80053  1.0000
  H   H749      1.0  0.56300  0.09890  0.72192  1.0000
  H   H750      1.0  0.66957  0.17590  0.71690  1.0000
  S   S138      1.0  0.95627  0.46343  0.69521  1.0000
  C   C946      1.0  0.54934  0.99810  0.69513  1.0000
  C   C947      1.0  0.53505  0.46497  0.83694  1.0000
  H   H751      1.0  0.52795  0.10550  0.80624  1.0000
  C   C948      1.0  0.49692  0.46258  0.71416  1.0000
  H   H752      1.0  0.63080  0.21254  0.68265  1.0000
  H   H753      1.0  0.97246  0.37560  0.79636  1.0000
  H   H754      1.0  0.90621  0.24822  0.67931  1.0000
  H   H755      1.0  0.54348  0.44017  0.80419  1.0000
  C   C949      1.0  0.61615  0.18780  0.69143  1.0000
  C   C950      1.0  0.93609  0.42254  0.79251  1.0000
  C   C951      1.0  0.84985  0.27101  0.65166  1.0000
  S   S139      1.0  0.50359  0.10642  0.85852  1.0000
  C   C952      1.0  0.77436  0.08082  0.91303  1.0000
  C   C953      1.0  0.74589  0.07709  0.89963  1.0000
  C   C954      1.0  0.74939  0.09468  0.87618  1.0000
  C   C955      1.0  0.78144  0.11670  0.86615  1.0000
  C   C956      1.0  0.81002  0.12115  0.87964  1.0000
  C   C957      1.0  0.80656  0.10323  0.90298  1.0000
  C   C958      1.0  0.83996  0.02677  0.94596  1.0000
  C   C959      1.0  0.54804  0.18895  0.78289  1.0000
  C   C960      1.0  0.93647  0.44267  0.77162  1.0000
  H   H756      1.0  0.95772  0.49037  0.95488  1.0000
  H   H757      1.0  0.51911  0.03671  0.71450  1.0000
  C   C961      1.0  0.79456  0.07558  0.67576  1.0000
  H   H758      1.0  0.83490  0.13831  0.87191  1.0000
  H   H759      1.0  0.50548  0.04294  0.76592  1.0000
  C   C962      1.0  0.80702  0.05482  0.94883  1.0000
  H   H760      1.0  0.72088  0.06022  0.90724  1.0000
  H   H761      1.0  0.72712  0.09094  0.86570  1.0000
  H   H762      1.0  0.78405  0.13024  0.84793  1.0000
  P   P32       1.0  0.97617  0.48963  0.85394  1.0000
  Fe  Fe67      1.0  0.64415  0.02112  0.89472  1.0000
  H   H763      1.0  0.92807  0.43203  0.75205  1.0000
  C   C963      1.0  0.51463  0.40532  0.86477  1.0000
  C   C964      1.0  0.91408  0.44109  0.91700  1.0000
  H   H764      1.0  0.51545  0.12163  0.72383  1.0000
  C   C965      1.0  0.52683  0.11540  0.76447  1.0000
  H   H765      1.0  0.60984  0.20681  0.72835  1.0000
  P   P33       1.0  0.57098  0.14709  0.76278  1.0000
  C   C966      1.0  0.59570  0.13433  0.78259  1.0000
  C   C967      1.0  0.58521  0.15233  0.72880  1.0000
  C   C968      1.0  0.60421  0.18439  0.71741  1.0000
  H   H766      1.0  0.63793  0.26210  0.79885  1.0000
  H   H767      1.0  0.89621  0.44396  0.92913  1.0000
  H   H768      1.0  0.51065  0.45039  0.72074  1.0000
  C   C969      1.0  0.96013  0.49095  0.80074  1.0000
  C   C970      1.0  0.59814  0.13962  0.81010  1.0000
  H   H769      1.0  0.62080  0.04115  0.73166  1.0000
  H   H770      1.0  0.52231  0.07553  0.67932  1.0000
  C   C971      1.0  0.63132  0.10917  0.78663  1.0000
  C   C972      1.0  0.61287  0.11931  0.77098  1.0000
  C   C973      1.0  0.57618  0.18570  0.77661  1.0000
  S   S140      1.0  0.50082  0.47059  0.78018  1.0000
  H   H771      1.0  0.92756  0.39619  0.78912  1.0000
  C   C974      1.0  0.94735  0.43648  0.81764  1.0000
  S   S141      1.0  0.68350  0.11380  0.65651  1.0000
  C   C975      1.0  0.60860  0.21226  0.78253  1.0000
  H   H772      1.0  0.53223  0.00221  0.68304  1.0000
  C   C976      1.0  0.49818  0.05713  0.68737  1.0000
  H   H773      1.0  0.91051  0.39970  0.93976  1.0000
  H   H774      1.0  0.58294  0.02090  0.93965  1.0000
  C   C977      1.0  0.54506  0.03873  0.78484  1.0000
  C   C978      1.0  0.52570  0.40825  0.83864  1.0000
  H   H775      1.0  0.67382  0.10081  0.97399  1.0000
  C   C979      1.0  0.50559  0.10889  0.74249  1.0000
  H   H776      1.0  0.58224  0.05075  0.70326  1.0000
  H   H777      1.0  0.58802  0.26730  0.80995  1.0000
  H   H778      1.0  0.58505  0.15090  0.81972  1.0000
  H   H779      1.0  0.64382  0.09692  0.77768  1.0000
  H   H780      1.0  0.61215  0.11493  0.75000  1.0000
  C   C980      1.0  0.79506  0.21142  0.67120  1.0000
  C   C981      1.0  0.60932  0.15931  0.67671  1.0000
  H   H781      1.0  0.63057  0.21009  0.77825  1.0000
  C   C982      1.0  0.73077  0.99920  0.91133  1.0000
  C   C983      1.0  0.77960  0.11889  0.68042  1.0000
  C   C984      1.0  0.81026  0.02733  0.94076  1.0000
  C   C985      1.0  0.65336  0.01892  0.97398  1.0000
  C   C986      1.0  0.57740  0.02544  0.70663  1.0000
  H   H782      1.0  0.51161  0.03395  0.92862  1.0000
  H   H783      1.0  0.75279  0.11060  0.94862  1.0000
  Fe  Fe68      1.0  0.68760  0.06727  0.65209  1.0000
  C   C987      1.0  0.55918  0.01839  0.78921  1.0000
  C   C988      1.0  0.99145  0.38578  0.83659  1.0000
  H   H784      1.0  0.88955  0.05311  0.96328  1.0000
  C   C989      1.0  0.59927  0.02007  0.72242  1.0000
  C   C990      1.0  0.83391  0.08168  0.96217  1.0000
  H   H785      1.0  0.86912  0.18785  0.67037  1.0000
  C   C991      1.0  0.76121  0.07505  0.97086  1.0000
  H   H786      1.0  0.89380  0.13741  0.65437  1.0000
  H   H787      1.0  0.94930  0.49245  0.75930  1.0000
  H   H788      1.0  0.50237  0.12172  0.91983  1.0000
  C   C992      1.0  0.75483  0.10177  0.96798  1.0000
  H   H789      1.0  0.50356  0.22065  0.75528  1.0000
  C   C993      1.0  0.54304  0.49218  0.96678  1.0000
  H   H790      1.0  0.50356  0.42850  0.89677  1.0000
  H   H791      1.0  0.71165  0.00676  0.97528  1.0000
  H   H792      1.0  0.64671  0.99822  0.96058  1.0000
  C   C994      1.0  0.49616  0.03499  0.70723  1.0000
  C   C995      1.0  0.99465  0.38639  0.80875  1.0000
  C   C996      1.0  0.82183  0.12556  0.64815  1.0000
  H   H793      1.0  0.88418  0.10184  0.97765  1.0000
  H   H794      1.0  0.50643  0.38217  0.87556  1.0000
  C   C997      1.0  0.49688  0.04613  0.93155  1.0000
  C   C998      1.0  0.51097  0.47068  0.95661  1.0000
  C   C999      1.0  0.90176  0.23908  0.65909  1.0000
  C   C1000     1.0  0.50394  0.47323  0.93008  1.0000
  C   C1001     1.0  0.80239  0.13748  0.66036  1.0000
  H   H795      1.0  0.91648  0.43121  0.64945  1.0000
  H   H796      1.0  0.80418  0.16067  0.65369  1.0000
  H   H797      1.0  0.67624  0.99622  0.73293  1.0000
  H   H798      1.0  0.53206  0.54721  0.22335  1.0000
  Fe  Fe69      1.0  0.62731  0.75019  0.28402  1.0000
  S   S142      1.0  0.67647  0.74991  0.28218  1.0000
  S   S143      1.0  0.62655  0.79972  0.28240  1.0000
  Fe  Fe70      1.0  0.58594  0.67292  0.27930  1.0000
  S   S144      1.0  0.63222  0.66861  0.27681  1.0000
  S   S145      1.0  0.53392  0.62558  0.27834  1.0000
  C   C1002     1.0  0.92538  0.56399  0.03175  1.0000
  Fe  Fe71      1.0  0.65252  0.71253  0.24887  1.0000
  S   S146      1.0  0.68310  0.71167  0.21323  1.0000
  C   C1003     1.0  0.56092  0.60980  0.15710  1.0000
  S   S147      1.0  0.60477  0.71481  0.24918  1.0000
  H   H799      1.0  0.55358  0.68382  0.05534  1.0000
  Fe  Fe72      1.0  0.68780  0.69496  0.05239  1.0000
  S   S148      1.0  0.69154  0.64802  0.05320  1.0000
  S   S149      1.0  0.67651  0.72017  0.08716  1.0000
  Fe  Fe73      1.0  0.73024  0.67173  0.02034  1.0000
  S   S150      1.0  0.78235  0.67595  0.02288  1.0000
  Fe  Fe74      1.0  0.65289  0.62967  0.02041  1.0000
  S   S151      1.0  0.60601  0.57753  0.02088  1.0000
  S   S152      1.0  0.72877  0.72023  0.02167  1.0000
  S   S153      1.0  0.64741  0.67519  0.02118  1.0000
  C   C1004     1.0  0.56483  0.57202  0.02373  1.0000
  C   C1005     1.0  0.53692  0.53938  0.02545  1.0000
  C   C1006     1.0  0.97199  0.56181  0.01122  1.0000
  C   C1007     1.0  0.52624  0.59391  0.02592  1.0000
  C   C1008     1.0  0.55921  0.59928  0.02397  1.0000
  Fe  Fe75      1.0  0.68835  0.69582  0.99053  1.0000
  H   H800      1.0  0.58008  0.62457  0.02241  1.0000
  C   C1009     1.0  0.52916  0.58483  0.28077  1.0000
  H   H801      1.0  0.90100  0.56217  0.03007  1.0000
  C   C1010     1.0  0.51962  0.51890  0.28325  1.0000
  C   C1011     1.0  0.55189  0.54698  0.28001  1.0000
  C   C1012     1.0  0.55666  0.57968  0.27864  1.0000
  H   H802      1.0  0.52228  0.61514  0.02581  1.0000
  H   H803      1.0  0.51924  0.67679  0.00929  1.0000
  H   H804      1.0  0.58166  0.60078  0.27596  1.0000
  C   C1013     1.0  0.67950  0.71280  0.17819  1.0000
  C   C1014     1.0  0.65297  0.71421  0.16574  1.0000
  C   C1015     1.0  0.65165  0.71522  0.13782  1.0000
  C   C1016     1.0  0.67651  0.71429  0.12200  1.0000
  C   C1017     1.0  0.70307  0.71314  0.13452  1.0000
  C   C1018     1.0  0.70453  0.71241  0.16237  1.0000
  H   H805      1.0  0.63369  0.71484  0.17761  1.0000
  H   H806      1.0  0.63148  0.71712  0.12841  1.0000
  H   H807      1.0  0.72315  0.71399  0.12271  1.0000
  H   H808      1.0  0.72549  0.71191  0.17171  1.0000
  H   H809      1.0  0.66768  0.96651  0.30158  1.0000
  H   H810      1.0  0.97430  0.64877  0.02935  1.0000
  H   H811      1.0  0.61306  0.65757  0.20700  1.0000
  H   H812      1.0  0.62660  0.86198  0.27807  1.0000
  H   H813      1.0  0.88837  0.55805  0.14771  1.0000
  C   C1019     1.0  0.55499  0.66593  0.06839  1.0000
  C   C1020     1.0  0.52744  0.61417  0.09347  1.0000
  C   C1021     1.0  0.55885  0.61917  0.10173  1.0000
  H   H814      1.0  0.57908  0.72239  0.01331  1.0000
  H   H815      1.0  0.54080  0.51805  0.02550  1.0000
  H   H816      1.0  0.93619  0.52270  0.22080  1.0000
  C   C1022     1.0  0.80545  0.66437  0.00093  1.0000
  H   H817      1.0  0.97904  0.50790  0.01474  1.0000
  H   H818      1.0  0.75137  0.74805  0.27915  1.0000
  C   C1023     1.0  0.56006  0.64062  0.20477  1.0000
  H   H819      1.0  0.59666  0.56991  0.16166  1.0000
  H   H820      1.0  0.52057  0.53889  0.16467  1.0000
  H   H821      1.0  0.97802  0.54656  0.17618  1.0000
  C   C1024     1.0  0.51115  0.52916  0.14516  1.0000
  C   C1025     1.0  0.60887  0.58611  0.09551  1.0000
  H   H822      1.0  0.71481  0.82815  0.27310  1.0000
  H   H823      1.0  0.54631  0.95447  0.06981  1.0000
  H   H824      1.0  0.96491  0.70818  0.00663  1.0000
  H   H825      1.0  0.98110  0.54361  0.11226  1.0000
  C   C1026     1.0  0.55294  0.98561  0.19323  1.0000
  H   H826      1.0  0.71866  0.78485  0.12497  1.0000
  C   C1027     1.0  0.96447  0.71241  0.02771  1.0000
  C   C1028     1.0  0.88094  0.60272  0.08909  1.0000
  H   H827      1.0  0.98766  0.58347  0.07611  1.0000
  C   C1029     1.0  0.94147  0.58189  0.13933  1.0000
  H   H828      1.0  0.96826  0.68478  0.28941  1.0000
  C   C1030     1.0  0.94007  0.55860  0.00951  1.0000
  C   C1031     1.0  0.86484  0.56989  0.07911  1.0000
  C   C1032     1.0  0.90730  0.67101  0.12373  1.0000
  H   H829      1.0  0.61460  0.63228  0.16433  1.0000
  H   H830      1.0  0.92679  0.55224  0.99080  1.0000
  C   C1033     1.0  0.90850  0.55472  0.13988  1.0000
  C   C1034     1.0  0.85900  0.66724  0.98932  1.0000
  H   H831      1.0  0.94710  0.60637  0.14659  1.0000
  H   H832      1.0  0.68777  0.84854  0.08691  1.0000
  H   H833      1.0  0.96584  0.66806  0.16364  1.0000
  H   H834      1.0  0.80069  0.76011  0.99776  1.0000
  H   H835      1.0  0.55946  0.65186  0.22344  1.0000
  C   C1035     1.0  0.59658  0.70220  0.98285  1.0000
  H   H836      1.0  0.77536  0.85816  0.26065  1.0000
  H   H837      1.0  0.99303  0.59871  0.12902  1.0000
  C   C1036     1.0  0.62365  0.85535  0.29882  1.0000
  C   C1037     1.0  0.96746  0.57757  0.12945  1.0000
  H   H838      1.0  0.62271  0.72194  0.98455  1.0000
  C   C1038     1.0  0.72135  0.69421  0.27631  1.0000
  C   C1039     1.0  0.74505  0.72612  0.26716  1.0000
  C   C1040     1.0  0.76014  0.72974  0.24244  1.0000
  C   C1041     1.0  0.75135  0.70146  0.22672  1.0000
  C   C1042     1.0  0.72700  0.66934  0.23553  1.0000
  C   C1043     1.0  0.71238  0.66590  0.26062  1.0000
  P   P34       1.0  0.71670  0.63239  0.21611  1.0000
  C   C1044     1.0  0.72366  0.64279  0.18128  1.0000
  C   C1045     1.0  0.74353  0.61597  0.22617  1.0000
  C   C1046     1.0  0.74858  0.59475  0.20911  1.0000
  C   C1047     1.0  0.76962  0.58227  0.21662  1.0000
  C   C1048     1.0  0.78578  0.59087  0.24118  1.0000
  C   C1049     1.0  0.78084  0.61190  0.25829  1.0000
  C   C1050     1.0  0.75977  0.62438  0.25088  1.0000
  C   C1051     1.0  0.69668  0.63614  0.16438  1.0000
  C   C1052     1.0  0.70227  0.64322  0.13733  1.0000
  C   C1053     1.0  0.73479  0.65744  0.12698  1.0000
  C   C1054     1.0  0.76187  0.66458  0.14368  1.0000
  C   C1055     1.0  0.75634  0.65720  0.17070  1.0000
  C   C1056     1.0  0.67284  0.60122  0.22099  1.0000
  C   C1057     1.0  0.64853  0.61120  0.22311  1.0000
  C   C1058     1.0  0.61448  0.58713  0.22624  1.0000
  C   C1059     1.0  0.60443  0.55298  0.22718  1.0000
  C   C1060     1.0  0.62841  0.54286  0.22513  1.0000
  C   C1061     1.0  0.66250  0.56684  0.22201  1.0000
  H   H839      1.0  0.94972  0.66412  0.11648  1.0000
  H   H840      1.0  0.64031  0.55439  0.15406  1.0000
  H   H841      1.0  0.77809  0.75456  0.23518  1.0000
  H   H842      1.0  0.76307  0.70498  0.20755  1.0000
  H   H843      1.0  0.69390  0.64142  0.26807  1.0000
  H   H844      1.0  0.73623  0.58783  0.19000  1.0000
  H   H845      1.0  0.57926  0.72388  0.17771  1.0000
  H   H846      1.0  0.85183  0.69248  0.02269  1.0000
  C   C1062     1.0  0.52167  0.97697  0.04875  1.0000
  H   H847      1.0  0.75648  0.64072  0.26446  1.0000
  H   H848      1.0  0.67140  0.62611  0.17193  1.0000
  H   H849      1.0  0.68149  0.63881  0.12447  1.0000
  H   H850      1.0  0.73898  0.66364  0.10610  1.0000
  H   H851      1.0  0.78719  0.67619  0.13574  1.0000
  H   H852      1.0  0.77762  0.66301  0.18339  1.0000
  H   H853      1.0  0.65589  0.63760  0.22223  1.0000
  H   H854      1.0  0.59589  0.59499  0.22816  1.0000
  H   H855      1.0  0.93161  0.57722  0.07306  1.0000
  C   C1063     1.0  0.94254  0.57240  0.05583  1.0000
  H   H856      1.0  0.68055  0.55833  0.22041  1.0000
  S   S154      1.0  0.69192  0.64892  0.98766  1.0000
  H   H857      1.0  0.67356  0.86288  0.13022  1.0000
  H   H858      1.0  0.74933  0.87201  0.18188  1.0000
  C   C1064     1.0  0.57199  0.70239  0.99903  1.0000
  H   H859      1.0  0.80218  0.58129  0.24698  1.0000
  C   C1065     1.0  0.95437  0.57563  0.22606  1.0000
  C   C1066     1.0  0.92505  0.67466  0.17738  1.0000
  H   H860      1.0  0.86782  0.55061  0.08900  1.0000
  H   H861      1.0  0.88544  0.67684  0.99323  1.0000
  P   P35       1.0  0.56092  0.59122  0.12570  1.0000
  C   C1067     1.0  0.53078  0.62369  0.18965  1.0000
  H   H862      1.0  0.70982  0.80903  0.08416  1.0000
  C   C1068     1.0  0.60741  0.57286  0.14208  1.0000
  H   H863      1.0  0.89626  0.60825  0.10664  1.0000
  H   H864      1.0  0.54717  0.73131  0.21413  1.0000
  C   C1069     1.0  0.53108  0.60800  0.16604  1.0000
  H   H865      1.0  0.82686  0.58100  0.02523  1.0000
  H   H866      1.0  0.51624  0.99200  0.10488  1.0000
  H   H867      1.0  0.88267  0.68143  0.18511  1.0000
  C   C1070     1.0  0.59075  0.62851  0.17164  1.0000
  H   H868      1.0  0.83301  0.53664  0.04832  1.0000
  H   H869      1.0  0.96794  0.63926  0.07780  1.0000
  H   H870      1.0  0.59933  0.59343  0.07867  1.0000
  C   C1071     1.0  0.64461  0.56543  0.11233  1.0000
  C   C1072     1.0  0.63301  0.57653  0.09123  1.0000
  C   C1073     1.0  0.58635  0.67101  0.07641  1.0000
  C   C1074     1.0  0.58835  0.64791  0.09325  1.0000
  H   H871      1.0  0.57330  0.54339  0.27817  1.0000
  H   H872      1.0  0.66317  0.55785  0.10882  1.0000
  H   H873      1.0  0.64205  0.57698  0.07131  1.0000
  H   H874      1.0  0.60918  0.69294  0.06957  1.0000
  H   H875      1.0  0.61288  0.65268  0.09974  1.0000
  H   H876      1.0  0.55309  0.96233  0.19614  1.0000
  H   H877      1.0  0.96441  0.72736  0.10319  1.0000
  C   C1075     1.0  0.83985  0.67617  0.00592  1.0000
  C   C1076     1.0  0.97626  0.60457  0.24019  1.0000
  C   C1077     1.0  0.93552  0.69601  0.07011  1.0000
  H   H878      1.0  0.50654  0.96873  0.21420  1.0000
  P   P36       1.0  0.89748  0.67045  0.08898  1.0000
  C   C1078     1.0  0.87716  0.62784  0.07635  1.0000
  H   H879      1.0  0.97787  0.62834  0.23552  1.0000
  C   C1079     1.0  0.93489  0.66772  0.13135  1.0000
  H   H880      1.0  0.93915  0.57695  0.21026  1.0000
  H   H881      1.0  0.63493  0.98022  0.22565  1.0000
  H   H882      1.0  0.97872  0.50003  0.14082  1.0000
  C   C1080     1.0  0.92772  0.51852  0.12100  1.0000
  C   C1081     1.0  0.85740  0.61956  0.05331  1.0000
  H   H883      1.0  0.52458  0.55077  0.07997  1.0000
  H   H884      1.0  0.50818  0.59469  0.15457  1.0000
  C   C1082     1.0  0.93585  0.69144  0.04264  1.0000
  H   H885      1.0  0.91425  0.67165  0.03258  1.0000
  C   C1083     1.0  0.87010  0.68778  0.08487  1.0000
  C   C1084     1.0  0.83501  0.66687  0.08651  1.0000
  C   C1085     1.0  0.81381  0.68018  0.08276  1.0000
  C   C1086     1.0  0.82741  0.71448  0.07784  1.0000
  C   C1087     1.0  0.86232  0.73559  0.07676  1.0000
  C   C1088     1.0  0.88366  0.72234  0.08029  1.0000
  C   C1089     1.0  0.52487  0.54960  0.12273  1.0000
  C   C1090     1.0  0.49838  0.56139  0.02808  1.0000
  H   H886      1.0  0.79238  0.87987  0.21488  1.0000
  C   C1091     1.0  0.94387  0.66974  0.15802  1.0000
  C   C1092     1.0  0.88823  0.67563  0.14333  1.0000
  C   C1093     1.0  0.52665  0.98936  0.20336  1.0000
  C   C1094     1.0  0.59617  0.58471  0.12103  1.0000
  C   C1095     1.0  0.84523  0.56198  0.05620  1.0000
  H   H887      1.0  0.85418  0.63840  0.04298  1.0000
  H   H888      1.0  0.72255  0.93568  0.25094  1.0000
  C   C1096     1.0  0.54941  0.97681  0.06003  1.0000
  C   C1097     1.0  0.84169  0.58687  0.04323  1.0000
  C   C1098     1.0  0.89711  0.67741  0.17006  1.0000
  H   H889      1.0  0.82391  0.64016  0.09006  1.0000
  H   H890      1.0  0.78674  0.66366  0.08238  1.0000
  H   H891      1.0  0.81078  0.72442  0.07395  1.0000
  H   H892      1.0  0.87279  0.76211  0.07257  1.0000
  H   H893      1.0  0.91063  0.73905  0.07910  1.0000
  C   C1099     1.0  0.64112  0.90593  0.17295  1.0000
  C   C1100     1.0  0.66788  0.93655  0.18170  1.0000
  C   C1101     1.0  0.69723  0.93812  0.19123  1.0000
  C   C1102     1.0  0.69985  0.90906  0.19213  1.0000
  C   C1103     1.0  0.67290  0.87806  0.18366  1.0000
  C   C1104     1.0  0.64361  0.87681  0.17383  1.0000
  P   P37       1.0  0.67586  0.84023  0.18455  1.0000
  C   C1105     1.0  0.70721  0.84525  0.20867  1.0000
  C   C1106     1.0  0.63500  0.80549  0.19369  1.0000
  C   C1107     1.0  0.61645  0.80951  0.21405  1.0000
  C   C1108     1.0  0.58489  0.78285  0.22131  1.0000
  C   C1109     1.0  0.57138  0.75207  0.20814  1.0000
  C   C1110     1.0  0.58951  0.74788  0.18773  1.0000
  C   C1111     1.0  0.62120  0.77444  0.18051  1.0000
  C   C1112     1.0  0.69791  0.83296  0.23453  1.0000
  C   C1113     1.0  0.72242  0.83780  0.25321  1.0000
  C   C1114     1.0  0.75645  0.85470  0.24617  1.0000
  C   C1115     1.0  0.76600  0.86689  0.22041  1.0000
  C   C1116     1.0  0.74151  0.86224  0.20172  1.0000
  C   C1117     1.0  0.68809  0.83194  0.15271  1.0000
  C   C1118     1.0  0.68359  0.84602  0.12948  1.0000
  C   C1119     1.0  0.69163  0.83796  0.10484  1.0000
  C   C1120     1.0  0.70422  0.81589  0.10325  1.0000
  C   C1121     1.0  0.70914  0.80215  0.12630  1.0000
  C   C1122     1.0  0.70098  0.80995  0.15094  1.0000
  H   H894      1.0  0.61848  0.90488  0.16543  1.0000
  H   H895      1.0  0.66595  0.95916  0.18093  1.0000
  H   H896      1.0  0.71798  0.96202  0.19778  1.0000
  H   H897      1.0  0.72288  0.91098  0.19949  1.0000
  H   H898      1.0  0.62266  0.85332  0.16686  1.0000
  H   H899      1.0  0.62672  0.83299  0.22486  1.0000
  H   H900      1.0  0.57139  0.78591  0.23771  1.0000
  C   C1123     1.0  0.95258  0.54511  0.23207  1.0000
  H   H901      1.0  0.70399  0.79816  0.16852  1.0000
  H   H902      1.0  0.63472  0.77043  0.16473  1.0000
  H   H903      1.0  0.67180  0.81948  0.24041  1.0000
  H   H904      1.0  0.86680  0.67828  0.13811  1.0000
  C   C1124     1.0  0.59011  0.64336  0.19565  1.0000
  C   C1125     1.0  0.63179  0.56357  0.13777  1.0000
  H   H905      1.0  0.70024  0.86655  0.31111  1.0000
  C   C1126     1.0  0.97291  0.54354  0.25198  1.0000
  C   C1127     1.0  0.49699  0.55686  0.28490  1.0000
  C   C1128     1.0  0.99181  0.65826  0.06978  1.0000
  C   C1129     1.0  0.52552  0.63752  0.07695  1.0000
  H   H906      1.0  0.87599  0.50224  0.13129  1.0000
  C   C1130     1.0  0.96062  0.54610  0.12019  1.0000
  C   C1131     1.0  0.50393  0.53409  0.02752  1.0000
  C   C1132     1.0  0.62245  0.82542  0.30686  1.0000
  C   C1133     1.0  0.99305  0.73807  0.04003  1.0000
  C   C1134     1.0  0.68424  0.95626  0.29902  1.0000
  H   H907      1.0  0.50437  0.59218  0.09963  1.0000
  H   H908      1.0  0.98345  0.55841  0.99369  1.0000
  H   H909      1.0  0.93241  0.67667  0.19802  1.0000
  H   H910      1.0  0.84231  0.74196  0.98895  1.0000
  H   H911      1.0  0.79349  0.61866  0.27731  1.0000
  H   H912      1.0  0.50117  0.63298  0.07011  1.0000
  C   C1135     1.0  0.53838  0.67682  0.99671  1.0000
  H   H913      1.0  0.97161  0.51972  0.25562  1.0000
  C   C1136     1.0  0.51341  0.53578  0.09754  1.0000
  C   C1137     1.0  0.72729  0.93014  0.29284  1.0000
  C   C1138     1.0  0.96413  0.72252  0.08222  1.0000
  C   C1139     1.0  0.97441  0.57554  0.05758  1.0000
  C   C1140     1.0  0.90160  0.52316  0.13063  1.0000
  H   H914      1.0  0.74435  0.92050  0.29017  1.0000
  C   C1141     1.0  0.71522  0.93895  0.27058  1.0000
  H   H915      1.0  0.94138  0.49861  0.05478  1.0000
  H   H916      1.0  0.50773  0.62235  0.19650  1.0000
  C   C1142     1.0  0.69387  0.95224  0.27368  1.0000
  Fe  Fe76      1.0  0.65127  0.70586  0.31024  1.0000
  H   H917      1.0  0.70963  0.69152  0.29546  1.0000
  H   H918      1.0  0.61611  0.52104  0.30078  1.0000
  H   H919      1.0  0.77345  0.56593  0.20338  1.0000
  H   H920      1.0  0.65195  0.99110  0.00889  1.0000
  H   H921      1.0  0.68470  0.95943  0.25652  1.0000
  C   C1143     1.0  0.61940  0.54238  0.31228  1.0000
  C   C1144     1.0  0.99057  0.68600  0.29774  1.0000
  H   H922      1.0  0.64223  0.99005  0.27414  1.0000
  C   C1145     1.0  0.98915  0.56958  0.03540  1.0000
  H   H923      1.0  0.62107  0.89927  0.31083  1.0000
  H   H924      1.0  0.57808  0.53430  0.22983  1.0000
  H   H925      1.0  0.66435  0.57812  0.29160  1.0000
  H   H926      1.0  0.98716  0.60439  0.31395  1.0000
  C   C1146     1.0  0.64642  0.57452  0.30701  1.0000
  C   C1147     1.0  0.50621  0.52855  0.21906  1.0000
  H   H927      1.0  0.97913  0.50028  0.30616  1.0000
  H   H928      1.0  0.62051  0.51635  0.22606  1.0000
  C   C1148     1.0  0.99289  0.74316  0.06726  1.0000
  H   H929      1.0  0.49695  0.95477  0.04996  1.0000
  C   C1149     1.0  0.99504  0.57254  0.26630  1.0000
  Fe  Fe77      1.0  0.95767  0.60727  0.44440  1.0000
  S   S155      1.0  0.95206  0.55564  0.45075  1.0000
  Fe  Fe78      1.0  0.92230  0.64809  0.43525  1.0000
  H   H930      1.0  0.97136  0.67731  0.33790  1.0000
  S   S156      1.0  0.87451  0.65164  0.42992  1.0000
  H   H931      1.0  0.96665  0.66304  0.52652  1.0000
  H   H932      1.0  0.96051  0.64921  0.57444  1.0000
  C   C1150     1.0  0.66448  0.56974  0.60332  1.0000
  S   S157      1.0  0.93726  0.61872  0.40778  1.0000
  S   S158      1.0  0.93786  0.63201  0.47221  1.0000
  H   H933      1.0  0.89809  0.75269  0.59136  1.0000
  Fe  Fe79      1.0  0.62097  0.94804  0.36520  1.0000
  C   C1151     1.0  0.53165  0.65018  0.45573  1.0000
  S   S159      1.0  0.61443  0.89531  0.36879  1.0000
  S   S160      1.0  0.59722  0.96509  0.39651  1.0000
  S   S161      1.0  0.67505  0.69081  0.34315  1.0000
  S   S162      1.0  0.67453  0.62562  0.48944  1.0000
  S   S163      1.0  0.66331  0.70215  0.46800  1.0000
  C   C1152     1.0  0.66754  0.69150  0.37756  1.0000
  C   C1153     1.0  0.65803  0.71351  0.38842  1.0000
  C   C1154     1.0  0.65641  0.71617  0.41613  1.0000
  C   C1155     1.0  0.66366  0.69644  0.43324  1.0000
  C   C1156     1.0  0.67137  0.67315  0.42231  1.0000
  C   C1157     1.0  0.67352  0.67090  0.39463  1.0000
  H   H934      1.0  0.65280  0.72910  0.37553  1.0000
  H   H935      1.0  0.65002  0.73398  0.42439  1.0000
  H   H936      1.0  0.67626  0.65734  0.43521  1.0000
  H   H937      1.0  0.68018  0.65333  0.38637  1.0000
  C   C1158     1.0  0.61745  0.86891  0.34436  1.0000
  C   C1159     1.0  0.61622  0.83896  0.35240  1.0000
  H   H938      1.0  0.97652  0.59501  0.54477  1.0000
  H   H939      1.0  0.61343  0.83247  0.37318  1.0000
  H   H940      1.0  0.61746  0.79433  0.34035  1.0000
  C   C1160     1.0  0.98623  0.74460  0.60788  1.0000
  H   H941      1.0  0.57602  0.61070  0.46870  1.0000
  C   C1161     1.0  0.84457  0.64718  0.45442  1.0000
  C   C1162     1.0  0.79820  0.65621  0.46767  1.0000
  C   C1163     1.0  0.82222  0.65901  0.44886  1.0000
  H   H942      1.0  0.78228  0.66675  0.46361  1.0000
  H   H943      1.0  0.82401  0.67110  0.43008  1.0000
  C   C1164     1.0  0.98141  0.58553  0.61399  1.0000
  C   C1165     1.0  0.60620  0.55555  0.45508  1.0000
  Fe  Fe80      1.0  0.67592  0.67403  0.49912  1.0000
  Fe  Fe81      1.0  0.68711  0.66887  0.55902  1.0000
  S   S164      1.0  0.68601  0.62017  0.55205  1.0000
  S   S165      1.0  0.69949  0.68708  0.60215  1.0000
  Fe  Fe82      1.0  0.71940  0.64422  0.51669  1.0000
  S   S166      1.0  0.76384  0.63417  0.51565  1.0000
  Fe  Fe83      1.0  0.64182  0.60669  0.52571  1.0000
  S   S167      1.0  0.59542  0.55499  0.52835  1.0000
  S   S168      1.0  0.72285  0.69415  0.52464  1.0000
  S   S169      1.0  0.64086  0.65390  0.53433  1.0000
  C   C1166     1.0  0.55468  0.55020  0.52950  1.0000
  C   C1167     1.0  0.52635  0.58716  0.45131  1.0000
  C   C1168     1.0  0.56721  0.59850  0.37274  1.0000
  C   C1169     1.0  0.98046  0.59225  0.35512  1.0000
  C   C1170     1.0  0.54897  0.57719  0.52603  1.0000
  C   C1171     1.0  0.94233  0.72336  0.51171  1.0000
  H   H944      1.0  0.56995  0.60214  0.52256  1.0000
  H   H945      1.0  0.73418  0.88499  0.39235  1.0000
  C   C1172     1.0  0.92554  0.52380  0.52530  1.0000
  C   C1173     1.0  0.67352  0.68545  0.62910  1.0000
  C   C1174     1.0  0.62442  0.68604  0.64700  1.0000
  C   C1175     1.0  0.56721  0.65964  0.37295  1.0000
  H   H946      1.0  0.63300  0.68182  0.60535  1.0000
  C   C1176     1.0  0.84206  0.63180  0.47889  1.0000
  C   C1177     1.0  0.81721  0.62799  0.49733  1.0000
  C   C1178     1.0  0.79507  0.64013  0.49183  1.0000
  H   H947      1.0  0.85891  0.62242  0.48343  1.0000
  H   H948      1.0  0.81514  0.61550  0.51595  1.0000
  H   H949      1.0  0.78836  0.90932  0.36184  1.0000
  P   P38       1.0  0.56902  0.56008  0.37162  1.0000
  C   C1179     1.0  0.63377  0.59127  0.62755  1.0000
  C   C1180     1.0  0.89899  0.64280  0.54027  1.0000
  C   C1181     1.0  0.59914  0.56537  0.34628  1.0000
  C   C1182     1.0  0.59569  0.53780  0.33170  1.0000
  H   H950      1.0  0.66803  0.77488  0.60431  1.0000
  C   C1183     1.0  0.70459  0.85825  0.32995  1.0000
  H   H951      1.0  0.72802  0.50720  0.46579  1.0000
  C   C1184     1.0  0.62653  0.59751  0.34097  1.0000
  H   H952      1.0  0.71475  0.82456  0.39773  1.0000
  H   H953      1.0  0.96222  0.72323  0.52323  1.0000
  C   C1185     1.0  0.51072  0.60003  0.59853  1.0000
  C   C1186     1.0  0.98380  0.66995  0.56705  1.0000
  S   S170      1.0  0.60351  0.96708  0.33104  1.0000
  H   H954      1.0  0.67070  0.62717  0.31740  1.0000
  C   C1187     1.0  0.73804  0.98678  0.40720  1.0000
  H   H955      1.0  0.62975  0.61923  0.35184  1.0000
  C   C1188     1.0  0.63910  0.51447  0.48870  1.0000
  H   H956      1.0  0.84983  0.94018  0.35598  1.0000
  Fe  Fe84      1.0  0.58438  0.98823  0.36252  1.0000
  H   H957      1.0  0.53121  0.49697  0.53652  1.0000
  C   C1189     1.0  0.69224  0.55200  0.50981  1.0000
  C   C1190     1.0  0.63651  0.89779  0.63963  1.0000
  C   C1191     1.0  0.78056  0.94696  0.34236  1.0000
  C   C1192     1.0  0.79999  0.93336  0.35188  1.0000
  P   P39       1.0  0.73542  0.92532  0.34717  1.0000
  C   C1193     1.0  0.65736  0.53106  0.51132  1.0000
  C   C1194     1.0  0.71966  0.88072  0.35109  1.0000
  C   C1195     1.0  0.72303  0.86825  0.37563  1.0000
  C   C1196     1.0  0.77990  0.52226  0.45906  1.0000
  C   C1197     1.0  0.69780  0.81204  0.35747  1.0000
  C   C1198     1.0  0.86361  0.50610  0.54897  1.0000
  H   H958      1.0  0.95801  0.49620  0.45464  1.0000
  H   H959      1.0  0.83216  0.54253  0.44839  1.0000
  C   C1199     1.0  0.51582  0.57179  0.52681  1.0000
  H   H960      1.0  0.83961  0.49919  0.55810  1.0000
  S   S171      1.0  0.53448  0.98714  0.36107  1.0000
  C   C1200     1.0  0.72551  0.94121  0.37650  1.0000
  H   H961      1.0  0.55394  0.52413  0.46522  1.0000
  C   C1201     1.0  0.53354  0.98000  0.56639  1.0000
  C   C1202     1.0  0.68566  0.93408  0.41115  1.0000
  C   C1203     1.0  0.69476  0.92130  0.38956  1.0000
  C   C1204     1.0  0.61850  0.81723  0.33379  1.0000
  H   H962      1.0  0.92627  0.73623  0.44839  1.0000
  C   C1205     1.0  0.69059  0.54112  0.46261  1.0000
  C   C1206     1.0  0.98717  0.67768  0.53993  1.0000
  H   H963      1.0  0.68931  0.78555  0.35987  1.0000
  C   C1207     1.0  0.52847  0.52335  0.36481  1.0000
  H   H964      1.0  0.63571  0.91772  0.62874  1.0000
  H   H965      1.0  0.68704  0.94928  0.34057  1.0000
  Fe  Fe85      1.0  0.98806  0.66571  0.40516  1.0000
  C   C1208     1.0  0.68590  0.51744  0.40747  1.0000
  C   C1209     1.0  0.66432  0.59419  0.61965  1.0000
  H   H966      1.0  0.66128  0.91885  0.42045  1.0000
  H   H967      1.0  0.67718  0.89621  0.38255  1.0000
  P   P40       1.0  0.71247  0.54886  0.43135  1.0000
  P   P41       1.0  0.56390  0.55926  0.63107  1.0000
  C   C1210     1.0  0.75059  0.54712  0.43668  1.0000
  H   H968      1.0  0.68505  0.90967  0.62430  1.0000
  H   H969      1.0  0.55984  0.95894  0.58699  1.0000
  C   C1211     1.0  0.80930  0.54352  0.44506  1.0000
  C   C1212     1.0  0.80939  0.56639  0.42684  1.0000
  C   C1213     1.0  0.78032  0.56849  0.42280  1.0000
  C   C1214     1.0  0.70883  0.55677  0.48562  1.0000
  H   H970      1.0  0.88001  0.56977  0.57147  1.0000
  C   C1215     1.0  0.71218  0.83407  0.37876  1.0000
  H   H971      1.0  0.63659  0.58822  0.39442  1.0000
  C   C1216     1.0  0.94246  0.73243  0.57539  1.0000
  C   C1217     1.0  0.72324  0.58972  0.41831  1.0000
  C   C1218     1.0  0.72554  0.61518  0.43500  1.0000
  C   C1219     1.0  0.73333  0.64645  0.42459  1.0000
  C   C1220     1.0  0.73940  0.65277  0.39755  1.0000
  C   C1221     1.0  0.73730  0.62764  0.38077  1.0000
  C   C1222     1.0  0.72931  0.59625  0.39108  1.0000
  H   H972      1.0  0.94878  0.77568  0.55339  1.0000
  Fe  Fe86      1.0  0.98795  0.67866  0.46554  1.0000
  C   C1223     1.0  0.69559  0.94671  0.32125  1.0000
  H   H973      1.0  0.83232  0.58306  0.41617  1.0000
  C   C1224     1.0  0.81259  0.70848  0.58935  1.0000
  H   H974      1.0  0.73590  0.57322  0.48478  1.0000
  C   C1225     1.0  0.55895  0.60996  0.34983  1.0000
  H   H975      1.0  0.83174  0.65859  0.55240  1.0000
  H   H976      1.0  0.68167  0.80681  0.31695  1.0000
  C   C1226     1.0  0.52713  0.51802  0.53373  1.0000
  H   H977      1.0  0.50493  0.55017  0.34834  1.0000
  H   H978      1.0  0.74561  0.67715  0.38963  1.0000
  H   H979      1.0  0.74210  0.63266  0.35981  1.0000
  H   H980      1.0  0.72822  0.57720  0.37786  1.0000
  C   C1227     1.0  0.91133  0.71505  0.52344  1.0000
  H   H981      1.0  0.68788  0.61586  0.62578  1.0000
  H   H982      1.0  0.90659  0.65428  0.52093  1.0000
  H   H983      1.0  0.50882  0.96067  0.57289  1.0000
  H   H984      1.0  0.56756  0.68339  0.37291  1.0000
  C   C1228     1.0  0.62939  0.57307  0.43502  1.0000
  C   C1229     1.0  0.96232  0.55931  0.59636  1.0000
  H   H985      1.0  0.93988  0.55759  0.58785  1.0000
  H   H986      1.0  0.51157  0.59266  0.52373  1.0000
  C   C1230     1.0  0.87148  0.52137  0.52408  1.0000
  H   H987      1.0  0.61483  0.55662  0.47516  1.0000
  C   C1231     1.0  0.53436  0.62530  0.58212  1.0000
  C   C1232     1.0  0.56727  0.63107  0.58088  1.0000
  C   C1233     1.0  0.57653  0.61133  0.59577  1.0000
  C   C1234     1.0  0.55286  0.58576  0.61223  1.0000
  C   C1235     1.0  0.51995  0.58048  0.61371  1.0000
  H   H988      1.0  0.63960  0.79885  0.63061  1.0000
  C   C1236     1.0  0.60308  0.56386  0.61909  1.0000
  H   H989      1.0  0.69976  0.97698  0.43630  1.0000
  C   C1237     1.0  0.97244  0.53590  0.58996  1.0000
  C   C1238     1.0  0.83589  0.67967  0.56464  1.0000
  H   H990      1.0  0.65597  0.58748  0.43959  1.0000
  H   H991      1.0  0.55338  0.59584  0.33164  1.0000
  C   C1239     1.0  0.98880  0.78965  0.58142  1.0000
  H   H992      1.0  0.70604  0.75854  0.62615  1.0000
  H   H993      1.0  0.97378  0.60376  0.61882  1.0000
  H   H994      1.0  0.77987  0.50459  0.47326  1.0000
  C   C1240     1.0  0.60344  0.54003  0.60192  1.0000
  H   H995      1.0  0.84869  0.75511  0.60757  1.0000
  H   H996      1.0  0.78154  0.58713  0.40910  1.0000
  C   C1241     1.0  0.63408  0.54293  0.59419  1.0000
  C   C1242     1.0  0.89546  0.66035  0.56164  1.0000
  C   C1243     1.0  0.57681  0.64916  0.39558  1.0000
  H   H997      1.0  0.78272  0.66160  0.56891  1.0000
  C   C1244     1.0  0.99222  0.68169  0.32525  1.0000
  H   H998      1.0  0.52709  0.64013  0.57008  1.0000
  H   H999      1.0  0.58554  0.65056  0.56805  1.0000
  H   H1000     1.0  0.60205  0.61595  0.59407  1.0000
  C   C1245     1.0  0.69390  0.82412  0.33316  1.0000
  C   C1246     1.0  0.57672  0.61870  0.39558  1.0000
  H   H1001     1.0  0.51775  0.52403  0.58743  1.0000
  C   C1247     1.0  0.57182  0.53729  0.44941  1.0000
  C   C1248     1.0  0.55806  0.63985  0.35016  1.0000
  H   H1002     1.0  0.89693  0.59721  0.52734  1.0000
  C   C1249     1.0  0.61826  0.57311  0.40933  1.0000
  C   C1250     1.0  0.92237  0.73103  0.46941  1.0000
  H   H1003     1.0  0.79083  0.70971  0.59631  1.0000
  C   C1251     1.0  0.51264  0.50595  0.60300  1.0000
  H   H1004     1.0  0.72172  0.61128  0.45611  1.0000
  C   C1252     1.0  0.95647  0.72154  0.59507  1.0000
  H   H1005     1.0  0.58503  0.61178  0.41326  1.0000
  H   H1006     1.0  0.53384  0.67471  0.45740  1.0000
  C   C1253     1.0  0.53086  0.51597  0.62681  1.0000
  C   C1254     1.0  0.87318  0.73259  0.58627  1.0000
  H   H1007     1.0  0.58024  0.51935  0.59429  1.0000
  H   H1008     1.0  0.50125  0.56070  0.62613  1.0000
  H   H1009     1.0  0.85365  0.52632  0.51381  1.0000
  C   C1255     1.0  0.83500  0.95085  0.34860  1.0000
  C   C1256     1.0  0.64998  0.60207  0.32140  1.0000
  H   H1010     1.0  0.73509  0.66603  0.43762  1.0000
  C   C1257     1.0  0.98748  0.54980  0.44876  1.0000
  C   C1258     1.0  0.71745  0.93386  0.31838  1.0000
  C   C1259     1.0  0.89334  0.61019  0.54380  1.0000
  C   C1260     1.0  0.86874  0.70541  0.57059  1.0000
  C   C1261     1.0  0.66436  0.89331  0.63721  1.0000
  H   H1011     1.0  0.65760  0.54213  0.39778  1.0000
  C   C1262     1.0  0.55808  0.64565  0.46436  1.0000
  C   C1263     1.0  0.65555  0.51958  0.46436  1.0000
  H   H1012     1.0  0.97173  0.73742  0.47598  1.0000
  H   H1013     1.0  0.51372  0.97369  0.63053  1.0000
  H   H1014     1.0  0.63416  0.61058  0.64013  1.0000
  C   C1264     1.0  0.88480  0.64424  0.58625  1.0000
  C   C1265     1.0  0.62085  0.87678  0.31739  1.0000
  C   C1266     1.0  0.55543  0.61416  0.46208  1.0000
  C   C1267     1.0  0.88679  0.49995  0.56218  1.0000
  H   H1015     1.0  0.94518  0.69533  0.60038  1.0000
  C   C1268     1.0  0.65656  0.79233  0.64037  1.0000
  H   H1016     1.0  0.52518  0.56324  0.44978  1.0000
  C   C1269     1.0  0.87925  0.61167  0.58975  1.0000
  H   H1017     1.0  0.94920  0.53068  0.51558  1.0000
  C   C1270     1.0  0.56222  0.97909  0.57443  1.0000
  H   H1018     1.0  0.87188  0.59976  0.60900  1.0000
  C   C1271     1.0  0.84517  0.73406  0.59558  1.0000
  H   H1019     1.0  0.86148  0.70792  0.51608  1.0000
  C   C1272     1.0  0.58371  0.55522  0.40348  1.0000
  H   H1020     1.0  0.70648  0.56511  0.52730  1.0000
  C   C1273     1.0  0.89160  0.72315  0.48099  1.0000
  H   H1021     1.0  0.58084  0.66658  0.47255  1.0000
  H   H1022     1.0  0.58513  0.66506  0.41296  1.0000
  H   H1023     1.0  0.57438  0.51286  0.33470  1.0000
  C   C1274     1.0  0.94782  0.73139  0.48484  1.0000
  H   H1024     1.0  0.65558  0.99224  0.46568  1.0000
  C   C1275     1.0  0.88377  0.59475  0.56859  1.0000
  H   H1025     1.0  0.87178  0.72255  0.46893  1.0000
  C   C1276     1.0  0.99050  0.59008  0.32943  1.0000
  H   H1026     1.0  0.55056  0.64777  0.33255  1.0000
  C   C1277     1.0  0.64244  0.68364  0.62523  1.0000
  H   H1027     1.0  0.88150  0.65720  0.60288  1.0000
  S   S172      1.0  0.97196  0.69618  0.42971  1.0000
  C   C1278     1.0  0.80800  0.68129  0.57394  1.0000
  P   P42       1.0  0.90446  0.70316  0.55790  1.0000
  C   C1279     1.0  0.88588  0.71485  0.50784  1.0000
  C   C1280     1.0  0.50205  0.52614  0.35336  1.0000
  C   C1281     1.0  0.56052  0.53714  0.42369  1.0000
  H   H1028     1.0  0.68823  0.57229  0.59697  1.0000
  C   C1282     1.0  0.95891  0.76672  0.56868  1.0000
  C   C1283     1.0  0.49921  0.59114  0.44320  1.0000
  H   H1029     1.0  0.53365  0.52398  0.41994  1.0000
  C   C1284     1.0  0.79681  0.97855  0.32988  1.0000
  C   C1285     1.0  0.52358  0.88183  0.64386  1.0000
  H   H1030     1.0  0.96951  0.60794  0.35904  1.0000
  H   H1031     1.0  0.90843  0.54212  0.49304  1.0000
  C   C1286     1.0  0.91786  0.50855  0.55038  1.0000
  C   C1287     1.0  0.90243  0.53031  0.51235  1.0000
  H   H1032     1.0  0.98954  0.59407  0.49718  1.0000
  C   C1288     1.0  0.98307  0.51744  0.45178  1.0000
  H   H1033     1.0  0.63421  0.52465  0.58077  1.0000
  H   H1034     1.0  0.60090  0.68557  0.64359  1.0000
  C   C1289     1.0  0.70724  0.96683  0.41996  1.0000
  H   H1035     1.0  0.97810  0.57727  0.39581  1.0000
  C   C1290     1.0  0.50235  0.62309  0.44521  1.0000
  H   H1036     1.0  0.78243  0.98987  0.32284  1.0000
  H   H1037     1.0  0.64438  0.52805  0.52993  1.0000
  H   H1038     1.0  0.50113  0.60396  0.38916  1.0000
  H   H1039     1.0  0.66221  0.98791  0.51419  1.0000
  C   C1291     1.0  0.98560  0.57524  0.37587  1.0000
  H   H1040     1.0  0.52645  0.89177  0.62398  1.0000
  C   C1292     1.0  0.75061  0.52392  0.45482  1.0000
  C   C1293     1.0  0.69408  0.76959  0.63769  1.0000
  P   P43       1.0  0.94771  0.50102  0.56805  1.0000
  C   C1294     1.0  0.97607  0.49776  0.54484  1.0000
  C   C1295     1.0  0.67259  0.77878  0.62540  1.0000
  C   C1296     1.0  0.74716  0.97411  0.38550  1.0000
  H   H1041     1.0  0.61197  0.49843  0.49000  1.0000
  S   S173      1.0  0.67192  0.99526  0.36901  1.0000
  H   H1042     1.0  0.77075  0.99029  0.37562  1.0000
  C   C1297     1.0  0.66072  0.52064  0.39419  1.0000
  H   H1043     1.0  0.50591  0.94402  0.40405  1.0000
  C   C1298     1.0  0.85091  0.98212  0.33598  1.0000
  H   H1044     1.0  0.55465  0.98401  0.44963  1.0000
  C   C1299     1.0  0.83181  0.99598  0.32666  1.0000
  H   H1045     1.0  0.87805  0.99569  0.33357  1.0000
  H   H1046     1.0  0.64070  0.50698  0.44707  1.0000
  H   H1047     1.0  0.61985  0.49861  0.36616  1.0000
  S   S174      1.0  0.60391  0.70858  0.31408  1.0000
  Fe  Fe87      1.0  0.95544  0.59879  0.94149  1.0000
  S   S175      1.0  0.94965  0.54654  0.94109  1.0000
  Fe  Fe88      1.0  0.92007  0.64090  0.94366  1.0000
  H   H1048     1.0  0.55269  0.60687  0.66304  1.0000
  S   S176      1.0  0.86651  0.63368  0.94574  1.0000
  C   C1300     1.0  0.66756  0.69072  0.67698  1.0000
  H   H1049     1.0  0.53667  0.76465  0.74036  1.0000
  H   H1050     1.0  0.58424  0.92458  0.77263  1.0000
  S   S177      1.0  0.93120  0.61464  0.91037  1.0000
  H   H1051     1.0  0.55728  0.92997  0.66089  1.0000
  C   C1301     1.0  0.53485  0.72984  0.71093  1.0000
  Fe  Fe89      1.0  0.62869  0.96008  0.85937  1.0000
  C   C1302     1.0  0.68578  0.68872  0.65515  1.0000
  S   S178      1.0  0.63470  0.91336  0.86101  1.0000
  S   S179      1.0  0.59852  0.96962  0.89033  1.0000
  S   S180      1.0  0.61020  0.97818  0.82521  1.0000
  Fe  Fe90      1.0  0.60063  0.74004  0.78714  1.0000
  S   S181      1.0  0.64884  0.74286  0.77316  1.0000
  S   S182      1.0  0.59078  0.78460  0.78669  1.0000
  Fe  Fe91      1.0  0.56332  0.66165  0.78767  1.0000
  S   S183      1.0  0.60892  0.66037  0.77385  1.0000
  S   S184      1.0  0.51296  0.61401  0.79433  1.0000
  Fe  Fe92      1.0  0.63606  0.70188  0.80376  1.0000
  S   S185      1.0  0.66995  0.69388  0.83233  1.0000
  Fe  Fe93      1.0  0.61675  0.70063  0.74468  1.0000
  S   S186      1.0  0.61463  0.69629  0.69921  1.0000
  S   S187      1.0  0.58976  0.70131  0.81891  1.0000
  S   S188      1.0  0.56934  0.69982  0.75745  1.0000
  C   C1303     1.0  0.58688  0.55913  0.68203  1.0000
  S   S189      1.0  0.68135  0.72419  0.95641  1.0000
  C   C1304     1.0  0.50910  0.57403  0.78910  1.0000
  H   H1052     1.0  0.62372  0.96046  0.68948  1.0000
  C   C1305     1.0  0.50759  0.94117  0.91409  1.0000
  C   C1306     1.0  0.53397  0.53922  0.77967  1.0000
  C   C1307     1.0  0.53702  0.57104  0.78231  1.0000
  C   C1308     1.0  0.63489  0.89584  0.73135  1.0000
  H   H1053     1.0  0.55601  0.53735  0.77502  1.0000
  H   H1054     1.0  0.56128  0.59321  0.77996  1.0000
  C   C1309     1.0  0.63706  0.69011  0.67298  1.0000
  H   H1055     1.0  0.50330  0.94903  0.75519  1.0000
  H   H1056     1.0  0.67766  0.69383  0.69677  1.0000
  C   C1310     1.0  0.49596  0.61321  0.70688  1.0000
  C   C1311     1.0  0.67072  0.70045  0.86709  1.0000
  C   C1312     1.0  0.65680  0.71857  0.87836  1.0000
  C   C1313     1.0  0.65969  0.72502  0.90580  1.0000
  C   C1314     1.0  0.67565  0.71267  0.92242  1.0000
  C   C1315     1.0  0.68846  0.69348  0.91132  1.0000
  C   C1316     1.0  0.68657  0.68798  0.88374  1.0000
  H   H1057     1.0  0.64468  0.72849  0.86585  1.0000
  H   H1058     1.0  0.64980  0.74000  0.91416  1.0000
  H   H1059     1.0  0.70051  0.68358  0.92388  1.0000
  H   H1060     1.0  0.69722  0.67376  0.87530  1.0000
  C   C1317     1.0  0.62326  0.87841  0.83946  1.0000
  C   C1318     1.0  0.63161  0.85385  0.84672  1.0000
  C   C1319     1.0  0.62243  0.82531  0.83072  1.0000
  C   C1320     1.0  0.60443  0.82074  0.80726  1.0000
  C   C1321     1.0  0.59639  0.84547  0.79983  1.0000
  C   C1322     1.0  0.60592  0.87420  0.81567  1.0000
  H   H1061     1.0  0.64504  0.85676  0.86503  1.0000
  H   H1062     1.0  0.62878  0.80658  0.83680  1.0000
  H   H1063     1.0  0.58238  0.84214  0.78181  1.0000
  H   H1064     1.0  0.59964  0.89293  0.80966  1.0000
  H   H1065     1.0  0.60674  0.56025  0.72093  1.0000
  C   C1323     1.0  0.54411  0.98620  0.77825  1.0000
  C   C1324     1.0  0.61098  0.85121  0.67049  1.0000
  H   H1066     1.0  0.96095  0.66074  0.83477  1.0000
  C   C1325     1.0  0.53660  0.89088  0.69082  1.0000
  H   H1067     1.0  0.63825  0.87798  0.74315  1.0000
  C   C1326     1.0  0.58609  0.59308  0.71826  1.0000
  C   C1327     1.0  0.65697  0.94241  0.70050  1.0000
  C   C1328     1.0  0.58439  0.75007  0.68320  1.0000
  C   C1329     1.0  0.57075  0.60600  0.70191  1.0000
  C   C1330     1.0  0.55232  0.72445  0.69066  1.0000
  C   C1331     1.0  0.98280  0.67191  0.79544  1.0000
  H   H1068     1.0  0.53765  0.49839  0.66485  1.0000
  C   C1332     1.0  0.55395  0.65074  0.96187  1.0000
  H   H1069     1.0  0.90821  0.75967  0.84825  1.0000
  S   S190      1.0  0.53156  0.98390  0.85070  1.0000
  P   P44       1.0  0.54249  0.61864  0.93702  1.0000
  C   C1333     1.0  0.60411  0.89530  0.73188  1.0000
  C   C1334     1.0  0.57839  0.61317  0.93150  1.0000
  C   C1335     1.0  0.59325  0.60600  0.95289  1.0000
  C   C1336     1.0  0.62134  0.60228  0.94900  1.0000
  C   C1337     1.0  0.63585  0.60720  0.92395  1.0000
  C   C1338     1.0  0.62198  0.61553  0.90273  1.0000
  C   C1339     1.0  0.59335  0.61846  0.90639  1.0000
  C   C1340     1.0  0.90685  0.72233  0.87474  1.0000
  Fe  Fe94      1.0  0.58408  0.99184  0.85654  1.0000
  C   C1341     1.0  0.53267  0.63228  0.90648  1.0000
  H   H1070     1.0  0.95897  0.66381  0.78567  1.0000
  C   C1342     1.0  0.50481  0.88459  0.79769  1.0000
  C   C1343     1.0  0.57092  0.57154  0.66551  1.0000
  C   C1344     1.0  0.53985  0.67683  0.87663  1.0000
  C   C1345     1.0  0.54722  0.66663  0.90057  1.0000
  H   H1071     1.0  0.53217  0.55563  0.96272  1.0000
  H   H1072     1.0  0.55469  0.97028  0.78229  1.0000
  C   C1346     1.0  0.98251  0.51147  0.95098  1.0000
  C   C1347     1.0  0.54354  0.96548  0.69894  1.0000
  H   H1073     1.0  0.65822  0.60534  0.92104  1.0000
  H   H1074     1.0  0.63404  0.62079  0.88355  1.0000
  H   H1075     1.0  0.58377  0.62584  0.88970  1.0000
  H   H1076     1.0  0.65891  0.92452  0.92145  1.0000
  C   C1348     1.0  0.49646  0.97028  0.94907  1.0000
  H   H1077     1.0  0.79751  0.61807  0.94582  1.0000
  C   C1349     1.0  0.51823  0.65286  0.85837  1.0000
  H   H1078     1.0  0.73720  0.90459  0.73660  1.0000
  H   H1079     1.0  0.55136  0.70336  0.87199  1.0000
  H   H1080     1.0  0.56455  0.68559  0.91420  1.0000
  C   C1350     1.0  0.77897  0.76145  0.85187  1.0000
  C   C1351     1.0  0.75771  0.73911  0.83261  1.0000
  C   C1352     1.0  0.75026  0.70569  0.83282  1.0000
  C   C1353     1.0  0.76340  0.69431  0.85262  1.0000
  C   C1354     1.0  0.78399  0.71635  0.87251  1.0000
  C   C1355     1.0  0.79240  0.75025  0.87159  1.0000
  P   P45       1.0  0.80079  0.70178  0.89836  1.0000
  C   C1356     1.0  0.77312  0.65710  0.90298  1.0000
  C   C1357     1.0  0.84252  0.71026  0.88924  1.0000
  C   C1358     1.0  0.85609  0.69193  0.90094  1.0000
  C   C1359     1.0  0.88809  0.69795  0.89372  1.0000
  C   C1360     1.0  0.86163  0.73488  0.87025  1.0000
  C   C1361     1.0  0.74695  0.64506  0.92169  1.0000
  C   C1362     1.0  0.72612  0.61049  0.92561  1.0000
  C   C1363     1.0  0.73093  0.58767  0.91064  1.0000
  C   C1364     1.0  0.75650  0.59941  0.89165  1.0000
  C   C1365     1.0  0.77747  0.63397  0.88775  1.0000
  C   C1366     1.0  0.80214  0.72213  0.92931  1.0000
  C   C1367     1.0  0.77837  0.73220  0.93461  1.0000
  C   C1368     1.0  0.93998  0.55498  0.85251  1.0000
  P   P46       1.0  0.64133  0.81427  0.68713  1.0000
  H   H1081     1.0  0.59152  0.52557  0.86263  1.0000
  C   C1369     1.0  0.82531  0.72591  0.94907  1.0000
  H   H1082     1.0  0.78456  0.78731  0.85173  1.0000
  H   H1083     1.0  0.74636  0.74742  0.81778  1.0000
  H   H1084     1.0  0.73326  0.68836  0.81808  1.0000
  H   H1085     1.0  0.75683  0.66820  0.85256  1.0000
  H   H1086     1.0  0.80888  0.76790  0.88636  1.0000
  H   H1087     1.0  0.84191  0.67282  0.91560  1.0000
  H   H1088     1.0  0.89826  0.68353  0.90282  1.0000
  H   H1089     1.0  0.85194  0.74944  0.86084  1.0000
  H   H1090     1.0  0.74286  0.66220  0.93368  1.0000
  H   H1091     1.0  0.70669  0.60147  0.94065  1.0000
  H   H1092     1.0  0.71503  0.56090  0.91392  1.0000
  H   H1093     1.0  0.76039  0.58175  0.88013  1.0000
  H   H1094     1.0  0.79721  0.64261  0.87298  1.0000
  H   H1095     1.0  0.75955  0.72872  0.92009  1.0000
  C   C1370     1.0  0.65711  0.81652  0.74086  1.0000
  S   S191      1.0  0.96940  0.68956  0.93771  1.0000
  H   H1096     1.0  0.66806  0.81881  0.78249  1.0000
  H   H1097     1.0  0.84309  0.71727  0.94602  1.0000
  H   H1098     1.0  0.60709  0.67723  0.95171  1.0000
  C   C1371     1.0  0.60981  0.87666  0.65619  1.0000
  C   C1372     1.0  0.58148  0.78659  0.71635  1.0000
  H   H1099     1.0  0.96446  0.60683  0.86488  1.0000
  H   H1100     1.0  0.59217  0.60161  0.73852  1.0000
  C   C1373     1.0  0.55021  0.53570  0.86253  1.0000
  C   C1374     1.0  0.54010  0.55865  0.85469  1.0000
  C   C1375     1.0  0.56290  0.58873  0.84217  1.0000
  C   C1376     1.0  0.59560  0.59571  0.83658  1.0000
  C   C1377     1.0  0.60573  0.57278  0.84387  1.0000
  C   C1378     1.0  0.58329  0.54308  0.85708  1.0000
  H   H1101     1.0  0.71889  0.87539  0.77992  1.0000
  C   C1379     1.0  0.56643  0.96011  0.71362  1.0000
  C   C1380     1.0  0.54947  0.76089  0.72380  1.0000
  C   C1381     1.0  0.69563  0.86504  0.71502  1.0000
  H   H1102     1.0  0.50048  0.58176  0.89170  1.0000
  C   C1382     1.0  0.50550  0.57993  0.94718  1.0000
  H   H1103     1.0  0.55500  0.60641  0.83621  1.0000
  H   H1104     1.0  0.61306  0.61896  0.82662  1.0000
  H   H1105     1.0  0.63108  0.57821  0.83941  1.0000
  H   H1106     1.0  0.50346  0.98321  0.96792  1.0000
  C   C1383     1.0  0.71020  0.99596  0.95600  1.0000
  H   H1107     1.0  0.58829  0.88020  0.65816  1.0000
  C   C1384     1.0  0.59375  0.98752  0.72599  1.0000
  H   H1108     1.0  0.55404  0.90640  0.81527  1.0000
  C   C1385     1.0  0.58763  0.67657  0.96429  1.0000
  C   C1386     1.0  0.66138  0.91959  0.71580  1.0000
  H   H1109     1.0  0.99449  0.61247  0.72473  1.0000
  C   C1387     1.0  0.54066  0.90348  0.66492  1.0000
  C   C1388     1.0  0.50810  0.55353  0.95876  1.0000
  H   H1110     1.0  0.58370  0.87645  0.74372  1.0000
  C   C1389     1.0  0.50055  0.99457  0.75848  1.0000
  H   H1111     1.0  0.96039  0.52777  0.69205  1.0000
  C   C1390     1.0  0.89364  0.74082  0.86303  1.0000
  C   C1391     1.0  0.69923  0.77352  0.66500  1.0000
  C   C1392     1.0  0.53868  0.90386  0.74895  1.0000
  C   C1393     1.0  0.70392  0.96694  0.90617  1.0000
  C   C1394     1.0  0.96629  0.58427  0.86346  1.0000
  H   H1112     1.0  0.67748  0.96092  0.68844  1.0000
  H   H1113     1.0  0.70111  0.95577  0.88676  1.0000
  C   C1395     1.0  0.62641  0.94223  0.70128  1.0000
  C   C1396     1.0  0.71462  0.88013  0.73780  1.0000
  C   C1397     1.0  0.66204  0.79683  0.66780  1.0000
  C   C1398     1.0  0.99503  0.58452  0.87278  1.0000
  C   C1399     1.0  0.51584  0.95726  0.93865  1.0000
  H   H1114     1.0  0.93159  0.72680  0.86908  1.0000
  H   H1115     1.0  0.52141  0.94465  0.69019  1.0000
  H   H1116     1.0  0.58131  0.53664  0.91128  1.0000
  C   C1400     1.0  0.59433  0.56980  0.70830  1.0000
  C   C1401     1.0  0.66609  0.83353  0.71653  1.0000
  C   C1402     1.0  0.94305  0.52636  0.84984  1.0000
  C   C1403     1.0  0.56335  0.59550  0.67556  1.0000
  C   C1404     1.0  0.51133  0.60837  0.88787  1.0000
  C   C1405     1.0  0.55693  0.91096  0.77269  1.0000
  C   C1406     1.0  0.98584  0.53205  0.69141  1.0000
  C   C1407     1.0  0.60001  0.91913  0.71743  1.0000
  P   P47       1.0  0.56032  0.91838  0.71773  1.0000
  H   H1117     1.0  0.59275  0.81013  0.72713  1.0000
  H   H1118     1.0  0.53588  0.51183  0.72572  1.0000
  C   C1408     1.0  0.53996  0.90104  0.79694  1.0000
  C   C1409     1.0  0.68008  0.94926  0.92579  1.0000
  C   C1410     1.0  0.63893  0.84653  0.66824  1.0000
  C   C1411     1.0  0.84391  0.64606  0.96757  1.0000
  H   H1119     1.0  0.56551  0.62492  0.70960  1.0000
  C   C1412     1.0  0.50015  0.83444  0.67392  1.0000
  H   H1120     1.0  0.51051  0.70961  0.71730  1.0000
  H   H1121     1.0  0.92238  0.50382  0.84134  1.0000
  C   C1413     1.0  0.56139  0.51821  0.92364  1.0000
  H   H1122     1.0  0.51452  0.55323  0.85767  1.0000
  C   C1414     1.0  0.80954  0.63439  0.96258  1.0000
  H   H1123     1.0  0.91728  0.55460  0.84599  1.0000
  C   C1415     1.0  0.51708  0.85606  0.69503  1.0000
  H   H1124     1.0  0.70405  0.87809  0.69635  1.0000
  H   H1125     1.0  0.95759  0.58619  0.80376  1.0000
  H   H1126     1.0  0.63191  0.59582  0.96560  1.0000
  H   H1127     1.0  0.68653  0.78856  0.70134  1.0000
  H   H1128     1.0  0.68539  0.92049  0.71564  1.0000
  H   H1129     1.0  0.59421  0.54167  0.67444  1.0000
  H   H1130     1.0  0.95077  0.60062  0.75792  1.0000
  C   C1416     1.0  0.56818  0.51597  0.95035  1.0000
  C   C1417     1.0  0.68306  0.78680  0.68008  1.0000
  C   C1418     1.0  0.98599  0.54235  0.94316  1.0000
  H   H1131     1.0  0.50325  0.63137  0.97692  1.0000
  H   H1132     1.0  0.66464  0.95008  0.96589  1.0000
  C   C1419     1.0  0.67589  0.83180  0.76363  1.0000
  H   H1133     1.0  0.59295  0.53259  0.95846  1.0000
  C   C1420     1.0  0.82499  0.73996  0.97352  1.0000
  C   C1421     1.0  0.59930  0.78139  0.69602  1.0000
  C   C1422     1.0  0.52918  0.49672  0.91325  1.0000
  H   H1134     1.0  0.54167  0.70002  0.68132  1.0000
  Fe  Fe95      1.0  0.98185  0.66170  0.90674  1.0000
  P   P48       1.0  0.52073  0.49630  0.87822  1.0000
  C   C1423     1.0  0.70449  0.86367  0.76217  1.0000
  C   C1424     1.0  0.99130  0.50466  0.69278  1.0000
  H   H1135     1.0  0.97045  0.51771  0.80320  1.0000
  C   C1425     1.0  0.97281  0.59907  0.76337  1.0000
  H   H1136     1.0  0.63553  0.79146  0.74244  1.0000
  H   H1137     1.0  0.59778  0.74476  0.66807  1.0000
  H   H1138     1.0  0.51296  0.66071  0.83959  1.0000
  C   C1426     1.0  0.50337  0.88759  0.74989  1.0000
  C   C1427     1.0  0.68332  0.96368  0.95074  1.0000
  C   C1428     1.0  0.98384  0.67013  0.82332  1.0000
  H   H1139     1.0  0.61092  0.98378  0.73829  1.0000
  H   H1140     1.0  0.53752  0.95999  0.94941  1.0000
  Fe  Fe96      1.0  0.98967  0.66782  0.96771  1.0000
  H   H1141     1.0  0.58329  0.60356  0.97266  1.0000
  C   C1429     1.0  0.97677  0.59104  0.78922  1.0000
  H   H1142     1.0  0.52298  0.93173  0.90565  1.0000
  H   H1143     1.0  0.49688  0.64185  0.74098  1.0000
  S   S192      1.0  0.94018  0.62082  0.97512  1.0000
  H   H1144     1.0  0.76410  0.63405  0.97507  1.0000
  C   C1430     1.0  0.97257  0.52682  0.85812  1.0000
  H   H1145     1.0  0.51515  0.84552  0.71457  1.0000
  C   C1431     1.0  0.77805  0.74611  0.95910  1.0000
  C   C1432     1.0  0.50279  0.50988  0.78331  1.0000
  H   H1146     1.0  0.71496  0.76526  0.67460  1.0000
  H   H1147     1.0  0.59009  0.83552  0.68331  1.0000
  H   H1148     1.0  0.70987  0.69035  0.65843  1.0000
  H   H1149     1.0  0.68742  0.86474  0.64925  1.0000
  H   H1150     1.0  0.75919  0.75323  0.96313  1.0000
  H   H1151     1.0  0.51739  0.63432  0.69753  1.0000
  C   C1433     1.0  0.52935  0.65105  0.97821  1.0000
  C   C1434     1.0  0.51482  0.97421  0.76302  1.0000
  C   C1435     1.0  0.50402  0.61866  0.86399  1.0000
  H   H1152     1.0  0.50423  0.53971  0.71302  1.0000
  C   C1436     1.0  0.66558  0.86779  0.65139  1.0000
  C   C1437     1.0  0.51122  0.49732  0.71685  1.0000
  C   C1438     1.0  0.79048  0.64349  0.97906  1.0000
  C   C1439     1.0  0.50317  0.84735  0.64838  1.0000
  C   C1440     1.0  0.80138  0.75001  0.97856  1.0000
