data_image0
_chemical_formula_structural       SFeS2FeSHS2HSCFeSCSH2C4HCFeC2H2C3H2C3HC2H2CH2SCHFeC3H2C2H3CHC2H2CSH5CH2SC2HC6HCHPC2H2FeH3SFeCSCPHSCH2SHC2H3C2H2CH4C6H5SFeCSH2CH5C2HCSHC7HC4SCH4CHC2HCH2C2HC6H4C4S2CFeCSFeS2C3HCSC6H4FeC8HC2HCHPH9CH5CHCHCH2C2HFeCFeCHFeHSHC2SCHC7H2CHSHS2CFeC3HC2H4C2HC4H2C10HC2HCH3C4PC5HC9HC2H3C3H7S2H3C2H3CPCHC2HC2PC4HC2H2CH2CHC3H2C5H2CH3FeH2CH3CFeS2FeS2FeCSC6HC2H2CHC5H3C2SHSCHC6PC14HC4HCH10C2HCH9CHCPC7H3CHCSH2C2H2C4H5C2H2C2H7CH4C2H2C3FeCH2CSC2SCFeS2CSH3C6H4C6H2C3SH5CH2CH2C2HC7H7CHC2HC3HPC3H3CH3C7H4CH2C2H2C3HC2HC4HC2PCSHC3H2FeCHCHC3H2CHC2S2HC7H3CHC2HC2HC2H6CHCHC4H2CHFeC4HC3FeCH3CH2CH3CH2C4HC3HC2H3C3H2CH3C2HC3HC3PC3H2CSHC2P2CH3CFeCH2FeSHPHCFeS2FeS2FeSHSHCH2C2H4C2H2CH5C4HC2HC6HCH3C3HC5PC3HC4SC5H2CHCHC2HCHCHCHC3PC4HC11HCSH3CH2CH2C2HCH3C2H2CHPH2CH2CHCFeHCFeS2C3HS2HSCH3C2HC6H4C3HCSHCH5C2HCH3C7PC8FeC9H7C2H3CH4CH2CH3C2HCH3C4HCPC2H3CSHCHSH3C2SHSCFeS2HSFeS2CSFeCSC4H5C6H9FeH3C9HCH3CFeHSH5C2HC2H6C3H2CH2CHCH2C5H4C6PC3HCHCH2C3HC3SCHSFeS2CH2S2HSC6H4CHCH5CHSC2PC4HC2SCH2FeSFeH4CHCHC11H2CHPCH4FeHCH2C2H2C3HCHCHFeCFe2SFeS2FeS3HS2C6H4C2H4C4HC3H4C2H2C4HFeC5H2CH2C2PC3H4C2HCHC3HCH2C3HC3HC2H2C2HCHCFeC2H2CHPH2C2HCHC2HCHC3HCHC
_chemical_formula_sum              "S96 Fe48 H576 C720 P24"
_cell_length_a       29.2657
_cell_length_b       29.2971
_cell_length_c       34.0698
_cell_angle_alpha    90.0275
_cell_angle_beta     89.945
_cell_angle_gamma    120.142

_space_group_name_H-M_alt    "P 1"
_space_group_IT_number       1

loop_
  _space_group_symop_operation_xyz
  'x, y, z'

loop_
  _atom_site_type_symbol
  _atom_site_label
  _atom_site_symmetry_multiplicity
  _atom_site_fract_x
  _atom_site_fract_y
  _atom_site_fract_z
  _atom_site_occupancy
  S   S1        1.0  0.27671  0.43727  0.31522  1.0000
  Fe  Fe1       1.0  0.13929  0.39345  0.26562  1.0000
  S   S2        1.0  0.21240  0.41658  0.23075  1.0000
  S   S3        1.0  0.06106  0.37620  0.23831  1.0000
  Fe  Fe2       1.0  0.22918  0.36943  0.27434  1.0000
  S   S4        1.0  0.26266  0.32203  0.24758  1.0000
  H   H1        1.0  0.18764  0.12239  0.11641  1.0000
  S   S5        1.0  0.15182  0.33997  0.30624  1.0000
  S   S6        1.0  0.18016  0.46363  0.30577  1.0000
  H   H2        1.0  0.31795  0.02661  0.03657  1.0000
  S   S7        1.0  0.36982  0.10685  0.31349  1.0000
  C   C1        1.0  0.39168  0.34408  0.06128  1.0000
  Fe  Fe3       1.0  0.44064  0.14331  0.27345  1.0000
  S   S8        1.0  0.43616  0.11585  0.21066  1.0000
  C   C2        1.0  0.29610  0.30930  0.32009  1.0000
  S   S9        1.0  0.49073  0.12568  0.31358  1.0000
  H   H3        1.0  0.17719  0.26211  0.01692  1.0000
  H   H4        1.0  0.47447  0.38310  0.07525  1.0000
  C   C3        1.0  0.43964  0.15831  0.17274  1.0000
  C   C4        1.0  0.43494  0.14179  0.13351  1.0000
  C   C5        1.0  0.43973  0.17591  0.10272  1.0000
  C   C6        1.0  0.44867  0.22646  0.11122  1.0000
  H   H5        1.0  0.09211  0.41874  0.06544  1.0000
  C   C7        1.0  0.44822  0.20871  0.18108  1.0000
  Fe  Fe4       1.0  0.40524  0.18810  0.33977  1.0000
  C   C8        1.0  0.30827  0.16813  0.07432  1.0000
  C   C9        1.0  0.04769  0.35630  0.18844  1.0000
  H   H6        1.0  0.45929  0.28161  0.15708  1.0000
  H   H7        1.0  0.43655  0.16315  0.07253  1.0000
  C   C10       1.0  0.02218  0.32141  0.10979  1.0000
  C   C11       1.0  0.06638  0.32397  0.12822  1.0000
  C   C12       1.0  0.07893  0.34104  0.16743  1.0000
  H   H8        1.0  0.09044  0.31173  0.11231  1.0000
  H   H9        1.0  0.11224  0.34155  0.18156  1.0000
  C   C13       1.0  0.29310  0.29855  0.27991  1.0000
  C   C14       1.0  0.00437  0.35509  0.16960  1.0000
  C   C15       1.0  0.09779  0.47865  0.02571  1.0000
  H   H10       1.0  0.40911  0.46823  0.08154  1.0000
  C   C16       1.0  0.33704  0.24757  0.29079  1.0000
  C   C17       1.0  0.31437  0.26839  0.26522  1.0000
  H   H11       1.0  0.35227  0.22334  0.27938  1.0000
  H   H12       1.0  0.31235  0.26016  0.23410  1.0000
  C   C18       1.0  0.33841  0.25688  0.33114  1.0000
  H   H13       1.0  0.47194  0.03798  0.22683  1.0000
  H   H14       1.0  0.45017  0.02968  0.08112  1.0000
  S   S10       1.0  0.45512  0.27076  0.07396  1.0000
  C   C19       1.0  0.27654  0.22954  0.06365  1.0000
  H   H15       1.0  0.42829  0.10279  0.12690  1.0000
  Fe  Fe5       1.0  0.25442  0.48240  0.27386  1.0000
  C   C20       1.0  0.34719  0.42172  0.16878  1.0000
  C   C21       1.0  0.37254  0.42405  0.13354  1.0000
  C   C22       1.0  0.31497  0.21488  0.05803  1.0000
  H   H16       1.0  0.21557  0.41028  0.06448  1.0000
  H   H17       1.0  0.37063  0.42052  0.26179  1.0000
  C   C23       1.0  0.46070  0.41049  0.02027  1.0000
  C   C24       1.0  0.38931  0.46745  0.10855  1.0000
  H   H18       1.0  0.33444  0.38809  0.18813  1.0000
  H   H19       1.0  0.37939  0.39218  0.12589  1.0000
  H   H20       1.0  0.25775  0.09895  0.10838  1.0000
  C   C25       1.0  0.22333  0.14842  0.10029  1.0000
  H   H21       1.0  0.28004  0.33273  0.33161  1.0000
  C   C26       1.0  0.45263  0.24263  0.15040  1.0000
  C   C27       1.0  0.45083  0.44852  0.28044  1.0000
  H   H22       1.0  0.22395  0.32866  0.16652  1.0000
  H   H23       1.0  0.25326  0.36722  0.02388  1.0000
  C   C28       1.0  0.09826  0.43254  0.03531  1.0000
  S   S11       1.0  0.47144  0.22602  0.29602  1.0000
  H   H24       1.0  0.38064  0.31982  0.08746  1.0000
  H   H25       1.0  0.26257  0.28626  0.12681  1.0000
  H   H26       1.0  0.28541  0.99918  0.23371  1.0000
  H   H27       1.0  0.31763  0.46030  0.20600  1.0000
  H   H28       1.0  0.19856  0.20436  0.08704  1.0000
  C   C29       1.0  0.25861  0.32174  0.07189  1.0000
  H   H29       1.0  0.20033  0.39068  0.13574  1.0000
  H   H30       1.0  0.45151  0.22164  0.21115  1.0000
  S   S12       1.0  0.00742  0.29865  0.06073  1.0000
  C   C30       1.0  0.35337  0.33766  0.03364  1.0000
  C   C31       1.0  0.33740  0.46220  0.17872  1.0000
  H   H31       1.0  0.35013  0.23930  0.04093  1.0000
  C   C32       1.0  0.25149  0.31227  0.11249  1.0000
  C   C33       1.0  0.23004  0.33671  0.13526  1.0000
  C   C34       1.0  0.21703  0.37193  0.11796  1.0000
  C   C35       1.0  0.22570  0.38298  0.07785  1.0000
  C   C36       1.0  0.24676  0.35829  0.05493  1.0000
  C   C37       1.0  0.44508  0.38039  0.05460  1.0000
  H   H32       1.0  0.33856  0.15759  0.07025  1.0000
  C   C38       1.0  0.40867  0.45492  0.26839  1.0000
  H   H33       1.0  0.44494  0.40896  0.28247  1.0000
  P   P1        1.0  0.28462  0.28924  0.04168  1.0000
  C   C39       1.0  0.26268  0.13509  0.09571  1.0000
  C   C40       1.0  0.22990  0.19517  0.08393  1.0000
  H   H34       1.0  0.47891  0.46124  0.16296  1.0000
  H   H35       1.0  0.07587  0.47356  0.19189  1.0000
  Fe  Fe6       1.0  0.19837  0.41208  0.34413  1.0000
  H   H36       1.0  0.99788  0.48552  0.19603  1.0000
  H   H37       1.0  0.10483  0.36716  0.01348  1.0000
  H   H38       1.0  0.01184  0.43659  0.65848  1.0000
  S   S13       1.0  0.18219  0.41440  0.40922  1.0000
  Fe  Fe7       1.0  0.28926  0.40614  0.61643  1.0000
  C   C41       1.0  0.11716  0.46097  0.63827  1.0000
  S   S14       1.0  0.31288  0.40040  0.55360  1.0000
  C   C42       1.0  0.48770  0.19698  0.62001  1.0000
  P   P2        1.0  0.33061  0.23212  0.51618  1.0000
  H   H39       1.0  0.43280  0.23791  0.50681  1.0000
  S   S15       1.0  0.23688  0.33620  0.65451  1.0000
  C   C43       1.0  0.45306  0.41050  0.60384  1.0000
  H   H40       1.0  0.26009  0.12432  0.54436  1.0000
  H   H41       1.0  0.47478  0.29827  0.40225  1.0000
  S   S16       1.0  0.45197  0.17290  0.38493  1.0000
  H   H42       1.0  0.33619  0.31285  0.64447  1.0000
  C   C44       1.0  0.39221  0.03883  0.46034  1.0000
  C   C45       1.0  0.38246  0.02621  0.50046  1.0000
  H   H43       1.0  0.35284  0.17259  0.57578  1.0000
  H   H44       1.0  0.40901  0.07931  0.45074  1.0000
  H   H45       1.0  0.39170  0.05723  0.52158  1.0000
  C   C46       1.0  0.03539  0.28595  0.61078  1.0000
  C   C47       1.0  0.07982  0.31581  0.63459  1.0000
  H   H46       1.0  0.17327  0.27381  0.45654  1.0000
  H   H47       1.0  0.17404  0.25504  0.52741  1.0000
  C   C48       1.0  0.34821  0.20281  0.59041  1.0000
  H   H48       1.0  0.04062  0.27697  0.58087  1.0000
  H   H49       1.0  0.11912  0.32995  0.62304  1.0000
  H   H50       1.0  0.36362  0.19853  0.44547  1.0000
  H   H51       1.0  0.10813  0.46032  0.37828  1.0000
  C   C49       1.0  0.21832  0.40853  0.44868  1.0000
  C   C50       1.0  0.26136  0.40092  0.44264  1.0000
  C   C51       1.0  0.28964  0.39779  0.47505  1.0000
  C   C52       1.0  0.27510  0.40217  0.51364  1.0000
  C   C53       1.0  0.23186  0.40936  0.51962  1.0000
  C   C54       1.0  0.20371  0.41260  0.48728  1.0000
  H   H52       1.0  0.27283  0.39753  0.41308  1.0000
  H   H53       1.0  0.32282  0.39193  0.47016  1.0000
  H   H54       1.0  0.22025  0.41270  0.54914  1.0000
  H   H55       1.0  0.17051  0.41850  0.49220  1.0000
  H   H56       1.0  0.48619  0.43996  0.54679  1.0000
  S   S17       1.0  0.39106  0.01289  0.38202  1.0000
  Fe  Fe8       1.0  0.42200  0.09453  0.35539  1.0000
  C   C55       1.0  0.29095  0.06858  0.46897  1.0000
  S   S18       1.0  0.25531  0.45538  0.63835  1.0000
  H   H57       1.0  0.36170  0.18075  0.64779  1.0000
  H   H58       1.0  0.45332  0.42194  0.35574  1.0000
  C   C56       1.0  0.48776  0.31708  0.48835  1.0000
  H   H59       1.0  0.48262  0.02826  0.52081  1.0000
  H   H60       1.0  0.44436  0.00749  0.64251  1.0000
  H   H61       1.0  0.41937  0.33903  0.39279  1.0000
  H   H62       1.0  0.41251  0.39333  0.59386  1.0000
  H   H63       1.0  0.46825  0.25419  0.59792  1.0000
  C   C57       1.0  0.46372  0.40820  0.64359  1.0000
  C   C58       1.0  0.40190  0.33416  0.49054  1.0000
  H   H64       1.0  0.34192  0.11102  0.42047  1.0000
  C   C59       1.0  0.34950  0.24726  0.65074  1.0000
  S   S19       1.0  0.36276  0.22827  0.36448  1.0000
  H   H65       1.0  0.45130  0.16357  0.60945  1.0000
  C   C60       1.0  0.33761  0.16380  0.46247  1.0000
  C   C61       1.0  0.47870  0.40542  0.36005  1.0000
  C   C62       1.0  0.49085  0.33583  0.38718  1.0000
  C   C63       1.0  0.32526  0.11418  0.44809  1.0000
  C   C64       1.0  0.26784  0.07247  0.50378  1.0000
  C   C65       1.0  0.33663  0.23677  0.56897  1.0000
  C   C66       1.0  0.45188  0.37500  0.47948  1.0000
  H   H66       1.0  0.36938  0.34187  0.49221  1.0000
  C   C67       1.0  0.35411  0.20779  0.63122  1.0000
  C   C68       1.0  0.43769  0.27599  0.49907  1.0000
  C   C69       1.0  0.33991  0.28229  0.62940  1.0000
  C   C70       1.0  0.44532  0.07867  0.66160  1.0000
  S   S20       1.0  0.35640  0.43965  0.65976  1.0000
  C   C71       1.0  0.39426  0.28404  0.49967  1.0000
  H   H67       1.0  0.08540  0.42544  0.65100  1.0000
  H   H68       1.0  0.45374  0.05447  0.58020  1.0000
  H   H69       1.0  0.12750  0.41796  0.59111  1.0000
  H   H70       1.0  0.32073  0.29680  0.37657  1.0000
  C   C72       1.0  0.07322  0.32766  0.67317  1.0000
  H   H71       1.0  0.23770  0.26988  0.41154  1.0000
  C   C73       1.0  0.14165  0.45637  0.60442  1.0000
  C   C74       1.0  0.33430  0.27764  0.58867  1.0000
  H   H72       1.0  0.45725  0.41320  0.47162  1.0000
  C   C75       1.0  0.24053  0.24266  0.52271  1.0000
  H   H73       1.0  0.32760  0.30575  0.57267  1.0000
  H   H74       1.0  0.30543  0.25083  0.43750  1.0000
  C   C76       1.0  0.31566  0.16817  0.49795  1.0000
  C   C77       1.0  0.27944  0.12203  0.51792  1.0000
  H   H75       1.0  0.23927  0.23363  0.55358  1.0000
  C   C78       1.0  0.20274  0.25397  0.50787  1.0000
  C   C79       1.0  0.20217  0.26439  0.46791  1.0000
  C   C80       1.0  0.23893  0.26276  0.44263  1.0000
  C   C81       1.0  0.27727  0.25221  0.45746  1.0000
  C   C82       1.0  0.27932  0.24361  0.49779  1.0000
  C   C83       1.0  0.42259  0.02392  0.65655  1.0000
  H   H76       1.0  0.24057  0.03699  0.51961  1.0000
  H   H77       1.0  0.41864  0.46458  0.42655  1.0000
  H   H78       1.0  0.28201  0.03026  0.45789  1.0000
  H   H79       1.0  0.43112  0.38918  0.66419  1.0000
  C   C84       1.0  0.38002  0.99901  0.43275  1.0000
  C   C85       1.0  0.45941  0.35868  0.38151  1.0000
  C   C86       1.0  0.31883  0.28861  0.34557  1.0000
  C   C87       1.0  0.19770  0.25782  0.99199  1.0000
  S   S21       1.0  0.27009  0.42028  0.72804  1.0000
  S   S22       1.0  0.33021  0.32141  0.72730  1.0000
  C   C88       1.0  0.46083  0.27747  0.77223  1.0000
  Fe  Fe9       1.0  0.42988  0.27995  0.92966  1.0000
  C   C89       1.0  0.03941  0.44441  0.75629  1.0000
  S   S23       1.0  0.39341  0.32708  0.90614  1.0000
  Fe  Fe10      1.0  0.44222  0.18359  0.93935  1.0000
  S   S24       1.0  0.41832  0.10286  0.91540  1.0000
  S   S25       1.0  0.38880  0.20830  0.96861  1.0000
  C   C90       1.0  0.37352  0.05073  0.94559  1.0000
  C   C91       1.0  0.04741  0.45802  0.71631  1.0000
  C   C92       1.0  0.36215  0.06069  0.98343  1.0000
  H   H80       1.0  0.17606  0.22140  0.89573  1.0000
  C   C93       1.0  0.45710  0.46081  0.74357  1.0000
  S   S26       1.0  0.12802  0.36772  0.70289  1.0000
  C   C94       1.0  0.34225  0.32069  0.77805  1.0000
  C   C95       1.0  0.34534  0.35963  0.80345  1.0000
  C   C96       1.0  0.36023  0.36060  0.84286  1.0000
  C   C97       1.0  0.37188  0.32259  0.85714  1.0000
  C   C98       1.0  0.36643  0.28230  0.83220  1.0000
  C   C99       1.0  0.35179  0.28149  0.79276  1.0000
  H   H81       1.0  0.33723  0.38949  0.79257  1.0000
  H   H82       1.0  0.36359  0.39143  0.86220  1.0000
  H   H83       1.0  0.37436  0.25229  0.84313  1.0000
  H   H84       1.0  0.34865  0.25082  0.77338  1.0000
  Fe  Fe11      1.0  0.45726  0.25166  0.01006  1.0000
  C   C100      1.0  0.04339  0.34574  0.84872  1.0000
  C   C101      1.0  0.07360  0.35628  0.81458  1.0000
  C   C102      1.0  0.11702  0.40655  0.80839  1.0000
  C   C103      1.0  0.13050  0.44620  0.83641  1.0000
  C   C104      1.0  0.10147  0.43552  0.87144  1.0000
  C   C105      1.0  0.05680  0.38532  0.87687  1.0000
  C   C106      1.0  0.45799  0.27855  0.73129  1.0000
  C   C107      1.0  0.43507  0.00077  0.76568  1.0000
  H   H85       1.0  0.48859  0.00821  0.89465  1.0000
  C   C108      1.0  0.47571  0.32658  0.71175  1.0000
  C   C109      1.0  0.24764  0.24258  0.92738  1.0000
  H   H86       1.0  0.26728  0.23682  0.90243  1.0000
  C   C110      1.0  0.34244  0.00929  0.68876  1.0000
  H   H87       1.0  0.45993  0.02665  0.95778  1.0000
  P   P3        1.0  0.11728  0.48765  0.90660  1.0000
  H   H88       1.0  0.31337  0.26434  0.96584  1.0000
  H   H89       1.0  0.44213  0.24220  0.71474  1.0000
  H   H90       1.0  0.06902  0.46793  0.77789  1.0000
  H   H91       1.0  0.21362  0.48279  0.89497  1.0000
  H   H92       1.0  0.35301  0.25069  0.68245  1.0000
  H   H93       1.0  0.48181  0.32337  0.82550  1.0000
  H   H94       1.0  0.00922  0.30687  0.85325  1.0000
  H   H95       1.0  0.34071  0.36534  0.97785  1.0000
  H   H96       1.0  0.38048  0.10075  0.99427  1.0000
  C   C111      1.0  0.42274  0.40476  0.99284  1.0000
  H   H97       1.0  0.43397  0.13983  0.68773  1.0000
  H   H98       1.0  0.06309  0.32576  0.79259  1.0000
  H   H99       1.0  0.13983  0.41477  0.78154  1.0000
  H   H100      1.0  0.34308  0.07866  0.71022  1.0000
  H   H101      1.0  0.03211  0.37654  0.90273  1.0000
  C   C112      1.0  0.17121  0.24112  0.95605  1.0000
  H   H102      1.0  0.44663  0.24031  0.78756  1.0000
  C   C113      1.0  0.27397  0.25880  0.96333  1.0000
  H   H103      1.0  0.42656  0.02263  0.74419  1.0000
  C   C114      1.0  0.02216  0.30922  0.68797  1.0000
  H   H104      1.0  0.01704  0.31832  0.71785  1.0000
  H   H105      1.0  0.39860  0.47862  0.76535  1.0000
  C   C115      1.0  0.11136  0.41986  0.96677  1.0000
  C   C116      1.0  0.24999  0.26846  0.99548  1.0000
  H   H106      1.0  0.43296  0.41912  0.74995  1.0000
  Fe  Fe12      1.0  0.20883  0.38861  0.68041  1.0000
  C   C117      1.0  0.19638  0.23402  0.92365  1.0000
  Fe  Fe13      1.0  0.31829  0.48352  0.68425  1.0000
  C   C118      1.0  0.36519  0.06357  0.69485  1.0000
  H   H107      1.0  0.43479  0.42591  0.96524  1.0000
  Fe  Fe14      1.0  0.30199  0.37324  0.69940  1.0000
  H   H108      1.0  0.11692  0.39673  0.94450  1.0000
  S   S27       1.0  0.47806  0.25205  0.89711  1.0000
  H   H109      1.0  0.13105  0.23343  0.95334  1.0000
  C   C119      1.0  0.02229  0.48739  0.91415  1.0000
  C   C120      1.0  0.36922  0.36931  0.99979  1.0000
  S   S28       1.0  0.49394  0.32495  0.97356  1.0000
  C   C121      1.0  0.10938  0.46532  0.95677  1.0000
  H   H110      1.0  0.16336  0.48512  0.83044  1.0000
  C   C122      1.0  0.48063  0.32428  0.79368  1.0000
  C   C123      1.0  0.10367  0.49523  0.98661  1.0000
  C   C124      1.0  0.34975  0.99858  0.93190  1.0000
  C   C125      1.0  0.41657  0.09813  0.68164  1.0000
  C   C126      1.0  0.10542  0.40341  0.00591  1.0000
  C   C127      1.0  0.32689  0.01866  0.00740  1.0000
  C   C128      1.0  0.00730  0.42674  0.68939  1.0000
  H   H111      1.0  0.01052  0.45521  0.93479  1.0000
  H   H112      1.0  0.19195  0.49514  0.71275  1.0000
  C   C129      1.0  0.43732  0.49437  0.75211  1.0000
  H   H113      1.0  0.47463  0.32682  0.68003  1.0000
  S   S29       1.0  0.31376  0.56169  0.24919  1.0000
  H   H114      1.0  0.33015  0.78587  0.15788  1.0000
  S   S30       1.0  0.06594  0.66151  0.05343  1.0000
  S   S31       1.0  0.21998  0.77809  0.05667  1.0000
  C   C130      1.0  0.44015  0.54016  0.02120  1.0000
  Fe  Fe15      1.0  0.14603  0.71831  0.02631  1.0000
  C   C131      1.0  0.04589  0.66660  0.10171  1.0000
  C   C132      1.0  0.35541  0.56914  0.06096  1.0000
  C   C133      1.0  0.13211  0.55583  0.20192  1.0000
  H   H115      1.0  0.46095  0.73188  0.29138  1.0000
  C   C134      1.0  0.06294  0.70731  0.16638  1.0000
  C   C135      1.0  0.08032  0.70501  0.12820  1.0000
  H   H116      1.0  0.08993  0.73703  0.18665  1.0000
  H   H117      1.0  0.12034  0.73284  0.11928  1.0000
  H   H118      1.0  0.43119  0.75063  0.05012  1.0000
  H   H119      1.0  0.48684  0.66563  0.21303  1.0000
  C   C136      1.0  0.35403  0.60771  0.28476  1.0000
  C   C137      1.0  0.42078  0.85093  0.30882  1.0000
  H   H120      1.0  0.29079  0.51295  0.09762  1.0000
  C   C138      1.0  0.47583  0.66815  0.18309  1.0000
  C   C139      1.0  0.42878  0.69399  0.30077  1.0000
  C   C140      1.0  0.39538  0.65708  0.27283  1.0000
  C   C141      1.0  0.01102  0.67143  0.17849  1.0000
  H   H121      1.0  0.36513  0.66231  0.16615  1.0000
  H   H122      1.0  0.40168  0.66671  0.24194  1.0000
  C   C142      1.0  0.32011  0.96969  0.27503  1.0000
  C   C143      1.0  0.43815  0.62634  0.12037  1.0000
  C   C144      1.0  0.38835  0.94900  0.08421  1.0000
  C   C145      1.0  0.44941  0.67561  0.10550  1.0000
  C   C146      1.0  0.37533  0.89613  0.08446  1.0000
  C   C147      1.0  0.48183  0.97650  0.08114  1.0000
  C   C148      1.0  0.46835  0.92324  0.08255  1.0000
  C   C149      1.0  0.46600  0.87125  0.20817  1.0000
  C   C150      1.0  0.03724  0.51905  0.20012  1.0000
  C   C151      1.0  0.42072  0.74731  0.01943  1.0000
  H   H123      1.0  0.33421  0.86510  0.08454  1.0000
  C   C152      1.0  0.41530  0.88331  0.08368  1.0000
  C   C153      1.0  0.44135  0.98912  0.08240  1.0000
  H   H124      1.0  0.33592  0.64943  0.09641  1.0000
  C   C154      1.0  0.31058  0.64997  0.11935  1.0000
  H   H125      1.0  0.24831  0.63695  0.07933  1.0000
  H   H126      1.0  0.34067  0.85121  0.20816  1.0000
  H   H127      1.0  0.08192  0.51283  0.33642  1.0000
  C   C155      1.0  0.47260  0.72042  0.12946  1.0000
  C   C156      1.0  0.09495  0.61250  0.21234  1.0000
  C   C157      1.0  0.13944  0.60631  0.20933  1.0000
  C   C158      1.0  0.04413  0.56905  0.20758  1.0000
  P   P4        1.0  0.20555  0.66201  0.21501  1.0000
  C   C159      1.0  0.20507  0.72328  0.20893  1.0000
  C   C160      1.0  0.23185  0.66160  0.26296  1.0000
  C   C161      1.0  0.27105  0.70915  0.27973  1.0000
  C   C162      1.0  0.33772  0.97782  0.20521  1.0000
  C   C163      1.0  0.27731  0.66138  0.33544  1.0000
  H   H128      1.0  0.44855  0.58702  0.17084  1.0000
  C   C164      1.0  0.21635  0.61389  0.28265  1.0000
  C   C165      1.0  0.22033  0.75146  0.17337  1.0000
  C   C166      1.0  0.22147  0.79961  0.16986  1.0000
  C   C167      1.0  0.20698  0.81984  0.20158  1.0000
  C   C168      1.0  0.19086  0.79170  0.23681  1.0000
  C   C169      1.0  0.18973  0.74358  0.24046  1.0000
  C   C170      1.0  0.24645  0.65615  0.17792  1.0000
  C   C171      1.0  0.22887  0.64554  0.13887  1.0000
  C   C172      1.0  0.26109  0.64299  0.10969  1.0000
  H   H129      1.0  0.40904  0.82342  0.28459  1.0000
  C   C173      1.0  0.32740  0.65826  0.15839  1.0000
  C   C174      1.0  0.29565  0.66161  0.18761  1.0000
  H   H130      1.0  0.09898  0.65074  0.21773  1.0000
  H   H131      1.0  0.16574  0.54994  0.19951  1.0000
  H   H132      1.0  0.28521  0.74630  0.26451  1.0000
  C   C175      1.0  0.30208  0.53811  0.07202  1.0000
  C   C176      1.0  0.45344  0.62345  0.15904  1.0000
  C   C177      1.0  0.43136  0.90286  0.30317  1.0000
  H   H133      1.0  0.18766  0.57645  0.27004  1.0000
  H   H134      1.0  0.23124  0.73672  0.14813  1.0000
  H   H135      1.0  0.23294  0.82099  0.14228  1.0000
  H   H136      1.0  0.20749  0.85694  0.19863  1.0000
  H   H137      1.0  0.17869  0.80696  0.26116  1.0000
  H   H138      1.0  0.17664  0.72204  0.26786  1.0000
  H   H139      1.0  0.19074  0.64047  0.13079  1.0000
  S   S32       1.0  0.25864  0.91504  0.02460  1.0000
  S   S33       1.0  0.32953  0.74291  0.04426  1.0000
  H   H140      1.0  0.40542  0.77460  0.13945  1.0000
  H   H141      1.0  0.30973  0.66812  0.21760  1.0000
  H   H142      1.0  0.35714  0.95880  0.08395  1.0000
  C   C178      1.0  0.37330  0.95967  0.21038  1.0000
  C   C179      1.0  0.26243  0.53976  0.05014  1.0000
  H   H143      1.0  0.40503  0.84225  0.08329  1.0000
  H   H144      1.0  0.32328  0.74561  0.32890  1.0000
  H   H145      1.0  0.99788  0.81890  0.33724  1.0000
  C   C180      1.0  0.46439  0.54975  0.27334  1.0000
  P   P5        1.0  0.43266  0.92808  0.25458  1.0000
  C   C181      1.0  0.38288  0.94675  0.24806  1.0000
  H   H146      1.0  0.03281  0.69499  0.31730  1.0000
  C   C182      1.0  0.34550  0.59560  0.32477  1.0000
  C   C183      1.0  0.41056  0.80337  0.16163  1.0000
  H   H147      1.0  0.01009  0.57442  0.20924  1.0000
  C   C184      1.0  0.23917  0.61392  0.31869  1.0000
  C   C185      1.0  0.48460  0.71639  0.16851  1.0000
  P   P6        1.0  0.40737  0.56830  0.08926  1.0000
  C   C186      1.0  0.45624  0.57137  0.05529  1.0000
  C   C187      1.0  0.42395  0.87926  0.21805  1.0000
  C   C188      1.0  0.37443  0.84736  0.20028  1.0000
  C   C189      1.0  0.36799  0.80983  0.17205  1.0000
  H   H148      1.0  0.44112  0.67981  0.07528  1.0000
  C   C190      1.0  0.35362  0.50548  0.15382  1.0000
  C   C191      1.0  0.35554  0.95138  0.28031  1.0000
  H   H149      1.0  0.30072  0.97503  0.30029  1.0000
  H   H150      1.0  0.36220  0.94231  0.30976  1.0000
  C   C192      1.0  0.31142  0.98320  0.23756  1.0000
  H   H151      1.0  0.00788  0.75824  0.29167  1.0000
  H   H152      1.0  0.31354  0.55760  0.33414  1.0000
  C   C193      1.0  0.44751  0.93762  0.33528  1.0000
  H   H153      1.0  0.34584  0.53663  0.16238  1.0000
  C   C194      1.0  0.29317  0.70898  0.31605  1.0000
  C   C195      1.0  0.08121  0.51240  0.19752  1.0000
  C   C196      1.0  0.42011  0.68196  0.34077  1.0000
  H   H154      1.0  0.46953  0.58894  0.27043  1.0000
  H   H155      1.0  0.22142  0.51617  0.05900  1.0000
  C   C197      1.0  0.02933  0.72185  0.33738  1.0000
  C   C198      1.0  0.38102  0.50919  0.11896  1.0000
  C   C199      1.0  0.45954  0.83405  0.17974  1.0000
  C   C200      1.0  0.41524  0.50549  0.26545  1.0000
  C   C201      1.0  0.01511  0.75755  0.32286  1.0000
  H   H156      1.0  0.38234  0.51054  0.25696  1.0000
  H   H157      1.0  0.48212  0.75848  0.11754  1.0000
  C   C202      1.0  0.36817  0.60137  0.02748  1.0000
  H   H158      1.0  0.22787  0.57695  0.33337  1.0000
  H   H159      1.0  0.39475  0.95754  0.18516  1.0000
  H   H160      1.0  0.39854  0.51459  0.01487  1.0000
  Fe  Fe16      1.0  0.26279  0.75006  0.01796  1.0000
  H   H161      1.0  0.33218  0.98985  0.17635  1.0000
  H   H162      1.0  0.45631  0.97803  0.33159  1.0000
  C   C203      1.0  0.27566  0.57249  0.01723  1.0000
  H   H163      1.0  0.40887  0.62562  0.01807  1.0000
  H   H164      1.0  0.49275  0.82913  0.17198  1.0000
  H   H165      1.0  0.09190  0.50105  0.04850  1.0000
  C   C204      1.0  0.03808  0.72019  0.37760  1.0000
  Fe  Fe17      1.0  0.30869  0.77488  0.60720  1.0000
  S   S34       1.0  0.35288  0.85597  0.63380  1.0000
  S   S35       1.0  0.34217  0.72500  0.58497  1.0000
  Fe  Fe18      1.0  0.20614  0.77493  0.60499  1.0000
  S   S36       1.0  0.24047  0.85583  0.63097  1.0000
  S   S37       1.0  0.12384  0.72064  0.58324  1.0000
  Fe  Fe19      1.0  0.30922  0.87793  0.59050  1.0000
  C   C205      1.0  0.45737  0.74919  0.52348  1.0000
  S   S38       1.0  0.27092  0.79919  0.56065  1.0000
  C   C206      1.0  0.13540  0.51046  0.65600  1.0000
  C   C207      1.0  0.07278  0.72797  0.60358  1.0000
  C   C208      1.0  0.08318  0.76837  0.63023  1.0000
  C   C209      1.0  0.46377  0.53897  0.45679  1.0000
  C   C210      1.0  0.20559  0.89285  0.49161  1.0000
  C   C211      1.0  0.02054  0.69165  0.59349  1.0000
  H   H166      1.0  0.34944  0.51104  0.48254  1.0000
  C   C212      1.0  0.34885  0.93394  0.48582  1.0000
  C   C213      1.0  0.35840  0.94656  0.44564  1.0000
  H   H167      1.0  0.33226  0.89351  0.49545  1.0000
  H   H168      1.0  0.34897  0.91561  0.42440  1.0000
  C   C214      1.0  0.10835  0.54922  0.54471  1.0000
  H   H169      1.0  0.39995  0.50422  0.59179  1.0000
  C   C215      1.0  0.48827  0.90835  0.54731  1.0000
  C   C216      1.0  0.34450  0.68046  0.61836  1.0000
  C   C217      1.0  0.35584  0.64217  0.60446  1.0000
  C   C218      1.0  0.35819  0.60625  0.63049  1.0000
  C   C219      1.0  0.36081  0.97380  0.51336  1.0000
  H   H170      1.0  0.36295  0.64036  0.57353  1.0000
  H   H171      1.0  0.36718  0.57693  0.61963  1.0000
  H   H172      1.0  0.37159  0.62380  0.38366  1.0000
  C   C220      1.0  0.43659  0.50710  0.42458  1.0000
  C   C221      1.0  0.12939  0.58518  0.36843  1.0000
  S   S39       1.0  0.24135  0.74545  0.64986  1.0000
  H   H173      1.0  0.24412  0.92515  0.49998  1.0000
  S   S40       1.0  0.34993  0.96027  0.56414  1.0000
  C   C222      1.0  0.10894  0.53151  0.36071  1.0000
  H   H174      1.0  0.05039  0.67688  0.67684  1.0000
  C   C223      1.0  0.31202  0.53723  0.44117  1.0000
  C   C224      1.0  0.32742  0.53135  0.47873  1.0000
  C   C225      1.0  0.31358  0.55079  0.51134  1.0000
  C   C226      1.0  0.28388  0.57573  0.50638  1.0000
  C   C227      1.0  0.26628  0.57972  0.46892  1.0000
  C   C228      1.0  0.28167  0.56142  0.43620  1.0000
  P   P7        1.0  0.22704  0.61102  0.46264  1.0000
  C   C229      1.0  0.18874  0.60135  0.50675  1.0000
  C   C230      1.0  0.27005  0.68066  0.45306  1.0000
  C   C231      1.0  0.32202  0.69968  0.43992  1.0000
  C   C232      1.0  0.35590  0.75370  0.43412  1.0000
  C   C233      1.0  0.33805  0.78924  0.44097  1.0000
  C   C234      1.0  0.28612  0.77062  0.45332  1.0000
  C   C235      1.0  0.25217  0.71656  0.45926  1.0000
  C   C236      1.0  0.20681  0.64068  0.53578  1.0000
  C   C237      1.0  0.17476  0.63528  0.56791  1.0000
  C   C238      1.0  0.12526  0.59002  0.57212  1.0000
  C   C239      1.0  0.42483  0.70107  0.50491  1.0000
  C   C240      1.0  0.13989  0.55481  0.51209  1.0000
  C   C241      1.0  0.18091  0.58024  0.42258  1.0000
  C   C242      1.0  0.33585  0.68300  0.65847  1.0000
  H   H175      1.0  0.42214  0.79548  0.34965  1.0000
  C   C243      1.0  0.15923  0.52610  0.41508  1.0000
  C   C244      1.0  0.44434  0.66767  0.49523  1.0000
  C   C245      1.0  0.16525  0.60953  0.39923  1.0000
  C   C246      1.0  0.46375  0.84780  0.60208  1.0000
  H   H176      1.0  0.11797  0.60808  0.35018  1.0000
  C   C247      1.0  0.44596  0.87032  0.37722  1.0000
  H   H177      1.0  0.27440  0.59152  0.53179  1.0000
  H   H178      1.0  0.26967  0.56505  0.40685  1.0000
  H   H179      1.0  0.33697  0.67318  0.43431  1.0000
  H   H180      1.0  0.39618  0.76771  0.42463  1.0000
  H   H181      1.0  0.36437  0.83123  0.43692  1.0000
  H   H182      1.0  0.27237  0.79821  0.45880  1.0000
  H   H183      1.0  0.21223  0.70297  0.46925  1.0000
  H   H184      1.0  0.24531  0.67594  0.53357  1.0000
  H   H185      1.0  0.18815  0.66646  0.58949  1.0000
  H   H186      1.0  0.10053  0.58649  0.59698  1.0000
  C   C248      1.0  0.18048  0.55457  0.64059  1.0000
  C   C249      1.0  0.08363  0.64158  0.48584  1.0000
  H   H187      1.0  0.24084  0.58382  0.59630  1.0000
  C   C250      1.0  0.04114  0.77130  0.64767  1.0000
  H   H188      1.0  0.32226  0.52162  0.41593  1.0000
  H   H189      1.0  0.44190  0.77480  0.53083  1.0000
  H   H190      1.0  0.18079  0.65114  0.40438  1.0000
  H   H191      1.0  0.47768  0.92127  0.52078  1.0000
  H   H192      1.0  0.12346  0.79698  0.63773  1.0000
  H   H193      1.0  0.03372  0.55708  0.48862  1.0000
  H   H194      1.0  0.11869  0.64131  0.49526  1.0000
  H   H195      1.0  0.42135  0.55432  0.53041  1.0000
  H   H196      1.0  0.41858  0.63078  0.48061  1.0000
  C   C251      1.0  0.45297  0.56186  0.55051  1.0000
  H   H197      1.0  0.38423  0.68949  0.49855  1.0000
  C   C252      1.0  0.42808  0.83483  0.34579  1.0000
  P   P8        1.0  0.04274  0.75222  0.45586  1.0000
  C   C253      1.0  0.00940  0.79158  0.34854  1.0000
  C   C254      1.0  0.10579  0.80847  0.47005  1.0000
  C   C255      1.0  0.12578  0.81143  0.50799  1.0000
  C   C256      1.0  0.17529  0.85333  0.51873  1.0000
  C   C257      1.0  0.12370  0.50198  0.38417  1.0000
  C   C258      1.0  0.45576  0.58482  0.38711  1.0000
  C   C259      1.0  0.13669  0.84841  0.44287  1.0000
  H   H198      1.0  0.45356  0.60279  0.35990  1.0000
  H   H199      1.0  0.32532  0.54593  0.54051  1.0000
  H   H200      1.0  0.43329  0.81412  0.61783  1.0000
  C   C260      1.0  0.18633  0.89036  0.45368  1.0000
  H   H201      1.0  0.46752  0.52044  0.48308  1.0000
  C   C261      1.0  0.37807  0.63306  0.35274  1.0000
  S   S41       1.0  0.46173  0.72715  0.37624  1.0000
  H   H202      1.0  0.10364  0.78052  0.52907  1.0000
  H   H203      1.0  0.19033  0.85476  0.54805  1.0000
  C   C262      1.0  0.01786  0.78990  0.38881  1.0000
  C   C263      1.0  0.45012  0.86430  0.56772  1.0000
  H   H204      1.0  0.12310  0.84720  0.41319  1.0000
  H   H205      1.0  0.21014  0.92081  0.43253  1.0000
  C   C264      1.0  0.08638  0.68966  0.47776  1.0000
  C   C265      1.0  0.04066  0.69085  0.46703  1.0000
  C   C266      1.0  0.43235  0.53001  0.38981  1.0000
  C   C267      1.0  0.44064  0.53359  0.58562  1.0000
  H   H206      1.0  0.01305  0.81633  0.40841  1.0000
  H   H207      1.0  0.02974  0.78521  0.53602  1.0000
  H   H208      1.0  0.19695  0.59280  0.65458  1.0000
  H   H209      1.0  0.47378  0.67570  0.61159  1.0000
  H   H210      1.0  0.12580  0.52292  0.49106  1.0000
  C   C268      1.0  0.03569  0.59425  0.48241  1.0000
  C   C269      1.0  0.03192  0.75392  0.40370  1.0000
  H   H211      1.0  0.04888  0.69206  0.38814  1.0000
  H   H212      1.0  0.07069  0.51339  0.54865  1.0000
  C   C270      1.0  0.18576  0.50070  0.58884  1.0000
  C   C271      1.0  0.20570  0.54958  0.60740  1.0000
  H   H213      1.0  0.12420  0.72547  0.48024  1.0000
  H   H214      1.0  0.16977  0.50227  0.43305  1.0000
  H   H215      1.0  0.40976  0.84291  0.55708  1.0000
  H   H216      1.0  0.29547  0.66109  0.36299  1.0000
  H   H217      1.0  0.01231  0.66088  0.57232  1.0000
  H   H218      1.0  0.00793  0.51476  0.67409  1.0000
  H   H219      1.0  0.47062  0.75775  0.61578  1.0000
  C   C272      1.0  0.35091  0.60964  0.67075  1.0000
  H   H220      1.0  0.20536  0.49669  0.56318  1.0000
  H   H221      1.0  0.32708  0.71243  0.66937  1.0000
  H   H222      1.0  0.41133  0.50542  0.36481  1.0000
  H   H223      1.0  0.47081  0.52136  0.63989  1.0000
  C   C273      1.0  0.37120  0.98957  0.66979  1.0000
  C   C274      1.0  0.48180  0.61669  0.41951  1.0000
  H   H224      1.0  0.45425  0.85875  0.40530  1.0000
  H   H225      1.0  0.35349  0.94745  0.66556  1.0000
  C   C275      1.0  0.48049  0.54329  0.61257  1.0000
  C   C276      1.0  0.48524  0.59397  0.45486  1.0000
  C   C277      1.0  0.45453  0.92131  0.37217  1.0000
  Fe  Fe20      1.0  0.28143  0.82867  0.67261  1.0000
  C   C278      1.0  0.02421  0.59415  0.67382  1.0000
  H   H226      1.0  0.46804  0.94889  0.39650  1.0000
  H   H227      1.0  0.04924  0.80229  0.66857  1.0000
  C   C279      1.0  0.04521  0.66801  0.92060  1.0000
  S   S42       1.0  0.15254  0.77365  0.97790  1.0000
  C   C280      1.0  0.23656  0.54173  0.76191  1.0000
  C   C281      1.0  0.05055  0.56957  0.86063  1.0000
  S   S43       1.0  0.18819  0.68478  0.99184  1.0000
  C   C282      1.0  0.38617  0.81178  0.74032  1.0000
  Fe  Fe21      1.0  0.19964  0.74407  0.94522  1.0000
  S   S44       1.0  0.18232  0.71059  0.88308  1.0000
  S   S45       1.0  0.27806  0.80695  0.96892  1.0000
  C   C283      1.0  0.13489  0.82053  0.80512  1.0000
  S   S46       1.0  0.29187  0.85834  0.73533  1.0000
  H   H228      1.0  0.33892  0.62915  0.98074  1.0000
  H   H229      1.0  0.10317  0.53110  0.97968  1.0000
  H   H230      1.0  0.11618  0.77822  0.71056  1.0000
  C   C284      1.0  0.21097  0.75240  0.84211  1.0000
  C   C285      1.0  0.20213  0.73018  0.80435  1.0000
  C   C286      1.0  0.22692  0.76206  0.77134  1.0000
  C   C287      1.0  0.26030  0.81650  0.77587  1.0000
  C   C288      1.0  0.26876  0.83869  0.81358  1.0000
  C   C289      1.0  0.24427  0.80681  0.84661  1.0000
  H   H231      1.0  0.17637  0.68814  0.80066  1.0000
  H   H232      1.0  0.22022  0.74462  0.74245  1.0000
  H   H233      1.0  0.29435  0.88078  0.81729  1.0000
  H   H234      1.0  0.25144  0.82432  0.87556  1.0000
  C   C290      1.0  0.40569  0.98402  0.80033  1.0000
  C   C291      1.0  0.35994  0.74062  0.96871  1.0000
  C   C292      1.0  0.39442  0.74072  0.94016  1.0000
  C   C293      1.0  0.44193  0.74370  0.95094  1.0000
  C   C294      1.0  0.45514  0.74696  0.99073  1.0000
  C   C295      1.0  0.41411  0.86150  0.72291  1.0000
  H   H235      1.0  0.32321  0.73797  0.96001  1.0000
  H   H236      1.0  0.38448  0.73897  0.90961  1.0000
  C   C296      1.0  0.00108  0.54611  0.87885  1.0000
  C   C297      1.0  0.31465  0.95647  0.95599  1.0000
  C   C298      1.0  0.04892  0.74152  0.79734  1.0000
  S   S47       1.0  0.35864  0.56824  0.70416  1.0000
  H   H237      1.0  0.29626  0.91640  0.94521  1.0000
  H   H238      1.0  0.35117  0.80146  0.75762  1.0000
  H   H239      1.0  0.33341  0.65016  0.71572  1.0000
  H   H240      1.0  0.16433  0.85128  0.82370  1.0000
  H   H241      1.0  0.30788  0.55129  0.89137  1.0000
  C   C299      1.0  0.45633  0.92484  0.90655  1.0000
  H   H242      1.0  0.17348  0.60397  0.91588  1.0000
  H   H243      1.0  0.40031  0.88931  0.72653  1.0000
  C   C300      1.0  0.43220  0.88515  0.93507  1.0000
  H   H244      1.0  0.26591  0.52960  0.75926  1.0000
  H   H245      1.0  0.46520  0.51956  0.96783  1.0000
  C   C301      1.0  0.08905  0.56881  0.69167  1.0000
  C   C302      1.0  0.43086  0.84109  0.84780  1.0000
  H   H246      1.0  0.30274  0.98223  0.69913  1.0000
  C   C303      1.0  0.41851  0.75623  0.82682  1.0000
  C   C304      1.0  0.36388  0.73342  0.83117  1.0000
  C   C305      1.0  0.34261  0.76422  0.84371  1.0000
  C   C306      1.0  0.37585  0.81781  0.85200  1.0000
  C   C307      1.0  0.40277  0.77514  0.73477  1.0000
  C   C308      1.0  0.45855  0.87464  0.69985  1.0000
  C   C309      1.0  0.03788  0.55521  0.67927  1.0000
  H   H247      1.0  0.45089  0.57364  0.74882  1.0000
  H   H248      1.0  0.03006  0.71121  0.73794  1.0000
  H   H249      1.0  0.43515  0.73210  0.81792  1.0000
  H   H250      1.0  0.33813  0.69182  0.82525  1.0000
  H   H251      1.0  0.30038  0.74635  0.84766  1.0000
  H   H252      1.0  0.35861  0.84093  0.86208  1.0000
  H   H253      1.0  0.38026  0.73612  0.74739  1.0000
  C   C310      1.0  0.45273  0.98726  0.95156  1.0000
  H   H254      1.0  0.26725  0.67161  0.91088  1.0000
  C   C311      1.0  0.29355  0.61581  0.90017  1.0000
  C   C312      1.0  0.16082  0.57288  0.76830  1.0000
  H   H255      1.0  0.20701  0.61993  0.81751  1.0000
  C   C313      1.0  0.08646  0.78249  0.82099  1.0000
  C   C314      1.0  0.42547  0.94673  0.97868  1.0000
  C   C315      1.0  0.04125  0.68265  0.88225  1.0000
  H   H256      1.0  0.24505  0.57439  0.00061  1.0000
  P   P9        1.0  0.47300  0.91044  0.85895  1.0000
  C   C316      1.0  0.20325  0.59247  0.79464  1.0000
  C   C317      1.0  0.32849  0.60323  0.00595  1.0000
  C   C318      1.0  0.24127  0.57714  0.79125  1.0000
  H   H257      1.0  0.45918  0.75879  0.70825  1.0000
  H   H258      1.0  0.07866  0.78500  0.85176  1.0000
  H   H259      1.0  0.07590  0.69863  0.86362  1.0000
  C   C319      1.0  0.08561  0.55161  0.86871  1.0000
  H   H260      1.0  0.13162  0.58499  0.77144  1.0000
  H   H261      1.0  0.06239  0.60243  0.84082  1.0000
  H   H262      1.0  0.42454  0.84562  0.92940  1.0000
  C   C320      1.0  0.47591  0.83825  0.69459  1.0000
  C   C321      1.0  0.18608  0.53833  0.90344  1.0000
  C   C322      1.0  0.22476  0.52395  0.89782  1.0000
  C   C323      1.0  0.05938  0.74091  0.75716  1.0000
  C   C324      1.0  0.44771  0.78830  0.71233  1.0000
  C   C325      1.0  0.46677  0.54796  0.74267  1.0000
  C   C326      1.0  0.46853  0.97652  0.91568  1.0000
  H   H263      1.0  0.39295  0.94295  0.85479  1.0000
  H   H264      1.0  0.08259  0.67361  0.93124  1.0000
  H   H265      1.0  0.37412  0.99249  0.80552  1.0000
  H   H266      1.0  0.27423  0.59234  0.81146  1.0000
  C   C327      1.0  0.41668  0.95602  0.82833  1.0000
  H   H267      1.0  0.39623  0.86484  0.99243  1.0000
  H   H268      1.0  0.04015  0.63791  0.78613  1.0000
  C   C328      1.0  0.10784  0.77910  0.74140  1.0000
  C   C329      1.0  0.20201  0.59178  0.90929  1.0000
  H   H269      1.0  0.35852  0.99074  0.90267  1.0000
  H   H270      1.0  0.47878  0.91279  0.68551  1.0000
  C   C330      1.0  0.07228  0.51124  0.89620  1.0000
  C   C331      1.0  0.25549  0.63038  0.90699  1.0000
  C   C332      1.0  0.41644  0.89602  0.97095  1.0000
  H   H271      1.0  0.18327  0.84819  0.75313  1.0000
  C   C333      1.0  0.30301  0.96651  0.99376  1.0000
  C   C334      1.0  0.14562  0.81876  0.76537  1.0000
  H   H272      1.0  0.33506  0.64553  0.89869  1.0000
  C   C335      1.0  0.27823  0.56260  0.89595  1.0000
  C   C336      1.0  0.45780  0.94521  0.82209  1.0000
  C   C337      1.0  0.19457  0.52248  0.73535  1.0000
  C   C338      1.0  0.45181  0.81003  0.83433  1.0000
  H   H273      1.0  0.49370  0.82671  0.82996  1.0000
  C   C339      1.0  0.00102  0.64567  0.94516  1.0000
  C   C340      1.0  0.47468  0.98848  0.75856  1.0000
  P   P10       1.0  0.10606  0.51804  0.70053  1.0000
  C   C341      1.0  0.15708  0.53898  0.73765  1.0000
  S   S48       1.0  0.48353  0.74290  0.91401  1.0000
  H   H274      1.0  0.49167  0.74908  0.99942  1.0000
  C   C342      1.0  0.37297  0.74382  0.00839  1.0000
  C   C343      1.0  0.33967  0.64798  0.68466  1.0000
  C   C344      1.0  0.47772  0.54232  0.99472  1.0000
  H   H275      1.0  0.12336  0.56988  0.85394  1.0000
  H   H276      1.0  0.41076  0.95456  0.00542  1.0000
  Fe  Fe22      1.0  0.23033  0.83126  0.00585  1.0000
  C   C345      1.0  0.99807  0.61257  0.78165  1.0000
  H   H277      1.0  0.00641  0.54868  0.75849  1.0000
  C   C346      1.0  0.48559  0.96021  0.78644  1.0000
  H   H278      1.0  0.16716  0.63469  0.70478  1.0000
  C   C347      1.0  0.06135  0.64696  0.68069  1.0000
  C   C348      1.0  0.12681  0.62249  0.69679  1.0000
  C   C349      1.0  0.11266  0.66121  0.69190  1.0000
  H   H279      1.0  0.14152  0.70246  0.69644  1.0000
  H   H280      1.0  0.00453  0.63488  0.97505  1.0000
  C   C350      1.0  0.59208  0.02938  0.26513  1.0000
  H   H281      1.0  0.95763  0.33616  0.11655  1.0000
  C   C351      1.0  0.50499  0.03425  0.23679  1.0000
  C   C352      1.0  0.72903  0.13840  0.31058  1.0000
  S   S49       1.0  0.85301  0.25374  0.05949  1.0000
  S   S50       1.0  0.75627  0.43614  0.23893  1.0000
  H   H282      1.0  0.64977  0.28647  0.07449  1.0000
  C   C353      1.0  0.57511  0.43865  0.12888  1.0000
  C   C354      1.0  0.75770  0.17824  0.28304  1.0000
  C   C355      1.0  0.63525  0.30177  0.28456  1.0000
  C   C356      1.0  0.67168  0.33967  0.25831  1.0000
  C   C357      1.0  0.70869  0.39038  0.27160  1.0000
  C   C358      1.0  0.81000  0.30542  0.23866  1.0000
  C   C359      1.0  0.69152  0.15583  0.14220  1.0000
  H   H283      1.0  0.60749  0.26239  0.27434  1.0000
  H   H284      1.0  0.67162  0.32950  0.22776  1.0000
  H   H285      1.0  0.75733  0.21487  0.28507  1.0000
  C   C360      1.0  0.95419  0.20922  0.20686  1.0000
  H   H286      1.0  0.70632  0.05976  0.32993  1.0000
  C   C361      1.0  0.72154  0.00505  0.01551  1.0000
  C   C362      1.0  0.72668  0.16214  0.17228  1.0000
  H   H287      1.0  0.54352  0.38944  0.27243  1.0000
  C   C363      1.0  0.78569  0.17007  0.25294  1.0000
  C   C364      1.0  0.69503  0.41838  0.07781  1.0000
  H   H288      1.0  0.96046  0.39929  0.25369  1.0000
  C   C365      1.0  0.67230  0.36544  0.33722  1.0000
  C   C366      1.0  0.63939  0.49481  0.01619  1.0000
  H   H289      1.0  0.73199  0.37131  0.08595  1.0000
  H   H290      1.0  0.73165  0.45472  0.08289  1.0000
  H   H291      1.0  0.67649  0.19185  0.09243  1.0000
  H   H292      1.0  0.97607  0.34863  0.31373  1.0000
  H   H293      1.0  0.76808  0.28041  0.23316  1.0000
  H   H294      1.0  0.71185  0.02638  0.11870  1.0000
  C   C367      1.0  0.59877  0.07701  0.25084  1.0000
  H   H295      1.0  0.56436  0.36840  0.05699  1.0000
  C   C368      1.0  0.58974  0.01395  0.11092  1.0000
  H   H296      1.0  0.64156  0.11045  0.03421  1.0000
  C   C369      1.0  0.52505  0.49578  0.11060  1.0000
  C   C370      1.0  0.59094  0.47106  0.09540  1.0000
  C   C371      1.0  0.78425  0.12143  0.25078  1.0000
  C   C372      1.0  0.91827  0.37299  0.25010  1.0000
  H   H297      1.0  0.76774  0.33425  0.33820  1.0000
  H   H298      1.0  0.89852  0.43383  0.25951  1.0000
  C   C373      1.0  0.63639  0.31440  0.32428  1.0000
  H   H299      1.0  0.75495  0.04450  0.27679  1.0000
  Fe  Fe23      1.0  0.81861  0.18910  0.01461  1.0000
  C   C374      1.0  0.82934  0.35835  0.24835  1.0000
  C   C375      1.0  0.64892  0.32297  0.07357  1.0000
  C   C376      1.0  0.55500  0.08990  0.08985  1.0000
  C   C377      1.0  0.55697  0.12450  0.06045  1.0000
  H   H300      1.0  0.92730  0.30684  0.23710  1.0000
  C   C378      1.0  0.64946  0.46175  0.21362  1.0000
  C   C379      1.0  0.55482  0.14967  0.13930  1.0000
  C   C380      1.0  0.55281  0.10236  0.12935  1.0000
  Fe  Fe24      1.0  0.93054  0.27905  0.02994  1.0000
  C   C381      1.0  0.89904  0.31996  0.24063  1.0000
  H   H301      1.0  0.67562  0.45682  0.19369  1.0000
  H   H302      1.0  0.59437  0.41660  0.13678  1.0000
  H   H303      1.0  0.52235  0.40944  0.17849  1.0000
  C   C382      1.0  0.64158  0.02695  0.10104  1.0000
  H   H304      1.0  0.80440  0.11357  0.22732  1.0000
  H   H305      1.0  0.98084  0.36819  0.18502  1.0000
  C   C383      1.0  0.95917  0.20484  0.16644  1.0000
  H   H306      1.0  0.98436  0.21155  0.22653  1.0000
  H   H307      1.0  0.55149  0.15863  0.16967  1.0000
  H   H308      1.0  0.54862  0.07523  0.15243  1.0000
  C   C384      1.0  0.70348  0.19708  0.11604  1.0000
  H   H309      1.0  0.71676  0.12923  0.19169  1.0000
  H   H310      1.0  0.65526  0.11866  0.13895  1.0000
  C   C385      1.0  0.88351  0.39234  0.25350  1.0000
  C   C386      1.0  0.77413  0.21025  0.17664  1.0000
  C   C387      1.0  0.70846  0.40330  0.31105  1.0000
  C   C388      1.0  0.49939  0.49269  0.29097  1.0000
  H   H311      1.0  0.92513  0.20010  0.10949  1.0000
  C   C389      1.0  0.67204  0.01633  0.12693  1.0000
  C   C390      1.0  0.78607  0.25150  0.15007  1.0000
  C   C391      1.0  0.55888  0.18475  0.10997  1.0000
  H   H312      1.0  0.76061  0.27676  0.09931  1.0000
  C   C392      1.0  0.57544  0.42421  0.25869  1.0000
  C   C393      1.0  0.60730  0.41768  0.23126  1.0000
  H   H313      1.0  0.84992  0.41789  0.32305  1.0000
  H   H314      1.0  0.55969  0.11686  0.22762  1.0000
  H   H315      1.0  0.63750  0.11217  0.25114  1.0000
  C   C394      1.0  0.55512  0.07952  0.23713  1.0000
  C   C395      1.0  0.60132  0.36976  0.06333  1.0000
  C   C396      1.0  0.75077  0.24493  0.12000  1.0000
  H   H316      1.0  0.90805  0.21592  0.25312  1.0000
  H   H317      1.0  0.55917  0.22078  0.11784  1.0000
  C   C397      1.0  0.75598  0.08199  0.27859  1.0000
  H   H318      1.0  0.84940  0.20507  0.13518  1.0000
  H   H319      1.0  0.82301  0.28861  0.15221  1.0000
  H   H320      1.0  0.65915  0.04533  0.07342  1.0000
  C   C398      1.0  0.84477  0.28582  0.23416  1.0000
  C   C399      1.0  0.64803  0.41824  0.06908  1.0000
  H   H321      1.0  0.60033  0.37849  0.22455  1.0000
  C   C400      1.0  0.69535  0.37088  0.08000  1.0000
  C   C401      1.0  0.92088  0.20282  0.14092  1.0000
  C   C402      1.0  0.58638  0.47514  0.26932  1.0000
  H   H322      1.0  0.56135  0.19856  0.04779  1.0000
  C   C403      1.0  0.91112  0.21205  0.22175  1.0000
  C   C404      1.0  0.87336  0.21183  0.19617  1.0000
  C   C405      1.0  0.87815  0.20633  0.15566  1.0000
  P   P11       1.0  0.82004  0.21956  0.21554  1.0000
  C   C406      1.0  0.53448  0.43477  0.15285  1.0000
  C   C407      1.0  0.72851  0.09052  0.30851  1.0000
  C   C408      1.0  0.62210  0.07587  0.01559  1.0000
  H   H323      1.0  0.80237  0.37340  0.25062  1.0000
  H   H324      1.0  0.56557  0.28543  0.06065  1.0000
  C   C409      1.0  0.60184  0.32241  0.06547  1.0000
  S   S51       1.0  0.75898  0.10811  0.03585  1.0000
  H   H325      1.0  0.62551  0.02728  0.27654  1.0000
  C   C410      1.0  0.50981  0.46372  0.14396  1.0000
  C   C411      1.0  0.55973  0.17206  0.07056  1.0000
  P   P12       1.0  0.55046  0.02781  0.07715  1.0000
  P   P13       1.0  0.64633  0.47905  0.06642  1.0000
  C   C412      1.0  0.57579  0.03040  0.02813  1.0000
  H   H326      1.0  0.73741  0.44177  0.32179  1.0000
  H   H327      1.0  0.95820  0.25910  0.33059  1.0000
  H   H328      1.0  0.55548  0.11463  0.02968  1.0000
  C   C413      1.0  0.99139  0.33739  0.13057  1.0000
  Fe  Fe25      1.0  0.84019  0.30057  0.01323  1.0000
  C   C414      1.0  0.94648  0.32568  0.33577  1.0000
  H   H329      1.0  0.60209  0.42622  0.34018  1.0000
  H   H330      1.0  0.99314  0.20392  0.15473  1.0000
  Fe  Fe26      1.0  0.51575  0.20532  0.33916  1.0000
  S   S52       1.0  0.81023  0.35530  0.02979  1.0000
  H   H331      1.0  0.50226  0.43676  0.01423  1.0000
  P   P14       1.0  0.55247  0.48447  0.31029  1.0000
  H   H332      1.0  0.70673  0.14417  0.33348  1.0000
  C   C415      1.0  0.52938  0.42894  0.34331  1.0000
  Fe  Fe27      1.0  0.84753  0.19730  0.61917  1.0000
  S   S53       1.0  0.80196  0.11652  0.64614  1.0000
  S   S54       1.0  0.92972  0.23061  0.59469  1.0000
  Fe  Fe28      1.0  0.75422  0.21450  0.61943  1.0000
  S   S55       1.0  0.70062  0.13474  0.64567  1.0000
  S   S56       1.0  0.72032  0.26581  0.60110  1.0000
  Fe  Fe29      1.0  0.73784  0.10390  0.60363  1.0000
  S   S57       1.0  0.69121  0.02351  0.57443  1.0000
  H   H333      1.0  0.61677  0.15607  0.61337  1.0000
  S   S58       1.0  0.78557  0.18190  0.57387  1.0000
  H   H334      1.0  0.82649  0.08684  0.50837  1.0000
  C   C416      1.0  0.74720  0.32960  0.62133  1.0000
  H   H335      1.0  0.81482  0.31710  0.55434  1.0000
  H   H336      1.0  0.77082  0.04879  0.38966  1.0000
  C   C417      1.0  0.74085  0.40863  0.63208  1.0000
  C   C418      1.0  0.72343  0.35993  0.61311  1.0000
  H   H337      1.0  0.72170  0.43134  0.62630  1.0000
  H   H338      1.0  0.69074  0.34516  0.59272  1.0000
  H   H339      1.0  0.53319  0.39782  0.46904  1.0000
  H   H340      1.0  0.62076  0.46728  0.50092  1.0000
  C   C419      1.0  0.67403  0.04381  0.45783  1.0000
  C   C420      1.0  0.68526  0.05389  0.49821  1.0000
  H   H341      1.0  0.67865  0.07515  0.43857  1.0000
  H   H342      1.0  0.69816  0.09268  0.51006  1.0000
  C   C421      1.0  0.49728  0.24820  0.61323  1.0000
  H   H343      1.0  0.77842  0.25670  0.36399  1.0000
  H   H344      1.0  0.56337  0.24361  0.44488  1.0000
  H   H345      1.0  0.61507  0.18375  0.39618  1.0000
  H   H346      1.0  0.88526  0.49210  0.37040  1.0000
  H   H347      1.0  0.90447  0.33952  0.57626  1.0000
  C   C422      1.0  0.78980  0.34919  0.64733  1.0000
  C   C423      1.0  0.91914  0.34686  0.35508  1.0000
  C   C424      1.0  0.85016  0.45489  0.37750  1.0000
  C   C425      1.0  0.86666  0.43457  0.53515  1.0000
  H   H348      1.0  0.86166  0.33478  0.39928  1.0000
  C   C426      1.0  0.79900  0.06256  0.44922  1.0000
  C   C427      1.0  0.86343  0.46596  0.56457  1.0000
  H   H349      1.0  0.92632  0.27345  0.47055  1.0000
  C   C428      1.0  0.56219  0.40790  0.35171  1.0000
  C   C429      1.0  0.69602  0.22276  0.37668  1.0000
  C   C430      1.0  0.78522  0.45822  0.53373  1.0000
  C   C431      1.0  0.58278  0.28412  0.64444  1.0000
  C   C432      1.0  0.67974  0.01357  0.52320  1.0000
  C   C433      1.0  0.51190  0.05581  0.54126  1.0000
  H   H350      1.0  0.72973  0.31865  0.52169  1.0000
  C   C434      1.0  0.85037  0.26888  0.47617  1.0000
  H   H351      1.0  0.57924  0.48261  0.56993  1.0000
  H   H352      1.0  0.89830  0.42559  0.53564  1.0000
  H   H353      1.0  0.75487  0.46885  0.53378  1.0000
  C   C435      1.0  0.82284  0.47777  0.56376  1.0000
  C   C436      1.0  0.78411  0.36583  0.35962  1.0000
  C   C437      1.0  0.57327  0.23297  0.65131  1.0000
  H   H354      1.0  0.57828  0.06425  0.50770  1.0000
  C   C438      1.0  0.65503  0.19295  0.40296  1.0000
  C   C439      1.0  0.66552  0.17485  0.43781  1.0000
  C   C440      1.0  0.71710  0.18720  0.44667  1.0000
  C   C441      1.0  0.75871  0.21761  0.42067  1.0000
  C   C442      1.0  0.74769  0.23477  0.38527  1.0000
  P   P15       1.0  0.82428  0.22997  0.43210  1.0000
  C   C443      1.0  0.81705  0.16543  0.43872  1.0000
  C   C444      1.0  0.97768  0.27890  0.66428  1.0000
  C   C445      1.0  0.71296  0.46378  0.42073  1.0000
  H   H355      1.0  0.63510  0.33392  0.43111  1.0000
  C   C446      1.0  0.78795  0.07753  0.41313  1.0000
  C   C447      1.0  0.79653  0.12860  0.40799  1.0000
  C   C448      1.0  0.87095  0.26627  0.39340  1.0000
  C   C449      1.0  0.54272  0.36122  0.37327  1.0000
  S   S59       1.0  0.59727  0.26610  0.35907  1.0000
  C   C450      1.0  0.82334  0.44987  0.41257  1.0000
  C   C451      1.0  0.92156  0.30986  0.52382  1.0000
  C   C452      1.0  0.54470  0.29175  0.62562  1.0000
  C   C453      1.0  0.88186  0.31750  0.38404  1.0000
  C   C454      1.0  0.55765  0.45897  0.63008  1.0000
  H   H356      1.0  0.63358  0.15101  0.45788  1.0000
  H   H357      1.0  0.72460  0.17265  0.47372  1.0000
  C   C455      1.0  0.78237  0.42722  0.65913  1.0000
  H   H358      1.0  0.78650  0.13919  0.38024  1.0000
  C   C456      1.0  0.60330  0.11254  0.55980  1.0000
  H   H359      1.0  0.80848  0.32637  0.65382  1.0000
  C   C457      1.0  0.68409  0.48900  0.41339  1.0000
  C   C458      1.0  0.89888  0.24544  0.37400  1.0000
  H   H360      1.0  0.72035  0.32456  0.40040  1.0000
  C   C459      1.0  0.81951  0.28236  0.49977  1.0000
  H   H361      1.0  0.56727  0.34378  0.37805  1.0000
  C   C460      1.0  0.90197  0.28387  0.48808  1.0000
  H   H362      1.0  0.65732  0.22801  0.53467  1.0000
  C   C461      1.0  0.53310  0.10499  0.60250  1.0000
  H   H363      1.0  0.84267  0.17678  0.49967  1.0000
  C   C462      1.0  0.52504  0.18901  0.64010  1.0000
  C   C463      1.0  0.78785  0.42624  0.50419  1.0000
  C   C464      1.0  0.82874  0.41429  0.50532  1.0000
  P   P16       1.0  0.73987  0.39992  0.46489  1.0000
  C   C465      1.0  0.68799  0.33324  0.47527  1.0000
  C   C466      1.0  0.70747  0.43792  0.45665  1.0000
  C   C467      1.0  0.67257  0.43792  0.48500  1.0000
  C   C468      1.0  0.58709  0.12746  0.59372  1.0000
  H   H364      1.0  0.57385  0.19050  0.49718  1.0000
  C   C469      1.0  0.64536  0.46507  0.47813  1.0000
  C   C470      1.0  0.51613  0.43234  0.65694  1.0000
  C   C471      1.0  0.64042  0.31154  0.45413  1.0000
  C   C472      1.0  0.59943  0.26032  0.46203  1.0000
  C   C473      1.0  0.60548  0.23035  0.49120  1.0000
  C   C474      1.0  0.65269  0.25154  0.51229  1.0000
  C   C475      1.0  0.69383  0.30288  0.50456  1.0000
  C   C476      1.0  0.77628  0.40299  0.42124  1.0000
  C   C477      1.0  0.75721  0.36060  0.39484  1.0000
  C   C478      1.0  0.89000  0.32144  0.54780  1.0000
  C   C479      1.0  0.81906  0.09881  0.48008  1.0000
  H   H365      1.0  0.89207  0.48099  0.58820  1.0000
  C   C480      1.0  0.54692  0.46095  0.59032  1.0000
  S   S60       1.0  0.81979  0.23601  0.66272  1.0000
  H   H366      1.0  0.77990  0.27203  0.49135  1.0000
  H   H367      1.0  0.83153  0.38947  0.48300  1.0000
  H   H368      1.0  0.66671  0.41726  0.51254  1.0000
  C   C481      1.0  0.83032  0.41305  0.35088  1.0000
  H   H369      1.0  0.55233  0.33141  0.62002  1.0000
  H   H370      1.0  0.59823  0.47985  0.63993  1.0000
  C   C482      1.0  0.83929  0.30830  0.53556  1.0000
  H   H371      1.0  0.64509  0.12875  0.55397  1.0000
  H   H372      1.0  0.67302  0.37541  0.36779  1.0000
  C   C483      1.0  0.98428  0.26735  0.62558  1.0000
  C   C484      1.0  0.82809  0.15005  0.47495  1.0000
  H   H373      1.0  0.60384  0.22785  0.66487  1.0000
  C   C485      1.0  0.56571  0.07634  0.53373  1.0000
  H   H374      1.0  0.79063  0.02243  0.45358  1.0000
  H   H375      1.0  0.89289  0.20693  0.38144  1.0000
  H   H376      1.0  0.73924  0.46472  0.39802  1.0000
  C   C486      1.0  0.80702  0.39759  0.66640  1.0000
  C   C487      1.0  0.49560  0.07039  0.57532  1.0000
  H   H377      1.0  0.62010  0.31786  0.65315  1.0000
  H   H378      1.0  0.96037  0.31877  0.53382  1.0000
  C   C488      1.0  0.65069  0.49017  0.44216  1.0000
  H   H379      1.0  0.83824  0.48339  0.43227  1.0000
  P   P17       1.0  0.51321  0.12288  0.64754  1.0000
  H   H380      1.0  0.93842  0.26450  0.67595  1.0000
  H   H381      1.0  0.57600  0.07063  0.66103  1.0000
  C   C489      1.0  0.49462  0.43692  0.57726  1.0000
  H   H382      1.0  0.52098  0.31040  0.48718  1.0000
  H   H383      1.0  0.68738  0.23652  0.34965  1.0000
  C   C490      1.0  0.49478  0.36649  0.47842  1.0000
  H   H384      1.0  0.92731  0.38628  0.34789  1.0000
  C   C491      1.0  0.93629  0.27503  0.34520  1.0000
  Fe  Fe30      1.0  0.53860  0.29120  0.94454  1.0000
  H   H385      1.0  0.62512  0.06730  0.71856  1.0000
  C   C492      1.0  0.57612  0.14083  0.75764  1.0000
  Fe  Fe31      1.0  0.88095  0.26104  0.94747  1.0000
  S   S61       1.0  0.79925  0.23391  0.97052  1.0000
  S   S62       1.0  0.90484  0.27313  0.88334  1.0000
  C   C493      1.0  0.70016  0.26094  0.71219  1.0000
  C   C494      1.0  0.77006  0.02960  0.94179  1.0000
  C   C495      1.0  0.71210  0.30233  0.99382  1.0000
  H   H386      1.0  0.80122  0.06987  0.81828  1.0000
  S   S63       1.0  0.92111  0.33206  0.98698  1.0000
  S   S64       1.0  0.89694  0.21023  0.98809  1.0000
  H   H387      1.0  0.78907  0.03924  0.91333  1.0000
  S   S65       1.0  0.74590  0.12995  0.74977  1.0000
  C   C496      1.0  0.67176  0.44510  0.71736  1.0000
  H   H388      1.0  0.66452  0.03441  0.83852  1.0000
  H   H389      1.0  0.91793  0.38385  0.89764  1.0000
  H   H390      1.0  0.54005  0.18723  0.90155  1.0000
  C   C497      1.0  0.77563  0.07015  0.96682  1.0000
  C   C498      1.0  0.69973  0.48679  0.74349  1.0000
  H   H391      1.0  0.79868  0.11086  0.95754  1.0000
  C   C499      1.0  0.85935  0.23382  0.84671  1.0000
  C   C500      1.0  0.80773  0.19454  0.85594  1.0000
  C   C501      1.0  0.77302  0.16330  0.82592  1.0000
  C   C502      1.0  0.78956  0.17138  0.78655  1.0000
  C   C503      1.0  0.84089  0.21115  0.77730  1.0000
  C   C504      1.0  0.87571  0.24200  0.80734  1.0000
  H   H392      1.0  0.79489  0.18779  0.88622  1.0000
  H   H393      1.0  0.73341  0.13264  0.83331  1.0000
  H   H394      1.0  0.85424  0.21734  0.74714  1.0000
  H   H395      1.0  0.91584  0.27170  0.80018  1.0000
  C   C505      1.0  0.59991  0.16627  0.91113  1.0000
  C   C506      1.0  0.66938  0.30094  0.97357  1.0000
  C   C507      1.0  0.57633  0.09121  0.68752  1.0000
  H   H396      1.0  0.72001  0.43284  0.96067  1.0000
  C   C508      1.0  0.59742  0.46029  0.71993  1.0000
  S   S66       1.0  0.62363  0.34878  0.93166  1.0000
  H   H397      1.0  0.57383  0.13092  0.92759  1.0000
  C   C509      1.0  0.71744  0.39638  0.97014  1.0000
  H   H398      1.0  0.49626  0.00016  0.73115  1.0000
  H   H399      1.0  0.68367  0.11002  0.97211  1.0000
  H   H400      1.0  0.68978  0.42326  0.70614  1.0000
  H   H401      1.0  0.69686  0.33029  0.69645  1.0000
  H   H402      1.0  0.66764  0.15612  0.91643  1.0000
  C   C510      1.0  0.55025  0.12044  0.68914  1.0000
  C   C511      1.0  0.66494  0.44603  0.84641  1.0000
  H   H403      1.0  0.69759  0.24747  0.68228  1.0000
  C   C512      1.0  0.82524  0.03151  0.73009  1.0000
  H   H404      1.0  0.63485  0.26352  0.96654  1.0000
  H   H405      1.0  0.91765  0.33404  0.75148  1.0000
  H   H406      1.0  0.52898  0.16643  0.72685  1.0000
  C   C513      1.0  0.67247  0.34811  0.96126  1.0000
  C   C514      1.0  0.69952  0.30733  0.72023  1.0000
  C   C515      1.0  0.50671  0.48081  0.72563  1.0000
  C   C516      1.0  0.70567  0.23250  0.74272  1.0000
  C   C517      1.0  0.70856  0.24910  0.78153  1.0000
  C   C518      1.0  0.70659  0.29501  0.78999  1.0000
  C   C519      1.0  0.70418  0.32517  0.75883  1.0000
  P   P18       1.0  0.71116  0.31655  0.84022  1.0000
  C   C520      1.0  0.69255  0.36692  0.84352  1.0000
  C   C521      1.0  0.66756  0.25873  0.86907  1.0000
  C   C522      1.0  0.61452  0.24419  0.87562  1.0000
  C   C523      1.0  0.58088  0.19806  0.89641  1.0000
  C   C524      1.0  0.49754  0.37215  0.77431  1.0000
  C   C525      1.0  0.65260  0.18045  0.90490  1.0000
  C   C526      1.0  0.68623  0.22628  0.88392  1.0000
  C   C527      1.0  0.72461  0.41445  0.86363  1.0000
  Fe  Fe32      1.0  0.76848  0.15360  0.68606  1.0000
  C   C528      1.0  0.99293  0.39974  0.76889  1.0000
  C   C529      1.0  0.63305  0.39917  0.82606  1.0000
  C   C530      1.0  0.64660  0.35971  0.82472  1.0000
  C   C531      1.0  0.77784  0.34155  0.85761  1.0000
  C   C532      1.0  0.81920  0.35195  0.83155  1.0000
  C   C533      1.0  0.86971  0.36777  0.84603  1.0000
  C   C534      1.0  0.87934  0.37371  0.88641  1.0000
  C   C535      1.0  0.83863  0.36437  0.91239  1.0000
  C   C536      1.0  0.78807  0.34818  0.89803  1.0000
  H   H407      1.0  0.62471  0.11095  0.78068  1.0000
  H   H408      1.0  0.57612  0.16004  0.78486  1.0000
  H   H409      1.0  0.70775  0.19751  0.73615  1.0000
  H   H410      1.0  0.71318  0.22646  0.80469  1.0000
  H   H411      1.0  0.70644  0.36268  0.76396  1.0000
  H   H412      1.0  0.59895  0.26854  0.86545  1.0000
  H   H413      1.0  0.84186  0.04764  0.70151  1.0000
  C   C537      1.0  0.80228  0.04405  0.79590  1.0000
  C   C538      1.0  0.64634  0.07579  0.98026  1.0000
  H   H414      1.0  0.72686  0.23622  0.87931  1.0000
  H   H415      1.0  0.75986  0.42123  0.87881  1.0000
  H   H416      1.0  0.64509  0.02978  0.93073  1.0000
  C   C539      1.0  0.96068  0.38240  0.70211  1.0000
  H   H417      1.0  0.59756  0.39324  0.81163  1.0000
  H   H418      1.0  0.62128  0.32361  0.80891  1.0000
  H   H419      1.0  0.81247  0.34672  0.80023  1.0000
  H   H420      1.0  0.59942  0.39903  0.68573  1.0000
  C   C540      1.0  0.75903  0.39784  0.99142  1.0000
  H   H421      1.0  0.84580  0.36832  0.94378  1.0000
  H   H422      1.0  0.75655  0.33990  0.91844  1.0000
  C   C541      1.0  0.82378  0.06456  0.75907  1.0000
  H   H423      1.0  0.57020  0.00759  0.83455  1.0000
  H   H424      1.0  0.60037  0.43840  0.92573  1.0000
  H   H425      1.0  0.60898  0.41552  0.99329  1.0000
  C   C542      1.0  0.95353  0.36883  0.74182  1.0000
  C   C543      1.0  0.60334  0.08819  0.72039  1.0000
  H   H426      1.0  0.83891  0.41161  0.68746  1.0000
  C   C544      1.0  0.62481  0.03040  0.95712  1.0000
  H   H427      1.0  0.79330  0.43544  0.99866  1.0000
  H   H428      1.0  0.83899  0.10608  0.75291  1.0000
  H   H429      1.0  0.71014  0.26600  0.00287  1.0000
  C   C545      1.0  0.71067  0.45366  0.86517  1.0000
  C   C546      1.0  0.62086  0.43191  0.70557  1.0000
  C   C547      1.0  0.75698  0.35098  0.00279  1.0000
  C   C548      1.0  0.49563  0.37372  0.73321  1.0000
  H   H430      1.0  0.90103  0.37369  0.82613  1.0000
  C   C549      1.0  0.61994  0.45588  0.98684  1.0000
  P   P19       1.0  0.52889  0.43680  0.70892  1.0000
  C   C550      1.0  0.60309  0.11279  0.75545  1.0000
  C   C551      1.0  0.54982  0.14469  0.72463  1.0000
  H   H431      1.0  0.65396  0.47621  0.84796  1.0000
  H   H432      1.0  0.72261  0.02461  0.72374  1.0000
  H   H433      1.0  0.91024  0.49041  0.74651  1.0000
  C   C552      1.0  0.61522  0.46887  0.94812  1.0000
  S   S67       1.0  0.80199  0.48491  0.68676  1.0000
  H   H434      1.0  0.98772  0.38874  0.79965  1.0000
  C   C553      1.0  0.75167  0.05791  0.00384  1.0000
  H   H435      1.0  0.94871  0.48697  0.91997  1.0000
  S   S68       1.0  0.50726  0.22109  0.98416  1.0000
  H   H436      1.0  0.51308  0.40814  0.79138  1.0000
  H   H437      1.0  0.73486  0.48955  0.88159  1.0000
  H   H438      1.0  0.93039  0.35794  0.68107  1.0000
  C   C554      1.0  0.63476  0.99633  0.84986  1.0000
  C   C555      1.0  0.77913  0.88170  0.06656  1.0000
  S   S69       1.0  0.55282  0.86419  0.32290  1.0000
  H   H439      1.0  0.67061  0.57796  0.02785  1.0000
  S   S70       1.0  0.67720  0.89868  0.31564  1.0000
  C   C556      1.0  0.65843  0.51221  0.22222  1.0000
  Fe  Fe33      1.0  0.60352  0.85089  0.27989  1.0000
  S   S71       1.0  0.59863  0.86775  0.21527  1.0000
  S   S72       1.0  0.58463  0.77272  0.30559  1.0000
  H   H440      1.0  0.69161  0.54643  0.20909  1.0000
  S   S73       1.0  0.62275  0.74099  0.07203  1.0000
  Fe  Fe34      1.0  0.80363  0.62046  0.26793  1.0000
  S   S74       1.0  0.88304  0.66440  0.29703  1.0000
  S   S75       1.0  0.74777  0.64782  0.24913  1.0000
  C   C557      1.0  0.59966  0.97926  0.17308  1.0000
  S   S76       1.0  0.88560  0.55350  0.29002  1.0000
  Fe  Fe35      1.0  0.90850  0.62479  0.25220  1.0000
  C   C558      1.0  0.72549  0.75824  0.33105  1.0000
  S   S77       1.0  0.83095  0.58691  0.22026  1.0000
  C   C559      1.0  0.99393  0.63078  0.11384  1.0000
  C   C560      1.0  0.68858  0.73029  0.30172  1.0000
  C   C561      1.0  0.69536  0.69579  0.27720  1.0000
  C   C562      1.0  0.73947  0.68956  0.28156  1.0000
  H   H441      1.0  0.58942  0.63279  0.04143  1.0000
  H   H442      1.0  0.64040  0.63107  0.18223  1.0000
  H   H443      1.0  0.65484  0.73522  0.29778  1.0000
  H   H444      1.0  0.66632  0.67400  0.25480  1.0000
  H   H445      1.0  0.75426  0.53563  0.03623  1.0000
  C   C563      1.0  0.60743  0.83320  0.17590  1.0000
  C   C564      1.0  0.61364  0.78944  0.18228  1.0000
  C   C565      1.0  0.61799  0.76153  0.15014  1.0000
  C   C566      1.0  0.61690  0.77739  0.11138  1.0000
  C   C567      1.0  0.61102  0.82133  0.10500  1.0000
  C   C568      1.0  0.60599  0.84886  0.13711  1.0000
  H   H446      1.0  0.61429  0.77657  0.21192  1.0000
  H   H447      1.0  0.62230  0.72748  0.15536  1.0000
  H   H448      1.0  0.61008  0.83397  0.07534  1.0000
  H   H449      1.0  0.60090  0.88243  0.13179  1.0000
  H   H450      1.0  0.96705  0.60081  0.09362  1.0000
  H   H451      1.0  0.61798  0.60299  0.11282  1.0000
  H   H452      1.0  0.93646  0.60529  0.16088  1.0000
  H   H453      1.0  0.85012  0.86381  0.28546  1.0000
  H   H454      1.0  0.73217  0.80963  0.09786  1.0000
  Fe  Fe36      1.0  0.80550  0.51908  0.26206  1.0000
  H   H455      1.0  0.83711  0.61061  0.06188  1.0000
  H   H456      1.0  0.76125  0.73947  0.07510  1.0000
  H   H457      1.0  0.77105  0.87307  0.29301  1.0000
  C   C569      1.0  0.75393  0.60083  0.13534  1.0000
  C   C570      1.0  0.80071  0.61974  0.11392  1.0000
  C   C571      1.0  0.80064  0.59616  0.07825  1.0000
  C   C572      1.0  0.75373  0.55365  0.06391  1.0000
  C   C573      1.0  0.70658  0.53404  0.08543  1.0000
  C   C574      1.0  0.70704  0.55796  0.12129  1.0000
  C   C575      1.0  0.93111  0.77639  0.12126  1.0000
  C   C576      1.0  0.85681  0.77885  0.15112  1.0000
  C   C577      1.0  0.97647  0.63324  0.15196  1.0000
  H   H458      1.0  0.67396  0.98256  0.18263  1.0000
  C   C578      1.0  0.86531  0.88985  0.10821  1.0000
  H   H459      1.0  0.70804  0.85012  0.23779  1.0000
  H   H460      1.0  0.67137  0.54399  0.13842  1.0000
  H   H461      1.0  0.51978  0.94886  0.01356  1.0000
  C   C579      1.0  0.82948  0.92526  0.06074  1.0000
  Fe  Fe37      1.0  0.85483  0.59045  0.33268  1.0000
  H   H462      1.0  0.63489  0.55855  0.25624  1.0000
  S   S78       1.0  0.77296  0.55016  0.30759  1.0000
  H   H463      1.0  0.91134  0.96385  0.07775  1.0000
  H   H464      1.0  0.89930  0.71224  0.20892  1.0000
  H   H465      1.0  0.75419  0.61941  0.16298  1.0000
  H   H466      1.0  0.83708  0.65244  0.12514  1.0000
  H   H467      1.0  0.67962  0.65695  0.05946  1.0000
  C   C580      1.0  0.77822  0.85912  0.26549  1.0000
  C   C581      1.0  0.54780  0.60580  0.03630  1.0000
  H   H468      1.0  0.58368  0.95986  0.20075  1.0000
  C   C582      1.0  0.83186  0.83517  0.22590  1.0000
  C   C583      1.0  0.77630  0.71705  0.31113  1.0000
  H   H469      1.0  0.95882  0.78625  0.09723  1.0000
  H   H470      1.0  0.52427  0.62947  0.08836  1.0000
  H   H471      1.0  0.57653  0.52453  0.06073  1.0000
  H   H472      1.0  0.49879  0.91250  0.08189  1.0000
  H   H473      1.0  0.72139  0.71456  0.19793  1.0000
  H   H474      1.0  0.83487  0.95607  0.04038  1.0000
  C   C584      1.0  0.74256  0.84585  0.23449  1.0000
  C   C585      1.0  0.82283  0.85383  0.26120  1.0000
  C   C586      1.0  0.89757  0.73463  0.18420  1.0000
  H   H475      1.0  0.53751  0.94828  0.27801  1.0000
  H   H476      1.0  0.83011  0.73695  0.20636  1.0000
  C   C587      1.0  0.76913  0.75120  0.33601  1.0000
  H   H477      1.0  0.89010  0.81150  0.09409  1.0000
  H   H478      1.0  0.86719  0.83244  0.22308  1.0000
  C   C588      1.0  0.89245  0.79118  0.11984  1.0000
  H   H479      1.0  0.81040  0.71232  0.31465  1.0000
  C   C589      1.0  0.87251  0.92949  0.08172  1.0000
  H   H480      1.0  0.70296  0.99535  0.04408  1.0000
  H   H481      1.0  0.96387  0.73699  0.15471  1.0000
  C   C590      1.0  0.85873  0.74909  0.18276  1.0000
  C   C591      1.0  0.59671  0.54106  0.33967  1.0000
  C   C592      1.0  0.93393  0.74849  0.15357  1.0000
  C   C593      1.0  0.62638  0.51891  0.24934  1.0000
  C   C594      1.0  0.77184  0.84212  0.09300  1.0000
  H   H482      1.0  0.89873  0.89438  0.12503  1.0000
  H   H483      1.0  0.66824  0.54221  0.32126  1.0000
  H   H484      1.0  0.74549  0.87880  0.05090  1.0000
  H   H485      1.0  0.72336  0.81676  0.17552  1.0000
  C   C595      1.0  0.68885  0.66909  0.08975  1.0000
  C   C596      1.0  0.65421  0.63881  0.11974  1.0000
  C   C597      1.0  0.66644  0.65496  0.15878  1.0000
  C   C598      1.0  0.71227  0.70244  0.16766  1.0000
  C   C599      1.0  0.74596  0.73414  0.13759  1.0000
  C   C600      1.0  0.73496  0.71627  0.09867  1.0000
  P   P20       1.0  0.80501  0.79532  0.14908  1.0000
  C   C601      1.0  0.81509  0.84519  0.11334  1.0000
  C   C602      1.0  0.79547  0.82046  0.19495  1.0000
  C   C603      1.0  0.75122  0.82673  0.19934  1.0000
  H   H486      1.0  0.54450  0.57840  0.29105  1.0000
  C   C604      1.0  0.50659  0.54349  0.28545  1.0000
  H   H487      1.0  0.50370  0.89292  0.22267  1.0000
  C   C605      1.0  0.51044  0.60421  0.06270  1.0000
  H   H488      1.0  0.50587  0.51815  0.10371  1.0000
  H   H489      1.0  0.50210  0.75092  0.18727  1.0000
  C   C606      1.0  0.65099  0.99224  0.16290  1.0000
  C   C607      1.0  0.65145  0.56103  0.33867  1.0000
  C   C608      1.0  0.56902  0.99010  0.14739  1.0000
  H   H490      1.0  0.52920  0.97945  0.15588  1.0000
  C   C609      1.0  0.56524  0.49927  0.08626  1.0000
  C   C610      1.0  0.49793  0.98595  0.25072  1.0000
  C   C611      1.0  0.54192  0.98428  0.26551  1.0000
  S   S79       1.0  0.99152  0.67538  0.22716  1.0000
  C   C612      1.0  0.98731  0.74955  0.48194  1.0000
  H   H491      1.0  0.56976  0.97043  0.54575  1.0000
  S   S80       1.0  0.60835  0.83110  0.39269  1.0000
  Fe  Fe38      1.0  0.76321  0.60193  0.59771  1.0000
  S   S81       1.0  0.83529  0.59842  0.61482  1.0000
  S   S82       1.0  0.73217  0.59408  0.53543  1.0000
  C   C613      1.0  0.66255  0.96314  0.50751  1.0000
  H   H492      1.0  0.69213  0.66860  0.39711  1.0000
  H   H493      1.0  0.59373  0.94284  0.60611  1.0000
  S   S83       1.0  0.78619  0.67546  0.63265  1.0000
  S   S84       1.0  0.71257  0.54725  0.64588  1.0000
  H   H494      1.0  0.59523  0.63125  0.40237  1.0000
  S   S85       1.0  0.87466  0.58831  0.39667  1.0000
  C   C614      1.0  0.83411  0.58970  0.43450  1.0000
  C   C615      1.0  0.84317  0.58014  0.47324  1.0000
  C   C616      1.0  0.81259  0.58217  0.50421  1.0000
  C   C617      1.0  0.77196  0.59285  0.49678  1.0000
  C   C618      1.0  0.76254  0.60206  0.45793  1.0000
  C   C619      1.0  0.79380  0.60086  0.42690  1.0000
  H   H495      1.0  0.87389  0.57104  0.47951  1.0000
  H   H496      1.0  0.82021  0.57486  0.53378  1.0000
  H   H497      1.0  0.73111  0.61016  0.45172  1.0000
  H   H498      1.0  0.78680  0.60844  0.39714  1.0000
  C   C620      1.0  0.65228  0.95334  0.46707  1.0000
  H   H499      1.0  0.53956  0.66519  0.65035  1.0000
  C   C621      1.0  0.55369  0.91972  0.59581  1.0000
  H   H500      1.0  0.65764  0.93156  0.52668  1.0000
  H   H501      1.0  0.63990  0.91456  0.45537  1.0000
  H   H502      1.0  0.68924  0.50916  0.38577  1.0000
  H   H503      1.0  0.93889  0.66694  0.60235  1.0000
  H   H504      1.0  0.58791  0.73724  0.45654  1.0000
  C   C622      1.0  0.53722  0.79672  0.65563  1.0000
  H   H505      1.0  0.93122  0.70997  0.43463  1.0000
  S   S86       1.0  0.93654  0.73731  0.66167  1.0000
  C   C623      1.0  0.93718  0.72583  0.46413  1.0000
  C   C624      1.0  0.99028  0.59500  0.47094  1.0000
  P   P21       1.0  0.53119  0.85472  0.66247  1.0000
  C   C625      1.0  0.57513  0.74297  0.67560  1.0000
  C   C626      1.0  0.50096  0.75493  0.63187  1.0000
  C   C627      1.0  0.97869  0.69461  0.61091  1.0000
  C   C628      1.0  0.64034  0.92383  0.66361  1.0000
  H   H506      1.0  0.86464  0.73269  0.53967  1.0000
  C   C629      1.0  0.50936  0.76373  0.53300  1.0000
  C   C630      1.0  0.50228  0.70793  0.62967  1.0000
  S   S87       1.0  0.64705  0.98351  0.39060  1.0000
  C   C631      1.0  0.89891  0.73811  0.52344  1.0000
  H   H507      1.0  0.64159  0.90513  0.63648  1.0000
  H   H508      1.0  0.56358  0.58968  0.62558  1.0000
  Fe  Fe39      1.0  0.62497  0.90505  0.36130  1.0000
  S   S88       1.0  0.71813  0.80243  0.36159  1.0000
  Fe  Fe40      1.0  0.78704  0.54943  0.66551  1.0000
  H   H509      1.0  0.53449  0.80110  0.54751  1.0000
  H   H510      1.0  0.95302  0.55844  0.46782  1.0000
  H   H511      1.0  0.68298  0.78580  0.44158  1.0000
  H   H512      1.0  0.58544  0.64163  0.56465  1.0000
  C   C632      1.0  0.53273  0.58172  0.60445  1.0000
  H   H513      1.0  0.82373  0.78984  0.67121  1.0000
  C   C633      1.0  0.94841  0.76177  0.54144  1.0000
  H   H514      1.0  0.98459  0.58347  0.66459  1.0000
  C   C634      1.0  0.66532  0.63206  0.38230  1.0000
  C   C635      1.0  0.53929  0.70196  0.65153  1.0000
  C   C636      1.0  0.99277  0.64308  0.46336  1.0000
  C   C637      1.0  0.89346  0.72067  0.48469  1.0000
  C   C638      1.0  0.58921  0.67075  0.48350  1.0000
  C   C639      1.0  0.62075  0.64807  0.49100  1.0000
  C   C640      1.0  0.67483  0.67609  0.48252  1.0000
  C   C641      1.0  0.69735  0.72594  0.46510  1.0000
  C   C642      1.0  0.66569  0.74757  0.45583  1.0000
  C   C643      1.0  0.61176  0.71997  0.46461  1.0000
  C   C644      1.0  0.54511  0.61051  0.56942  1.0000
  H   H515      1.0  0.74205  0.79401  0.66094  1.0000
  H   H516      1.0  0.72785  0.62282  0.35757  1.0000
  C   C645      1.0  0.54002  0.93601  0.56137  1.0000
  H   H517      1.0  0.85501  0.70204  0.47082  1.0000
  P   P22       1.0  0.51989  0.63619  0.49612  1.0000
  C   C646      1.0  0.52853  0.72963  0.52451  1.0000
  H   H518      1.0  0.73915  0.74753  0.45807  1.0000
  H   H519      1.0  0.60394  0.60908  0.50377  1.0000
  H   H520      1.0  0.69937  0.65918  0.48950  1.0000
  H   H521      1.0  0.95739  0.64293  0.45415  1.0000
  Fe  Fe41      1.0  0.85447  0.66734  0.65360  1.0000
  H   H522      1.0  0.56831  0.74068  0.53333  1.0000
  C   C647      1.0  0.49639  0.68170  0.50493  1.0000
  H   H523      1.0  0.49907  0.65913  0.41694  1.0000
  H   H524      1.0  0.63009  0.51165  0.43684  1.0000
  C   C648      1.0  0.98867  0.73391  0.63848  1.0000
  C   C649      1.0  0.68553  0.60646  0.35976  1.0000
  H   H525      1.0  0.82008  0.50153  0.58687  1.0000
  H   H526      1.0  0.72385  0.98008  0.66216  1.0000
  C   C650      1.0  0.61076  0.61114  0.38497  1.0000
  C   C651      1.0  0.57649  0.56528  0.36423  1.0000
  C   C652      1.0  0.99244  0.76759  0.52086  1.0000
  H   H527      1.0  0.53436  0.54964  0.36650  1.0000
  C   C653      1.0  0.51574  0.87512  0.61643  1.0000
  H   H528      1.0  0.79778  0.77277  0.35873  1.0000
  C   C654      1.0  0.50547  0.59949  0.54152  1.0000
  H   H529      1.0  0.95251  0.77479  0.57171  1.0000
  Fe  Fe42      1.0  0.65492  0.82119  0.34442  1.0000
  C   C655      1.0  0.65819  0.99370  0.44194  1.0000
  Fe  Fe43      1.0  0.53986  0.78961  0.35137  1.0000
  Fe  Fe44      1.0  0.56259  0.75903  0.93629  1.0000
  S   S89       1.0  0.57691  0.69826  0.96455  1.0000
  Fe  Fe45      1.0  0.67653  0.84436  0.94231  1.0000
  S   S90       1.0  0.70040  0.79125  0.97204  1.0000
  S   S91       1.0  0.73453  0.92672  0.92210  1.0000
  Fe  Fe46      1.0  0.64966  0.73122  0.92654  1.0000
  S   S92       1.0  0.68252  0.68269  0.89859  1.0000
  S   S93       1.0  0.63087  0.78657  0.89455  1.0000
  S   S94       1.0  0.60649  0.82163  0.98150  1.0000
  H   H530      1.0  0.71476  0.83826  0.70967  1.0000
  S   S95       1.0  0.81100  0.61843  0.70613  1.0000
  S   S96       1.0  0.68264  0.63774  0.71530  1.0000
  C   C656      1.0  0.68491  0.67460  0.84710  1.0000
  C   C657      1.0  0.72293  0.66369  0.83146  1.0000
  C   C658      1.0  0.72396  0.65403  0.79098  1.0000
  C   C659      1.0  0.68597  0.65373  0.76590  1.0000
  C   C660      1.0  0.64826  0.66504  0.78152  1.0000
  C   C661      1.0  0.64800  0.67594  0.82181  1.0000
  H   H531      1.0  0.75167  0.66257  0.85078  1.0000
  H   H532      1.0  0.75358  0.64597  0.77933  1.0000
  H   H533      1.0  0.61869  0.66480  0.76242  1.0000
  H   H534      1.0  0.61822  0.68372  0.83356  1.0000
  C   C662      1.0  0.86883  0.75091  0.80105  1.0000
  C   C663      1.0  0.74048  0.97678  0.95369  1.0000
  H   H535      1.0  0.56257  0.94952  0.95173  1.0000
  H   H536      1.0  0.62684  0.53104  0.90825  1.0000
  H   H537      1.0  0.90993  0.64272  0.88181  1.0000
  H   H538      1.0  0.62449  0.89088  0.89941  1.0000
  C   C664      1.0  0.76190  0.83218  0.85161  1.0000
  C   C665      1.0  0.78311  0.82664  0.88683  1.0000
  C   C666      1.0  0.82705  0.86994  0.90349  1.0000
  C   C667      1.0  0.85086  0.91863  0.88434  1.0000
  H   H539      1.0  0.60081  0.82049  0.69785  1.0000
  C   C668      1.0  0.65474  0.54707  0.00594  1.0000
  C   C669      1.0  0.57639  0.79686  0.78964  1.0000
  C   C670      1.0  0.83039  0.92418  0.84875  1.0000
  H   H540      1.0  0.85158  0.87374  0.77982  1.0000
  H   H541      1.0  0.72776  0.79793  0.83957  1.0000
  H   H542      1.0  0.76505  0.78881  0.90153  1.0000
  H   H543      1.0  0.84240  0.86578  0.93134  1.0000
  C   C671      1.0  0.92104  0.71520  0.77414  1.0000
  C   C672      1.0  0.65018  0.55998  0.96717  1.0000
  H   H544      1.0  0.69812  0.54706  0.77857  1.0000
  H   H545      1.0  0.91799  0.61861  0.94996  1.0000
  C   C673      1.0  0.71614  0.96456  0.99054  1.0000
  C   C674      1.0  0.65027  0.96373  0.86829  1.0000
  C   C675      1.0  0.92731  0.73688  0.84330  1.0000
  C   C676      1.0  0.90835  0.59583  0.78668  1.0000
  H   H546      1.0  0.85038  0.96208  0.83420  1.0000
  Fe  Fe47      1.0  0.74075  0.62099  0.68247  1.0000
  C   C677      1.0  0.99299  0.67567  0.86822  1.0000
  C   C678      1.0  0.53581  0.53460  0.71581  1.0000
  C   C679      1.0  0.61224  0.91546  0.88419  1.0000
  C   C680      1.0  0.55858  0.89923  0.88113  1.0000
  C   C681      1.0  0.60420  0.85177  0.79330  1.0000
  H   H547      1.0  0.94454  0.74048  0.87203  1.0000
  H   H548      1.0  0.58230  0.72704  0.78219  1.0000
  C   C682      1.0  0.82710  0.85640  0.75414  1.0000
  H   H549      1.0  0.88011  0.60749  0.79547  1.0000
  H   H550      1.0  0.69391  0.92406  0.00016  1.0000
  C   C683      1.0  0.59210  0.90743  0.68295  1.0000
  C   C684      1.0  0.88475  0.73251  0.76898  1.0000
  P   P23       1.0  0.75914  0.88796  0.78585  1.0000
  C   C685      1.0  0.96282  0.62986  0.79206  1.0000
  C   C686      1.0  0.84273  0.83208  0.72606  1.0000
  C   C687      1.0  0.92500  0.52911  0.75949  1.0000
  H   H551      1.0  0.87876  0.76875  0.86280  1.0000
  H   H552      1.0  0.67978  0.92188  0.79543  1.0000
  H   H553      1.0  0.58310  0.87294  0.79748  1.0000
  H   H554      1.0  0.53889  0.60958  0.71715  1.0000
  C   C688      1.0  0.78261  0.99054  0.80393  1.0000
  C   C689      1.0  0.88969  0.54599  0.76993  1.0000
  H   H555      1.0  0.60783  0.52289  0.75965  1.0000
  C   C690      1.0  0.63022  0.52086  0.93828  1.0000
  H   H556      1.0  0.88488  0.95231  0.89729  1.0000
  C   C691      1.0  0.67652  0.51487  0.75822  1.0000
  C   C692      1.0  0.94154  0.71592  0.81156  1.0000
  C   C693      1.0  0.78017  0.85782  0.74907  1.0000
  H   H557      1.0  0.93285  0.70107  0.74883  1.0000
  C   C694      1.0  0.78484  0.88129  0.83251  1.0000
  H   H558      1.0  0.69186  0.97639  0.87122  1.0000
  H   H559      1.0  0.53363  0.77525  0.79110  1.0000
  C   C695      1.0  0.58110  0.98052  0.84714  1.0000
  C   C696      1.0  0.94819  0.65110  0.89256  1.0000
  C   C697      1.0  0.89049  0.75359  0.83811  1.0000
  H   H560      1.0  0.67967  0.77557  0.77960  1.0000
  C   C698      1.0  0.68751  0.85253  0.78761  1.0000
  C   C699      1.0  0.65945  0.87952  0.79231  1.0000
  C   C700      1.0  0.57865  0.98516  0.96911  1.0000
  H   H561      1.0  0.66244  0.60046  0.95932  1.0000
  C   C701      1.0  0.63915  0.97391  0.73315  1.0000
  C   C702      1.0  0.78403  0.95700  0.77499  1.0000
  H   H562      1.0  0.83992  0.76335  0.79713  1.0000
  H   H563      1.0  0.86899  0.73153  0.73998  1.0000
  C   C703      1.0  0.65909  0.79734  0.78349  1.0000
  C   C704      1.0  0.95240  0.63679  0.93103  1.0000
  H   H564      1.0  0.55604  0.91928  0.73462  1.0000
  C   C705      1.0  0.54243  0.93094  0.86154  1.0000
  H   H565      1.0  0.76674  0.97535  0.83288  1.0000
  C   C706      1.0  0.60384  0.76969  0.78463  1.0000
  Fe  Fe48      1.0  0.62611  0.76308  0.00757  1.0000
  C   C707      1.0  0.57384  0.78999  0.67797  1.0000
  C   C708      1.0  0.80530  0.97787  0.73791  1.0000
  H   H566      1.0  0.56057  0.57745  0.98134  1.0000
  H   H567      1.0  0.87880  0.83077  0.73014  1.0000
  C   C709      1.0  0.59209  0.93210  0.71835  1.0000
  H   H568      1.0  0.80693  0.95309  0.71504  1.0000
  P   P24       1.0  0.98685  0.69150  0.81789  1.0000
  H   H569      1.0  0.57347  0.55052  0.70085  1.0000
  H   H570      1.0  0.52985  0.86222  0.89463  1.0000
  C   C710      1.0  0.75031  0.83640  0.71475  1.0000
  C   C711      1.0  0.76580  0.81164  0.68694  1.0000
  H   H571      1.0  0.84770  0.52028  0.76506  1.0000
  C   C712      1.0  0.53152  0.57486  0.00236  1.0000
  H   H572      1.0  0.97393  0.56015  0.87259  1.0000
  C   C713      1.0  0.97913  0.56214  0.76584  1.0000
  C   C714      1.0  0.68650  0.99125  0.71284  1.0000
  H   H573      1.0  0.51551  0.94995  0.78018  1.0000
  C   C715      1.0  0.51612  0.56811  0.72466  1.0000
  H   H574      1.0  0.60339  0.73797  0.69293  1.0000
  C   C716      1.0  0.55436  0.98500  0.00449  1.0000
  C   C717      1.0  0.62531  0.50134  0.74693  1.0000
  C   C718      1.0  0.81183  0.80924  0.69269  1.0000
  H   H575      1.0  0.73946  0.49735  0.75224  1.0000
  C   C719      1.0  0.98694  0.50499  0.90559  1.0000
  H   H576      1.0  0.63914  0.99354  0.76010  1.0000
  C   C720      1.0  0.68718  0.96604  0.67824  1.0000
