data_image0
_chemical_formula_structural       HSHFeS2FeSFeS3FeS2FeHSFe2HCS2FeCSHCH2CH2C2H3CH3SH2C3FeS2FeS2FeSFeS3H3C6H2CH2SC2H2C5HC4HCH2CHC7H4C6H4C6H2CH3C8H3SCH2FeHCHCHCHCH2C2HC3HCH2C3H3CH3C2H3CHC4HCHCHCSHC2HC2HC7HC2H2CHC4HPC2HSH4CH4C2H2C2HCHPH4C3HSH2CH4C2HSHCPSC4SCHCH2C2HCHCH3C5HPC5H2C3HSC2H2C5HCH2CH2C2HC3HCHCH3C8H5C5SH4C4H3C5HC2HCHC2HCFeH3C2H5PH4C5H2C4H2SCHCHFeCSFeC3FeHS2FeS2FeS2FeSFeS3FeHFeS2FeS2HCFe2S2CFeCHSH3CH5C7HCH2C7H4C5SCHC2H2C6H4C4HCHCHSC8H2C3HC4H2CH3CHC2H2C2HC8HC2HSH6C3SH2CH3CH2C4SC4HCSHC5H4C7H2CH2CHSH5C3HCHCH2CH2FeSHC2PCHCH3C2H2C2HC3HC2HC5H3CH5C2HFeH3CH2CHC5PH2C2H3C2SHCHC3SHCHC5HPC2HC3H5C4H3C3HC15HCH2CHSH3CH3CHFeHSC2HC2SC7H2CH2CH4C9PC18H19CHCHPH3C2HSHCPCPH2C2HCH2CHC3H2CH2C2HCHCSCH4CHC2FeHC3HPH2FeC4PC3HFe2CH3C2H2C2H3CFeCHCHC3HCHC3PHC7HFeS2H3CFeSFeS2Fe2S2C2HCHSCHSFeS2FeS2FeSFeS3FeS2FeS2FeSFeS3HC2SCSPHC2HCH3C2HC6H4C6H4C6H4CHC7H2CHC6H4CHC5HC2HC4H3CHCFeHC2HFeCH4CH2C2HCHC2H3CH3CSC2HC3HC2H2C5HC2HCHCHCPHC6PC11HC7H10CHSH5C3HCHSCHC2SH4C4HC3HCH3CHC4H3PCFeH2CHC3SH6CFePHCHSC2H3CHC2HCHC2HCHC7PC5HC8HC3H6CH9SH2C2SHCHC2HCHC6PC16H22C2H4C2H3SC3HC2H4CFeC2SC4H2C2HCHCHCH2PC11H2CHC5PC3H2CH3CH2C2H4CSC2HSCHC3H2C4HC5HC2HCHCHC2H2C2HC2H4C2H3CHSHC4SCH2C2HCHC2HC3H4CHCH2C3H2CH2CH2CPCHCHCH2SH2CH3CHC2PHC3H4C2H2C2HCH2C2H2CH2C5HPC3HC3HC3HC4HCH2CH3CH6SHC3H6C4HCSH3C2H2CHCSCH2SC6HC4FeSFeS2Fe2S3FeHFeS2FeH2S2HFeS2HCSC5FeC2FeS2FeHCFeCFeS3C2H2C3SHC3HCH2C2HSCHC2H4C6H4C3H5CH3CH3C6H6C2H2CH5CHC2HCHCHCHCH6CH2FeH2C3HC8H5C3HCH2C7H2C2HCH4CH2CSPCHC2HC3SCH3CHFeC6H3PCSHCH2C3H2CHC2H3CH2C4SFeCHSCHC3H3C4HCH4C2HC3H2C5H2SC3HFePH2CH2C2HCH2C2HCPC3H2C4HC3HCHC2HCH4C2HCH3CSHCHCSC3HCH2CH3SH2C2H3CHC2HCH3CH2CHC6PC7HCH2C2HCH3C2H2FeH5C2HC2HC3HC5H5C3PC13HC2H5CH2CH7C4PC8HCHC3SCH6C4HCHCH2C2H2CH2PHSCH2C5H2CH2CHCH4C2PH3CH3FeS2FeS2FeSFeS3CSFeS2FeSFeS3FeCSH3C2FeCH2PC2FeSHSCHC7H3C2SC6H3C3HCH4C6H4C6HCH2C6H4C6H4CSH3C6H2C2HCH2CHCH4C2H2C3HCH3C3H2C2H3FeHC2HP2HCHFeHC4HC2HSHCSCH3C3HCHCHC3HC5PC3H3C7H4CH5CHC3H5CH5CH2C3HCSC5HC4H4CHCHC8HCHCHPC2PHCHPC2HC5H2C2HCHC2HC3HC8HC2HCHC2SC5HCHCHCSC3H4C3HCH2SHC4H3PC3HSC3HPHC3HC5SCHC3HCH6C3H2CH2CHCHC2HCHC3H3C6HCH2CH3CHCH2CHC3HCSC3H3C5H4SH2C5SHCHPHC2HC2H2C2H2CH3C3HC3FeH5C2HCHC2H2CHC3SHC3HC3H2SCH2C2H3C3SCHCHFeSHFeS2HSFeSHSFeS2FeS2FeSFeCS2CSCFeSH2FeCSFeS2FeCHCS2HCHFeS2FeSFeSFeHS2HPCH2C4H2C2PH4CH2CH3C2SCHCHCHC2SCHC6H4C4HCH4C6H4CH2CHCH2C6H2CHC6H4CHSHFeCHC2HC2PSHC2HCSC5HCH2CSH2SC2HC2HCHC3SH7PC2FeHS2FeHC2H3SCH3CHCFeCH2CH2C2HC3HCPHFeC2HC2HCFeCHC3HC5HC4HC3HC2HCFeH2CH2C2HCHCHC6H3SHC2H6C2HC2HC2HC3H3C2HCHSH2C4FeC2HC2H6SC2HC2PC11HC8HC2H7C2H2CHCH4C2HC4H2C2SHCHCPH3C3H6CSH3C4H4CHCH2C2HC2H5CH2CHC4H2CHCHCS2C2FeSHCSCSH5CFeS2CH2SCFeS3HCHFeSHFeSCFeS2CHFeCS2C6H6CFeC2HC2HC4HCH3PC2H2CHCH4CFeC8H4C2HCHCHS2C3HCH2C6H2C9SHCHC3H2FeCHCH4C3H2S2CHC2H2C5SCH2CHC2HCHC3SHSCFeHCSH3C8H8PC8H2C2H2CH4CH2CHCHC5H2C2SC2HCHC2H7CSHC4PC9H3SH6CHSCHC3HC4HC8SC2H7SHSCH5SC5H3CHCH3CSH2CHCH2C2HC3HC4HFeHCH2FeCHFeH2C2H2SCHCH2CHC4HC2SC3H2CH2CHCFeC6H3CH2C2HPCSCH2C3H4C2FeHCPC3PCH2C3HC2HPC3HC4HCHSCH2CH4CSFeH3CH2PFeCFeH2C2H2CH2CHC2HC4SH2C2H2CFeCHFeC2H2CH2C2HCHC2HCSC2HC8H2C2H5CSC3HC2H2SHCPC3HFeHCH2C3H2C3FeS2FeS2FeSFeS3HC3HSFeSH3FeHSHC2HSHPSCHC2FeSH2FeS2FeS2FeSFeCS3FeS2FeS2FeSFeS3C2HC3H4C6H3C7H4C6H8C3HCHC4H7C6H4C7H4C6H5C2H2C3HC4H3CHC4H2C2HPHCHCHC2HC4HCPC8PC3H2C13H6C2H12C2H3CHC2HCHC9PC2HPHCHC8H2CH18CHCHCH2CH3CH2CHCH4C2H2FeH2CHCH2C3SC4H6C2H3C2H2CH3SHCHC5H4C6PC4H2C6H7CPH4C11H4CH4CH2CH2C3HC8H3CH4C7PC2HC4HC7H5CH6CHC4H3CPCHC9HC6H3C2HCH2SHCH6C5H4C3HC4HC3S2C7H3CHFeC2HC7H2C2HC3PHC4HC3H2CFeCH2CPCH2C3H3C5H8C2HCHC3H2C2H2C7HCHC2H2C2HCHCH2PHC2HC6HCHC3H2C2HCHCHC2FeH2C3HC7HC3H2C4SPC4HC3H2CHCH3CHC3HC3H4CPCH3C2HC3SCSHPC3FeH2CHSCHCHC3H2CHCHSH2CH7C2H3C3H2C5H2CPHC4H3C10HC2HCSHC2H2C3HCH2C4PH2CH2CHCHSCH2PCH2CH2SHC3H3C2HC2H2C2SHCH3CH2CH2C2HCHC2HC3H2CH4SH2SHC5H5CS2C2HCHCH2CHC3HFeS2FeS2FeSFeHS3H5FeS2HSFeCFeSCS2CHC2H4CFeC3SC3H2PSHCSC2HCH2CH4C2HCSC3H2CH3C5H3C2HCH2FeHFeHSCHCH2C6H5C3H2C2FeC3H2CHCHCH3CH2C3FeCHC3HCHSHSC5HSHCHCHC2HCHCH2S2HSCHCFeCHCH2C5HCH2CHC2HC4HC2H9C2FeC3SC4HCHPHCFeHC2FeHC2HFeH3C4SPC12PH5CHC2H2CHSCH2C2HCHPCH2C2HCH2C3HC2HCHCH6CHS2HC3HCSHC2H2C3FeC4HCH2C3HC2HFeC2HCHCHC2HCHPC3HSCH2CHCFeSHCFeS2FeSHFe2S3FeS2FeS2HCFeS3FeS2FeSCFe2SHSC2SCHFeS2FeS2FeSFeS3HC6H4C4HCHC2HCHC9H4C6H5C6H4C4H2C6H2CHC6H10CHC2HC2HC2HPC16H6C2H7CH2C5HCHCHCHCH2CH3CHC3H3CHC4H2C3HSH2C19HC3H7CH3C2H2C2PC10HC7HCHCH10CH5C6PC18H15C2H3CH4CHC2HCH4C3H2C4HCH2C3SCSHC3HCHCH2CPCHC3H2PCSCHCHC2HFeHCH6C2HCHC2SC2H3C2HCSH2C2H2CH4CHC2HCH2C4HC2H2CHC4PH2C3HC3H2C2HCH2C2HC4H2C2HC6PCH2C5HSCSH8CH5CHC2H2C2H2C2H3CH3C2HCH3CHCHCHCHCSC2HCH2CHCHC6HCH2PHCHCH3C2HC4HCH2CHFeSCFeS2FeSFeS3HCFeS2FeS2FeCFeS3FeHSFeCSHFeSHSC3FeS2C2SCSC5FeS2FePHSHC5H2CH2C3H2CHC4H2SHC6H2C5H2C2Fe2C7HCH2FeSHC2HC2SC2HC5H3C6H4C6H4C6H5C2HC2PC2HC6H7C2HC4H2CHC4H2CH5CFeCH4CHCH2SHCHCH3PCHCHCH2CH4CSCHC3PCHC2H2C2HPC4H2CH2SC3HSC3H3C6PC18H20CHCHCPCHSC2H4CH2SCFeC2HCH3C2HC2H2CSH2C5PHC2HCHSCSHC2HCH4CFeCFeHC3HCFeH3C2H2C4H7CH3PC3H3CHC3HCH2CH4C2SH2C7HC2HC2HCH2C2H3CH3CSCPCHC7HCHC2HC5HSHC2H3C8H2C2SCHCHCH2C4HCH3CH2C2HCSC3H2CHSCHC4HFeHCSC2H2FeH5CHC6H2CHC3HCHCH3FeCHC2HCH2C3PHC2SH2C2HC2H2C3HSC2HC3H2CPHCHCHCHSHC2HC12H3C4H2C3HCSH4FeC2HSFeHCHPC2HCHC3HC2HCHFeS2H2FeSFeCSHC2H2CH5CFeS2CSHFeSH2C5S2FeSCFeS2HSCFeSFeCS2FeHFe2S2FeSH2S2HC4HCH2FeH4CH5CH3C8H4C8H2CHCHCHC6H4C7H4C6H5C2H3C3HC2HCH2CH2C2HCSHC3HCSHC4H2C4HC2SFeHCHFeCHCFeCFeH2CHSFeCH3C3HSCH2C4SCHC2SPC19H11SCHC4HC2HC4HCHCH2C2H2PC2H2C3HC5SHPC3HC3SHC3H2C2H2SH4C3H2C3HCH5CPSH2SH3CHCHCSH2CH2C4H2CHFeC2SHC5H2CH4PC2HSC2H2CHC2H4CH2CH3C2H5CH2C4SHCH3CH3C2H2C4SC4H3PC6SCFeCFeS2Fe2S5HC2FeHCHFeSCSHSCFeS2FeS2FeSFeS3FeS2FeS2FeHFeS3C6H4C6H6C2H3CFeCH4C2HC2HC4HCH2CHC6H4C6H4C2HC2H3C2HCHC2HC7H2CHC6PHC2HSFeC6PC20H8CSH7FeHCHC2H4CH2CHC2HSHCH3CHC2H3C5H2C2FeH2C2H4C2HCH2SC5PC7HSC2HC4H2SC2H7CH2CH2CH3C3SH4CH7CH2CH2CHC3HC2H3PC5HCH2C3H2CHC2PCH2CHCHCHC3FeCHC4HFeH3C2H3C2HC3H3PH3CHCPCH2C4FeC8PHCH3C2H2C3FeCSH4CH3C3HC4HSC3SHC2HC3HCHC2H2C2H2CHCHC2HCHCHSC8HCH2SHCHCH2C3HCHCHCHC2HCHCH3C2HCHCH4CH2CH2CHCSC2H2SHC2HCH2FeS2FeS2FeSFeS3HCH2C2HC2H5C2H3CH3C2HC3HCHCSCH3C2HC2H2C2HC5H2SH7CHCH2C2HSC6HC2H2FeHC2H2CHCH4C3H2CH3SCPCHCHC2HCHCHSFeHCH2C4PCH2PHC2HCSCHC2H3C7H3C4HCH2C2S2CH2CHSC3HC2H2CHCHFeHC3H2C2H4C2HC3HC2HC2HCHC4HCHC4HC2HC2HCHC2HC3HCH2CHSH2CHCHC3SFeHSC3HCH3CHCH2C2HCHC2HC2H2C2FeHC3FeC6PHC3H2CHCPCSC4H2CHCH3SC4SCHC2HC5H2PC4H2C2HCHCHCHCH2C2H3C2HCHC5HCFeC2H2CH2CH2C2H3CHCH3PC3SH2C3HCH2C2HC3HCHCHC2SHCHCH4CHC3HC2HC2HC3H3C2HSCHCHFeS2FeS2FeSFeS3HSFeS2FeS2FeSFeS4FeSCH2FeS2C2H2SCFeS2FeS2FeSFeS4FeS2CHPC6H4C6H2SC5H2C5H2PHCSHCHSC4HC2H3C6H4C6H4C6H4C6H4C6H4C6H5C4H5C2H4C2H3CHC2HCHCH2FeC4HCH2CH3CHCH2CHC2SCHC3HCH2PCHCH5C7H2PCHCH3C3FeC2H4C3H3CH3PC4HC6HC2HC4HCHC4H3C3PHC2H3C2HCHC3HCHCH3C2HCSFeC2HCHCSC3HC2HC2HCH2CH2CSCH2C2PC3HCHC4HC7HC2HC5H3C2H6C10PC3H4CH4C7PC13H8SH7C11HCFePHCHCH7C3HC4HC8H7FeC2H2PCPSHCHC2H2CH3CHC2HC4HC2FeH2CHCHCH2S2C2H2CSFeHCH2SC4FeC3H2CHC2HC6H3C2H2CH2CH6C3H2C3H2CHCH8C3HC2H2C2HCHC4HC2HFeH2C2HC2HC3HC5HC2HC6H4SCH3C3HCHC3HCHCH3C6HPH5CPHC3H5C2SC2HC4HC3HCH3CHCHCHCH2C4H2CH2CHC2H4C2PHC2HCSHC5H2CH2CH2CH2CH3C3H2C2H3CHC2HSCH2CHC2H2PHCSHC4H3C2H2C2HC2H4CSHSFeHC7HC4HC2HC5H2C2H2PHC2HC2H3C2HC2H5CH3CH2CHC2HCSC5HCHC3HCHPCFeHC2H3C3HFeSH2SFeSFeSH2FeS2FeS2FeSFeS2FeS2H2FeCFeHSFeS2FeS2FeCFeS2FeS2FeS2FeSFeS3HCSHPH2SFeS2FeSHFeCFeHS3CH2CH3CSCH2C2SCH5C2H2C7H3CHCHC2SH3C6H4C6H4C7H3C6H4C2HC2HC6H4C6H4C7H3C3H3CH2CSC3HCFeH2C2H2CHC2H3CHC2H5PHCH3C2H2CHPC2HC5HCH4C3H2C4HCHCHCSH2C4HSHC2HC2H3C5HCHCH2CHCH2C2H9CH2C4H2CSHC7HC5H3CH2C2HC2H5C2HC5HSHCH4FeC3HCH6C2H2C3HSCH2C3H2CH2CHC3HCH2C4HC2H2CSCH2C4P2C2H3C9PCHCHCH4C2H3C4PC2HC4HCHC2H8CSHCH2CH2CH3C2HSC2HSC2H2CSHCH6C3HCHC2HC4H3C2HC2HC7PC18H10CH7C4H2PC5HC4HC9HC2HC3H3C3H5C3HC2H2CHSC2HCHCHCHC2HCHCFeCH6C4HC5FeS2FeS2FeSFeS3FeHC2H2FeHSHCSCFeHCH2FeS2FeS2FeHFeS3HFeC4HSHCHCHFeS2FeS2Fe2S3FeS2FeSCFe2S3C6H4C6H4C3HC8HCH3CHCHC2H2C2HPC2FeCHC2HCHC2H2FeH2C3H5C2HC7H4C6H3C6H3SHC4H2C8H2C2HCHC2HCHCSCHCHC2HC2H3SCSCHCHC2H2PHC2HC2HCHCHCHSH2CH2C2HCH3CH2CHCH2CHC9PHC3HCHC7PCH2CHC2HCPH5CH2C3H3CH2CHC2HC2HC2HC4H2C4SH2C2HC3HC8H7FeC2H2CPCH2CHC3HC2PHC2HCH2C3H2C3H3C4HCH6C7H2SH2CH5C2HC2HPCH3C2HC2HCHCHSCHCHC2H3C4H2C3HCHC2H4C6PC2HCSHC6H2C4H2CH5SCH7CHPH2C3H2CHCSCH2C5PC18SCH5C2H2SH4C2HCHCH3C3HC3HCHC3SHFeHSH3SCH2FeS2FeS2FeSFeHS2FeS2FeS2FeSFeS3C3HC5H2C4HCH3SC8H4C6H4C6H4C2H3C4H3C2HC2SHCHC2FeH2CHCH3SC7H4SCHC2H3C2H2CH3C3H2CPC2HC2HCH2CH2C2H3C3HCPC2SHC9HC2HCHC2H9CH6C2H2C2HC2H5C2HPH2CSHCHC4HFeC2H2CSC2SHC2HC4H7CHC2HC3H3C3SC4HC5H2CH2C3HC5HC2H2C8H3C3HCH2C5PC2HC2HC2H4C2H2CHC3HCHCHCHC3HCHC2H2FeH2C4HC3PCPCHCHCH2CHSHC2H2CHCH4C2HCHCPCH2C3HSCHCH2C2HFeCH2C4HFePCHC3H2C2HCHC3H3CHC2SH2C3HCH3C7FeC3H4CHC3H7CHCHC2H2C2HCHCH2C2FeCHCFeS3FeS2FeSFeSHFeSFeS2HC2HC4HCSC5HCFeCHC2HC6H5C5HC3H2CH2CHCH2CH4CFeCH2CHCHCHCH2C2H5CHC4H4CHC4SH2C2H5CHCHPFeSHCFeH3C4H2CHPC3HCH3C2HC3S2CH3C6PC9PH2C6H6SH3SH2C2H2FeH3C4H2CHC2HCH3C2H2C2HCHC3H2CHCHC2SCH2CH4CHCHCHCSC8HC2HC3HC2SCHCH2C2PC2H3CH2FeC2H3C4H2C2HC2HFeS2FeS2FeSFeS3CFeS2FeS2FeSFeS3H2FeS2H2FeSFeS3CFeCSFeS2HFeS3C2HPC2HCH2C3H2CH4C6H2CHC5HCH2C7H4C2SC3H4C6H2SHC6H4C6H5C5H3C4HC2SCHC3H5PH3C11HFeC2HC2PCH5C6PC4SC3HC2HC4FeCH5C5H2CH6C2H3CHC7H8CHC5H7CHC4H4CHC7H2C4HC3HCH3CHC4H2C6HC2HCHCHCH3C2H3CHCHCH3C4PHCHPCHCHC13H6C4HC7H2CH3C6PC8H3C7H6C2H3C3H6PC18H17C2HC2PC4H4C2H5CHC2HCH3C4H6SCHCH2CHC4HCH2CH2C3HCPHC3HCHC5H2CH2CHC2HC2HC2HC5H3CHC4SCH5CHPC2HCH4C2FeHCH2CH2C2HPCH3C
_chemical_formula_sum              "H4608 S768 Fe384 C5760 P192"
_cell_length_a       82.3398
_cell_length_b       82.1465
_cell_length_c       82.0546
_cell_angle_alpha    73.5821
_cell_angle_beta     74.1857
_cell_angle_gamma    73.5942

_space_group_name_H-M_alt    "P 1"
_space_group_IT_number       1

loop_
  _space_group_symop_operation_xyz
  'x, y, z'

loop_
  _atom_site_type_symbol
  _atom_site_label
  _atom_site_symmetry_multiplicity
  _atom_site_fract_x
  _atom_site_fract_y
  _atom_site_fract_z
  _atom_site_occupancy
  H   H1        1.0  0.12655  0.48621  0.17659  1.0000
  S   S1        1.0  0.22646  0.37323  0.99978  1.0000
  H   H2        1.0  0.05196  0.37739  0.18115  1.0000
  Fe  Fe1       1.0  0.21638  0.41269  0.02085  1.0000
  S   S2        1.0  0.22292  0.38523  0.03595  1.0000
  S   S3        1.0  0.20812  0.43537  0.03374  1.0000
  Fe  Fe2       1.0  0.24354  0.38089  0.01221  1.0000
  S   S4        1.0  0.27009  0.36415  0.01504  1.0000
  Fe  Fe3       1.0  0.20528  0.38004  0.02241  1.0000
  S   S5        1.0  0.18665  0.36289  0.03794  1.0000
  S   S6        1.0  0.23836  0.40895  0.99819  1.0000
  S   S7        1.0  0.19718  0.40788  0.00903  1.0000
  Fe  Fe4       1.0  0.38115  0.37013  0.02740  1.0000
  S   S8        1.0  0.37333  0.37236  0.00254  1.0000
  S   S9        1.0  0.39110  0.34482  0.04502  1.0000
  Fe  Fe5       1.0  0.37713  0.40911  0.02219  1.0000
  H   H3        1.0  0.13295  0.41101  0.98594  1.0000
  S   S10       1.0  0.37937  0.43035  0.03359  1.0000
  Fe  Fe6       1.0  0.35293  0.39536  0.00976  1.0000
  Fe  Fe7       1.0  0.39052  0.39131  0.99138  1.0000
  H   H4        1.0  0.42472  0.15940  0.03035  1.0000
  C   C1        1.0  0.41495  0.42948  0.99578  1.0000
  S   S11       1.0  0.35887  0.39138  0.03599  1.0000
  S   S12       1.0  0.39991  0.38757  0.01562  1.0000
  Fe  Fe8       1.0  0.46834  0.27795  0.00897  1.0000
  C   C2        1.0  0.36906  0.25104  0.02569  1.0000
  S   S13       1.0  0.44033  0.28619  0.00660  1.0000
  H   H5        1.0  0.45938  0.23697  0.06240  1.0000
  C   C3        1.0  0.41588  0.98814  0.15728  1.0000
  H   H6        1.0  0.03983  0.42620  0.17549  1.0000
  H   H7        1.0  0.25610  0.46634  0.03589  1.0000
  C   C4        1.0  0.26968  0.45715  0.07379  1.0000
  H   H8        1.0  0.48171  0.12029  0.02791  1.0000
  H   H9        1.0  0.15178  0.46852  0.00133  1.0000
  C   C5        1.0  0.31109  0.48255  0.08627  1.0000
  C   C6        1.0  0.48722  0.18493  0.09341  1.0000
  H   H10       1.0  0.04312  0.45506  0.14565  1.0000
  H   H11       1.0  0.01275  0.37688  0.14651  1.0000
  H   H12       1.0  0.46722  0.31805  0.04802  1.0000
  C   C7        1.0  0.29314  0.45085  0.02479  1.0000
  H   H13       1.0  0.38612  0.22589  0.02764  1.0000
  H   H14       1.0  0.05090  0.47803  0.15391  1.0000
  H   H15       1.0  0.32686  0.46149  0.10164  1.0000
  S   S14       1.0  0.47362  0.04871  0.07643  1.0000
  H   H16       1.0  0.16946  0.47601  0.05139  1.0000
  H   H17       1.0  0.06212  0.43750  0.18123  1.0000
  C   C8        1.0  0.43242  0.23990  0.99332  1.0000
  C   C9        1.0  0.32345  0.46691  0.08903  1.0000
  C   C10       1.0  0.38245  0.27578  0.01404  1.0000
  Fe  Fe9       1.0  0.10269  0.38922  0.10278  1.0000
  S   S15       1.0  0.11444  0.39390  0.12227  1.0000
  S   S16       1.0  0.11209  0.39971  0.07408  1.0000
  Fe  Fe10      1.0  0.07462  0.37389  0.13032  1.0000
  S   S17       1.0  0.08434  0.37683  0.15193  1.0000
  S   S18       1.0  0.04959  0.36489  0.14048  1.0000
  Fe  Fe11      1.0  0.08715  0.40296  0.13564  1.0000
  S   S19       1.0  0.07912  0.42454  0.14970  1.0000
  Fe  Fe12      1.0  0.11073  0.36736  0.13725  1.0000
  S   S20       1.0  0.13022  0.34973  0.15275  1.0000
  S   S21       1.0  0.07541  0.40098  0.11494  1.0000
  S   S22       1.0  0.10109  0.36158  0.11672  1.0000
  H   H18       1.0  0.19737  0.40004  0.10810  1.0000
  H   H19       1.0  0.08518  0.46326  0.17917  1.0000
  H   H20       1.0  0.41174  0.01456  0.14220  1.0000
  C   C11       1.0  0.08877  0.47243  0.13025  1.0000
  C   C12       1.0  0.19986  0.48433  0.10620  1.0000
  C   C13       1.0  0.45184  0.23593  0.05393  1.0000
  C   C14       1.0  0.05332  0.45802  0.09228  1.0000
  C   C15       1.0  0.03529  0.37283  0.12610  1.0000
  C   C16       1.0  0.04132  0.37337  0.10831  1.0000
  H   H21       1.0  0.05509  0.36995  0.10308  1.0000
  H   H22       1.0  0.08987  0.48271  0.13533  1.0000
  C   C17       1.0  0.47710  0.20415  0.99919  1.0000
  H   H23       1.0  0.03011  0.33669  0.11455  1.0000
  H   H24       1.0  0.08653  0.43443  0.11222  1.0000
  S   S23       1.0  0.48776  0.29471  0.99719  1.0000
  C   C18       1.0  0.02039  0.33483  0.14198  1.0000
  C   C19       1.0  0.31565  0.48141  0.05614  1.0000
  H   H25       1.0  0.47488  0.22599  0.00969  1.0000
  H   H26       1.0  0.44024  0.37275  0.01113  1.0000
  C   C20       1.0  0.44655  0.36096  0.01902  1.0000
  C   C21       1.0  0.17528  0.36244  0.09429  1.0000
  C   C22       1.0  0.34900  0.47199  0.00745  1.0000
  C   C23       1.0  0.12887  0.43772  0.06876  1.0000
  C   C24       1.0  0.30410  0.45112  0.99412  1.0000
  H   H27       1.0  0.46945  0.07093  0.04277  1.0000
  C   C25       1.0  0.29702  0.46716  0.02189  1.0000
  C   C26       1.0  0.25101  0.41120  0.04735  1.0000
  C   C27       1.0  0.16043  0.45221  0.15177  1.0000
  C   C28       1.0  0.25803  0.42498  0.04702  1.0000
  H   H28       1.0  0.32264  0.43957  0.03650  1.0000
  C   C29       1.0  0.01746  0.37720  0.13281  1.0000
  H   H29       1.0  0.29610  0.41482  0.98961  1.0000
  H   H30       1.0  0.16458  0.44748  0.05143  1.0000
  C   C30       1.0  0.42966  0.24901  0.03693  1.0000
  H   H31       1.0  0.30035  0.40334  0.04424  1.0000
  C   C31       1.0  0.43318  0.23373  0.03087  1.0000
  C   C32       1.0  0.40502  0.32894  0.03392  1.0000
  C   C33       1.0  0.42126  0.32060  0.03798  1.0000
  C   C34       1.0  0.43239  0.30770  0.02942  1.0000
  C   C35       1.0  0.42694  0.30256  0.01730  1.0000
  C   C36       1.0  0.41043  0.31043  0.01372  1.0000
  C   C37       1.0  0.39965  0.32387  0.02169  1.0000
  H   H32       1.0  0.42527  0.32423  0.04769  1.0000
  H   H33       1.0  0.44504  0.30158  0.03237  1.0000
  H   H34       1.0  0.40613  0.30638  0.00448  1.0000
  H   H35       1.0  0.38703  0.33007  0.01870  1.0000
  C   C38       1.0  0.16595  0.37328  0.04790  1.0000
  C   C39       1.0  0.15656  0.36393  0.06276  1.0000
  C   C40       1.0  0.14024  0.37206  0.07120  1.0000
  C   C41       1.0  0.13285  0.38934  0.06427  1.0000
  C   C42       1.0  0.14197  0.39851  0.04903  1.0000
  C   C43       1.0  0.15862  0.39063  0.04109  1.0000
  H   H36       1.0  0.16208  0.35045  0.06798  1.0000
  H   H37       1.0  0.13325  0.36485  0.08286  1.0000
  H   H38       1.0  0.13623  0.41176  0.04340  1.0000
  H   H39       1.0  0.16555  0.39783  0.02943  1.0000
  C   C44       1.0  0.28682  0.37531  0.01002  1.0000
  C   C45       1.0  0.30207  0.36720  0.01627  1.0000
  C   C46       1.0  0.31483  0.37657  0.01366  1.0000
  C   C47       1.0  0.31255  0.39384  0.00424  1.0000
  C   C48       1.0  0.29775  0.40158  0.99721  1.0000
  C   C49       1.0  0.28489  0.39239  0.00020  1.0000
  H   H40       1.0  0.30370  0.35390  0.02374  1.0000
  H   H41       1.0  0.32628  0.37053  0.01905  1.0000
  C   C50       1.0  0.18366  0.42485  0.09507  1.0000
  H   H42       1.0  0.27355  0.39855  0.99483  1.0000
  H   H43       1.0  0.42754  0.36382  0.99021  1.0000
  H   H44       1.0  0.13928  0.44924  0.98688  1.0000
  C   C51       1.0  0.09825  0.46174  0.18051  1.0000
  C   C52       1.0  0.43041  0.00970  0.15795  1.0000
  C   C53       1.0  0.43151  0.19930  0.00731  1.0000
  C   C54       1.0  0.16762  0.45085  0.16591  1.0000
  C   C55       1.0  0.22045  0.45123  0.02439  1.0000
  C   C56       1.0  0.23710  0.44746  0.01415  1.0000
  C   C57       1.0  0.99913  0.46092  0.09997  1.0000
  C   C58       1.0  0.38541  0.23972  0.02401  1.0000
  H   H45       1.0  0.00823  0.26643  0.12691  1.0000
  H   H46       1.0  0.24287  0.43442  0.01225  1.0000
  H   H47       1.0  0.43166  0.36800  0.04302  1.0000
  S   S24       1.0  0.48783  0.12552  0.98995  1.0000
  C   C59       1.0  0.18557  0.44475  0.16455  1.0000
  H   H48       1.0  0.34147  0.40514  0.08061  1.0000
  H   H49       1.0  0.37980  0.46351  0.03862  1.0000
  Fe  Fe13      1.0  0.48932  0.03021  0.09553  1.0000
  H   H50       1.0  0.14690  0.45575  0.09733  1.0000
  C   C60       1.0  0.12826  0.42327  0.14755  1.0000
  H   H51       1.0  0.06157  0.40349  0.18091  1.0000
  C   C61       1.0  0.16550  0.47441  0.04049  1.0000
  H   H52       1.0  0.34053  0.47427  0.99865  1.0000
  C   C62       1.0  0.30447  0.47532  0.00521  1.0000
  H   H53       1.0  0.35750  0.24585  0.03082  1.0000
  C   C63       1.0  0.44167  0.35833  0.03712  1.0000
  H   H54       1.0  0.03189  0.33730  0.14396  1.0000
  H   H55       1.0  0.99346  0.41371  0.16359  1.0000
  C   C64       1.0  0.15742  0.45649  0.02652  1.0000
  C   C65       1.0  0.15553  0.47042  0.01215  1.0000
  H   H56       1.0  0.23733  0.41335  0.04772  1.0000
  C   C66       1.0  0.21353  0.46792  0.02754  1.0000
  C   C67       1.0  0.24661  0.46048  0.00682  1.0000
  C   C68       1.0  0.09067  0.46045  0.10588  1.0000
  H   H57       1.0  0.42000  0.42156  0.00710  1.0000
  C   C69       1.0  0.00646  0.43299  0.14531  1.0000
  H   H58       1.0  0.18380  0.40209  0.07315  1.0000
  H   H59       1.0  0.15522  0.44404  0.02668  1.0000
  C   C70       1.0  0.48590  0.06297  0.06134  1.0000
  C   C71       1.0  0.26925  0.45563  0.05730  1.0000
  C   C72       1.0  0.01161  0.38154  0.10424  1.0000
  H   H60       1.0  0.15160  0.38664  0.12361  1.0000
  H   H61       1.0  0.48197  0.19532  0.10039  1.0000
  H   H62       1.0  0.08248  0.45584  0.15549  1.0000
  C   C73       1.0  0.33196  0.45861  0.07534  1.0000
  H   H63       1.0  0.28735  0.41604  0.08035  1.0000
  H   H64       1.0  0.33520  0.45992  0.04812  1.0000
  H   H65       1.0  0.17811  0.34932  0.09239  1.0000
  C   C74       1.0  0.25633  0.46700  0.04881  1.0000
  C   C75       1.0  0.36852  0.45174  0.02530  1.0000
  H   H66       1.0  0.23286  0.45464  0.12279  1.0000
  H   H67       1.0  0.17511  0.45007  0.07858  1.0000
  H   H68       1.0  0.19078  0.37474  0.99411  1.0000
  C   C76       1.0  0.22209  0.46580  0.12161  1.0000
  H   H69       1.0  0.12315  0.43260  0.06141  1.0000
  C   C77       1.0  0.30815  0.46723  0.99135  1.0000
  C   C78       1.0  0.40046  0.24637  0.01754  1.0000
  C   C79       1.0  0.00327  0.46580  0.11317  1.0000
  C   C80       1.0  0.39879  0.26452  0.01216  1.0000
  H   H70       1.0  0.44940  0.20768  0.03200  1.0000
  C   C81       1.0  0.14068  0.42646  0.07865  1.0000
  H   H71       1.0  0.40666  0.20834  0.04571  1.0000
  C   C82       1.0  0.14569  0.40330  0.98743  1.0000
  H   H72       1.0  0.40376  0.45188  0.00695  1.0000
  C   C83       1.0  0.45910  0.34823  0.01125  1.0000
  S   S25       1.0  0.32748  0.40653  0.00133  1.0000
  H   H73       1.0  0.41017  0.27002  0.00672  1.0000
  C   C84       1.0  0.17105  0.44816  0.13632  1.0000
  C   C85       1.0  0.09140  0.47422  0.11233  1.0000
  H   H74       1.0  0.12677  0.47559  0.07902  1.0000
  C   C86       1.0  0.08482  0.45715  0.14167  1.0000
  C   C87       1.0  0.33066  0.41207  0.07437  1.0000
  H   H75       1.0  0.20370  0.45682  0.06815  1.0000
  C   C88       1.0  0.02112  0.40513  0.16040  1.0000
  C   C89       1.0  0.35731  0.45489  0.01412  1.0000
  C   C90       1.0  0.21381  0.46998  0.10772  1.0000
  C   C91       1.0  0.48204  0.21305  0.00865  1.0000
  C   C92       1.0  0.08395  0.44349  0.13521  1.0000
  C   C93       1.0  0.44930  0.34301  0.04759  1.0000
  C   C94       1.0  0.14772  0.43292  0.08867  1.0000
  H   H76       1.0  0.19075  0.37195  0.06943  1.0000
  C   C95       1.0  0.00567  0.38175  0.12187  1.0000
  C   C96       1.0  0.15610  0.40828  0.15466  1.0000
  H   H77       1.0  0.00808  0.45124  0.09335  1.0000
  H   H78       1.0  0.34656  0.42456  0.05149  1.0000
  C   C97       1.0  0.29655  0.44299  0.01076  1.0000
  H   H79       1.0  0.02064  0.39254  0.16913  1.0000
  C   C98       1.0  0.16260  0.45844  0.04058  1.0000
  C   C99       1.0  0.43959  0.99738  0.16980  1.0000
  C   C100      1.0  0.21472  0.41682  0.09402  1.0000
  C   C101      1.0  0.16413  0.36672  0.10943  1.0000
  H   H80       1.0  0.24948  0.43762  0.04715  1.0000
  P   P1        1.0  0.28517  0.43964  0.04661  1.0000
  C   C102      1.0  0.48117  0.13113  0.03323  1.0000
  C   C103      1.0  0.12413  0.45545  0.06866  1.0000
  H   H81       1.0  0.47974  0.17024  0.05153  1.0000
  S   S26       1.0  0.36976  0.41448  0.99668  1.0000
  H   H82       1.0  0.17732  0.47971  0.16726  1.0000
  H   H83       1.0  0.35489  0.44418  0.01069  1.0000
  H   H84       1.0  0.09271  0.46180  0.09206  1.0000
  H   H85       1.0  0.12733  0.48271  0.14281  1.0000
  C   C104      1.0  0.03936  0.46843  0.13891  1.0000
  H   H86       1.0  0.38135  0.28974  0.01040  1.0000
  H   H87       1.0  0.16534  0.44945  0.12545  1.0000
  H   H88       1.0  0.29390  0.43033  0.01270  1.0000
  H   H89       1.0  0.15829  0.35690  0.11935  1.0000
  C   C105      1.0  0.42165  0.20939  0.01943  1.0000
  C   C106      1.0  0.24411  0.48072  0.07326  1.0000
  H   H90       1.0  0.44928  0.00098  0.17390  1.0000
  H   H91       1.0  0.10885  0.46486  0.99286  1.0000
  C   C107      1.0  0.31984  0.43163  0.04948  1.0000
  C   C108      1.0  0.22281  0.48100  0.01992  1.0000
  H   H92       1.0  0.21813  0.46207  0.09813  1.0000
  C   C109      1.0  0.19611  0.44013  0.14927  1.0000
  H   H93       1.0  0.43654  0.26216  0.05247  1.0000
  P   P2        1.0  0.42186  0.23219  0.01544  1.0000
  H   H94       1.0  0.28756  0.37912  0.04586  1.0000
  H   H95       1.0  0.29466  0.47337  0.03257  1.0000
  H   H96       1.0  0.03414  0.37744  0.08379  1.0000
  H   H97       1.0  0.17727  0.40428  0.13328  1.0000
  C   C110      1.0  0.04388  0.48143  0.14359  1.0000
  C   C111      1.0  0.44606  0.21951  0.03669  1.0000
  C   C112      1.0  0.43899  0.25009  0.04835  1.0000
  H   H98       1.0  0.19131  0.44324  0.17545  1.0000
  S   S27       1.0  0.48422  0.25664  0.99551  1.0000
  H   H99       1.0  0.47513  0.32216  0.01633  1.0000
  H   H100      1.0  0.16739  0.43193  0.99235  1.0000
  C   C113      1.0  0.16370  0.41004  0.13697  1.0000
  H   H101      1.0  0.43301  0.02263  0.15318  1.0000
  H   H102      1.0  0.25960  0.45742  0.99921  1.0000
  H   H103      1.0  0.14660  0.45607  0.15270  1.0000
  H   H104      1.0  0.46666  0.21064  0.99242  1.0000
  C   C114      1.0  0.15361  0.41845  0.12437  1.0000
  C   C115      1.0  0.14228  0.45065  0.08908  1.0000
  H   H105      1.0  0.11443  0.42790  0.15170  1.0000
  S   S28       1.0  0.47833  0.26553  0.03351  1.0000
  H   H106      1.0  0.11491  0.46415  0.06108  1.0000
  C   C116      1.0  0.48472  0.16813  0.10151  1.0000
  P   P3        1.0  0.16293  0.41860  0.10163  1.0000
  S   S29       1.0  0.48022  0.01390  0.16090  1.0000
  C   C117      1.0  0.13841  0.41485  0.15992  1.0000
  C   C118      1.0  0.46152  0.33013  0.03997  1.0000
  C   C119      1.0  0.30297  0.42952  0.05763  1.0000
  C   C120      1.0  0.37120  0.46586  0.02991  1.0000
  S   S30       1.0  0.47872  0.17609  0.98677  1.0000
  C   C121      1.0  0.16027  0.38372  0.11174  1.0000
  H   H107      1.0  0.25633  0.38405  0.04688  1.0000
  C   C122      1.0  0.48107  0.07225  0.04553  1.0000
  H   H108      1.0  0.40795  0.17680  0.05223  1.0000
  H   H109      1.0  0.22602  0.40724  0.09757  1.0000
  C   C123      1.0  0.30016  0.41835  0.07413  1.0000
  C   C124      1.0  0.31395  0.40972  0.08248  1.0000
  H   H110      1.0  0.27975  0.44895  0.08048  1.0000
  C   C125      1.0  0.02947  0.37752  0.09743  1.0000
  H   H111      1.0  0.42009  0.26034  0.03267  1.0000
  C   C126      1.0  0.36759  0.26905  0.02085  1.0000
  H   H112      1.0  0.35492  0.27780  0.02239  1.0000
  H   H113      1.0  0.43901  0.20494  0.99506  1.0000
  H   H114      1.0  0.07681  0.45817  0.07262  1.0000
  C   C127      1.0  0.21660  0.43277  0.08273  1.0000
  C   C128      1.0  0.99516  0.27383  0.13057  1.0000
  C   C129      1.0  0.18887  0.44196  0.13511  1.0000
  C   C130      1.0  0.13083  0.46190  0.07882  1.0000
  C   C131      1.0  0.08709  0.44501  0.11730  1.0000
  H   H115      1.0  0.12733  0.43081  0.12066  1.0000
  P   P4        1.0  0.02397  0.45633  0.11935  1.0000
  C   C132      1.0  0.02251  0.43717  0.13666  1.0000
  C   C133      1.0  0.04020  0.44902  0.10146  1.0000
  C   C134      1.0  0.04044  0.43341  0.09741  1.0000
  C   C135      1.0  0.05357  0.42692  0.08444  1.0000
  C   C136      1.0  0.06673  0.43578  0.07558  1.0000
  H   H116      1.0  0.16375  0.40128  0.16440  1.0000
  H   H117      1.0  0.25745  0.47067  0.09447  1.0000
  C   C137      1.0  0.03778  0.42522  0.14017  1.0000
  C   C138      1.0  0.03708  0.40923  0.15185  1.0000
  C   C139      1.0  0.17820  0.38269  0.99213  1.0000
  H   H118      1.0  0.19699  0.43841  0.12326  1.0000
  S   S31       1.0  0.99673  0.38568  0.09087  1.0000
  C   C140      1.0  0.40569  0.44656  0.99572  1.0000
  C   C141      1.0  0.27583  0.42231  0.04622  1.0000
  H   H119      1.0  0.22933  0.43562  0.07755  1.0000
  H   H120      1.0  0.44538  0.34090  0.06161  1.0000
  C   C142      1.0  0.01941  0.33438  0.12541  1.0000
  C   C143      1.0  0.24364  0.47925  0.05687  1.0000
  C   C144      1.0  0.41433  0.18314  0.03960  1.0000
  C   C145      1.0  0.16750  0.39661  0.09883  1.0000
  C   C146      1.0  0.13576  0.42500  0.12986  1.0000
  H   H121      1.0  0.33242  0.33369  0.99050  1.0000
  C   C147      1.0  0.36284  0.48302  0.02323  1.0000
  H   H122      1.0  0.03072  0.42597  0.10459  1.0000
  H   H123      1.0  0.05391  0.41462  0.08176  1.0000
  C   C148      1.0  0.43249  0.18139  0.01123  1.0000
  H   H124      1.0  0.05029  0.42805  0.13341  1.0000
  H   H125      1.0  0.04897  0.39987  0.15390  1.0000
  C   C149      1.0  0.03039  0.47278  0.12543  1.0000
  C   C150      1.0  0.46613  0.33258  0.02189  1.0000
  H   H126      1.0  0.48895  0.14193  0.09879  1.0000
  C   C151      1.0  0.13318  0.35942  0.16804  1.0000
  C   C152      1.0  0.06650  0.45140  0.07937  1.0000
  C   C153      1.0  0.19837  0.41284  0.10009  1.0000
  H   H127      1.0  0.13541  0.38417  0.00891  1.0000
  C   C154      1.0  0.20214  0.44476  0.07753  1.0000
  H   H128      1.0  0.05377  0.46986  0.09531  1.0000
  C   C155      1.0  0.48014  0.15907  0.04683  1.0000
  H   H129      1.0  0.16425  0.36597  0.01303  1.0000
  H   H130      1.0  0.12466  0.47931  0.11480  1.0000
  H   H131      1.0  0.34188  0.44674  0.07728  1.0000
  C   C156      1.0  0.48562  0.18695  0.99847  1.0000
  C   C157      1.0  0.33356  0.42302  0.05791  1.0000
  C   C158      1.0  0.44573  0.24872  0.98966  1.0000
  C   C159      1.0  0.23926  0.47740  0.00935  1.0000
  C   C160      1.0  0.25709  0.46961  0.08175  1.0000
  C   C161      1.0  0.32813  0.46595  0.05891  1.0000
  C   C162      1.0  0.46922  0.14681  0.02948  1.0000
  C   C163      1.0  0.46863  0.16074  0.03636  1.0000
  H   H132      1.0  0.07731  0.43031  0.06607  1.0000
  H   H133      1.0  0.14398  0.41274  0.07863  1.0000
  H   H134      1.0  0.44049  0.17370  0.00194  1.0000
  H   H135      1.0  0.31178  0.40090  0.09508  1.0000
  H   H136      1.0  0.34970  0.35162  0.99533  1.0000
  C   C164      1.0  0.45535  0.22064  0.04812  1.0000
  C   C165      1.0  0.28647  0.40570  0.04550  1.0000
  C   C166      1.0  0.18240  0.37522  0.08133  1.0000
  C   C167      1.0  0.18577  0.44083  0.08359  1.0000
  C   C168      1.0  0.16323  0.37770  0.00277  1.0000
  S   S32       1.0  0.48254  0.00592  0.11429  1.0000
  H   H137      1.0  0.46572  0.20986  0.05199  1.0000
  H   H138      1.0  0.45007  0.25076  0.00008  1.0000
  H   H139      1.0  0.20083  0.47086  0.03565  1.0000
  H   H140      1.0  0.00320  0.29768  0.12566  1.0000
  C   C169      1.0  0.14698  0.38800  0.00044  1.0000
  C   C170      1.0  0.41345  0.20104  0.03578  1.0000
  C   C171      1.0  0.17840  0.39229  0.08348  1.0000
  C   C172      1.0  0.00639  0.33258  0.15587  1.0000
  H   H141      1.0  0.46074  0.14827  0.02089  1.0000
  H   H142      1.0  0.45972  0.17307  0.03302  1.0000
  H   H143      1.0  0.99444  0.44162  0.14248  1.0000
  C   C173      1.0  0.27933  0.39192  0.04621  1.0000
  C   C174      1.0  0.26166  0.39469  0.04694  1.0000
  C   C175      1.0  0.42379  0.17333  0.02730  1.0000
  C   C176      1.0  0.10494  0.47641  0.17725  1.0000
  C   C177      1.0  0.99224  0.29161  0.12992  1.0000
  H   H144      1.0  0.11224  0.32114  0.17403  1.0000
  C   C178      1.0  0.00582  0.41707  0.15725  1.0000
  C   C179      1.0  0.13427  0.48583  0.11512  1.0000
  H   H145      1.0  0.48818  0.08940  0.02062  1.0000
  C   C180      1.0  0.15907  0.48633  0.01168  1.0000
  H   H146      1.0  0.00907  0.44064  0.18222  1.0000
  C   C181      1.0  0.11996  0.37198  0.17539  1.0000
  C   C182      1.0  0.21613  0.47573  0.13424  1.0000
  H   H147      1.0  0.18687  0.44717  0.99739  1.0000
  C   C183      1.0  0.35169  0.48609  0.01199  1.0000
  Fe  Fe14      1.0  0.21981  0.40171  0.98744  1.0000
  H   H148      1.0  0.22222  0.47220  0.14530  1.0000
  H   H149      1.0  0.47449  0.37955  0.99530  1.0000
  H   H150      1.0  0.99346  0.48133  0.13268  1.0000
  C   C184      1.0  0.03608  0.43758  0.18088  1.0000
  C   C185      1.0  0.34266  0.35652  0.98490  1.0000
  H   H151      1.0  0.47749  0.16550  0.11479  1.0000
  H   H152      1.0  0.00710  0.33328  0.16864  1.0000
  H   H153      1.0  0.99836  0.36998  0.17981  1.0000
  H   H154      1.0  0.15946  0.34481  0.16729  1.0000
  H   H155      1.0  0.26175  0.35745  0.98461  1.0000
  P   P5        1.0  0.46467  0.35134  0.98787  1.0000
  H   H156      1.0  0.00418  0.33088  0.10980  1.0000
  H   H157      1.0  0.20988  0.43505  0.14846  1.0000
  H   H158      1.0  0.48770  0.11394  0.07714  1.0000
  H   H159      1.0  0.99197  0.38512  0.12717  1.0000
  C   C186      1.0  0.16849  0.48486  0.17794  1.0000
  C   C187      1.0  0.99142  0.32974  0.15324  1.0000
  C   C188      1.0  0.18551  0.44839  0.98428  1.0000
  C   C189      1.0  0.00454  0.33136  0.12275  1.0000
  C   C190      1.0  0.41852  0.00510  0.15172  1.0000
  H   H160      1.0  0.10753  0.37591  0.17182  1.0000
  H   H161      1.0  0.13245  0.41288  0.17361  1.0000
  C   C191      1.0  0.46858  0.38488  0.98406  1.0000
  C   C192      1.0  0.12161  0.47460  0.17953  1.0000
  C   C193      1.0  0.43160  0.35209  0.98524  1.0000
  C   C194      1.0  0.14919  0.35446  0.17290  1.0000
  H   H162      1.0  0.02135  0.24982  0.31014  1.0000
  H   H163      1.0  0.13238  0.43041  0.19284  1.0000
  S   S33       1.0  0.45326  0.02591  0.26083  1.0000
  C   C195      1.0  0.33899  0.04156  0.27907  1.0000
  H   H164      1.0  0.03828  0.18895  0.35444  1.0000
  C   C196      1.0  0.12628  0.34472  0.23467  1.0000
  H   H165      1.0  0.99381  0.42817  0.33334  1.0000
  Fe  Fe15      1.0  0.23178  0.03657  0.34924  1.0000
  C   C197      1.0  0.01657  0.43407  0.29742  1.0000
  S   S34       1.0  0.22538  0.06538  0.33797  1.0000
  Fe  Fe16      1.0  0.23678  0.99909  0.34667  1.0000
  C   C198      1.0  0.01221  0.47975  0.32223  1.0000
  C   C199      1.0  0.34437  0.00518  0.31897  1.0000
  C   C200      1.0  0.02755  0.33768  0.20019  1.0000
  Fe  Fe17      1.0  0.26294  0.00929  0.35952  1.0000
  H   H166      1.0  0.02702  0.22624  0.33562  1.0000
  S   S35       1.0  0.21414  0.01785  0.35852  1.0000
  S   S36       1.0  0.25318  0.01877  0.33486  1.0000
  Fe  Fe18      1.0  0.10154  0.43176  0.23487  1.0000
  S   S37       1.0  0.12878  0.41732  0.23530  1.0000
  S   S38       1.0  0.09604  0.46076  0.22455  1.0000
  Fe  Fe19      1.0  0.08803  0.39913  0.24963  1.0000
  S   S39       1.0  0.11423  0.38185  0.25149  1.0000
  S   S40       1.0  0.06541  0.38653  0.25852  1.0000
  Fe  Fe20      1.0  0.11807  0.40265  0.26165  1.0000
  S   S41       1.0  0.13347  0.39748  0.28207  1.0000
  Fe  Fe21      1.0  0.12280  0.39770  0.22498  1.0000
  S   S42       1.0  0.14402  0.38538  0.20523  1.0000
  S   S43       1.0  0.09099  0.41877  0.26221  1.0000
  S   S44       1.0  0.09621  0.41338  0.22222  1.0000
  Fe  Fe22      1.0  0.08324  0.31778  0.34668  1.0000
  H   H167      1.0  0.10105  0.28015  0.21855  1.0000
  Fe  Fe23      1.0  0.10586  0.28136  0.34853  1.0000
  S   S45       1.0  0.12350  0.28555  0.36295  1.0000
  S   S46       1.0  0.10348  0.25915  0.33895  1.0000
  Fe  Fe24      1.0  0.12180  0.31160  0.34398  1.0000
  S   S47       1.0  0.14521  0.32293  0.33237  1.0000
  S   S48       1.0  0.10626  0.30628  0.32841  1.0000
  H   H168      1.0  0.99384  0.33096  0.32107  1.0000
  C   C201      1.0  0.20066  0.15859  0.35360  1.0000
  Fe  Fe25      1.0  0.09929  0.29969  0.37837  1.0000
  Fe  Fe26      1.0  0.13875  0.12694  0.35913  1.0000
  S   S49       1.0  0.15839  0.13798  0.36396  1.0000
  S   S50       1.0  0.14579  0.10208  0.34983  1.0000
  C   C202      1.0  0.12477  0.34006  0.25268  1.0000
  Fe  Fe27      1.0  0.14123  0.16393  0.35584  1.0000
  C   C203      1.0  0.04375  0.45924  0.19032  1.0000
  H   H169      1.0  0.05379  0.46401  0.19232  1.0000
  S   S51       1.0  0.12259  0.15304  0.34855  1.0000
  H   H170      1.0  0.06690  0.26643  0.30870  1.0000
  H   H171      1.0  0.02827  0.35080  0.19286  1.0000
  H   H172      1.0  0.40465  0.04255  0.21587  1.0000
  C   C204      1.0  0.01868  0.44590  0.18450  1.0000
  H   H173      1.0  0.15526  0.03091  0.37877  1.0000
  H   H174      1.0  0.05476  0.45899  0.23645  1.0000
  H   H175      1.0  0.02220  0.30755  0.38178  1.0000
  H   H176      1.0  0.45238  0.00991  0.29740  1.0000
  H   H177      1.0  0.00512  0.48170  0.34896  1.0000
  C   C205      1.0  0.09798  0.32928  0.19765  1.0000
  C   C206      1.0  0.11818  0.23887  0.34072  1.0000
  C   C207      1.0  0.13560  0.23697  0.34076  1.0000
  C   C208      1.0  0.03018  0.32960  0.26772  1.0000
  C   C209      1.0  0.10834  0.44518  0.18573  1.0000
  C   C210      1.0  0.12330  0.20785  0.34244  1.0000
  C   C211      1.0  0.11222  0.22436  0.34124  1.0000
  H   H178      1.0  0.15817  0.45358  0.22164  1.0000
  C   C212      1.0  0.01292  0.48288  0.22462  1.0000
  H   H179      1.0  0.11847  0.19669  0.34307  1.0000
  H   H180      1.0  0.09888  0.22590  0.34086  1.0000
  C   C213      1.0  0.05473  0.46267  0.24812  1.0000
  C   C214      1.0  0.13631  0.37650  0.29559  1.0000
  C   C215      1.0  0.15033  0.37068  0.30388  1.0000
  C   C216      1.0  0.15300  0.35415  0.31494  1.0000
  C   C217      1.0  0.14139  0.34349  0.31821  1.0000
  C   C218      1.0  0.12713  0.34935  0.31017  1.0000
  C   C219      1.0  0.12470  0.36581  0.29867  1.0000
  H   H181      1.0  0.15928  0.37892  0.30158  1.0000
  H   H182      1.0  0.16401  0.34970  0.32112  1.0000
  H   H183      1.0  0.11810  0.34116  0.31266  1.0000
  H   H184      1.0  0.11374  0.37034  0.29243  1.0000
  C   C220      1.0  0.14080  0.20598  0.34185  1.0000
  C   C221      1.0  0.01276  0.33448  0.21294  1.0000
  C   C222      1.0  0.04652  0.39933  0.25155  1.0000
  C   C223      1.0  0.04600  0.41598  0.24071  1.0000
  C   C224      1.0  0.05642  0.47107  0.27822  1.0000
  S   S52       1.0  0.24282  0.02861  0.37322  1.0000
  C   C225      1.0  0.20979  0.12570  0.37528  1.0000
  H   H185      1.0  0.05749  0.42122  0.23627  1.0000
  C   C226      1.0  0.13909  0.37499  0.19175  1.0000
  C   C227      1.0  0.15596  0.47597  0.18916  1.0000
  H   H186      1.0  0.07845  0.34858  0.38164  1.0000
  H   H187      1.0  0.11269  0.44820  0.25401  1.0000
  C   C228      1.0  0.20322  0.07545  0.34159  1.0000
  C   C229      1.0  0.19058  0.06559  0.34772  1.0000
  C   C230      1.0  0.17298  0.07387  0.35015  1.0000
  C   C231      1.0  0.16793  0.09206  0.34682  1.0000
  C   C232      1.0  0.18054  0.10197  0.34090  1.0000
  C   C233      1.0  0.19817  0.09365  0.33808  1.0000
  H   H188      1.0  0.19433  0.05160  0.35030  1.0000
  H   H189      1.0  0.16330  0.06616  0.35486  1.0000
  H   H190      1.0  0.17673  0.11602  0.33798  1.0000
  H   H191      1.0  0.20792  0.10133  0.33302  1.0000
  C   C234      1.0  0.41283  0.02996  0.24004  1.0000
  C   C235      1.0  0.41313  0.01540  0.25389  1.0000
  C   C236      1.0  0.46168  0.99903  0.36250  1.0000
  C   C237      1.0  0.30418  0.01198  0.36289  1.0000
  H   H192      1.0  0.33693  0.01701  0.27580  1.0000
  C   C238      1.0  0.31943  0.98895  0.31725  1.0000
  H   H193      1.0  0.10826  0.33257  0.27751  1.0000
  C   C239      1.0  0.10713  0.29924  0.19505  1.0000
  H   H194      1.0  0.17778  0.99884  0.38085  1.0000
  S   S53       1.0  0.38325  0.03820  0.37628  1.0000
  C   C240      1.0  0.44005  0.03183  0.27994  1.0000
  C   C241      1.0  0.44236  0.02171  0.29638  1.0000
  C   C242      1.0  0.03439  0.44809  0.33339  1.0000
  C   C243      1.0  0.41849  0.04205  0.31004  1.0000
  C   C244      1.0  0.41623  0.05210  0.29359  1.0000
  C   C245      1.0  0.42676  0.04682  0.27860  1.0000
  C   C246      1.0  0.11260  0.34504  0.22749  1.0000
  C   C247      1.0  0.06083  0.33557  0.24390  1.0000
  H   H195      1.0  0.40638  0.06404  0.29243  1.0000
  H   H196      1.0  0.42494  0.05465  0.26593  1.0000
  C   C248      1.0  0.05224  0.32371  0.24233  1.0000
  C   C249      1.0  0.34133  0.02894  0.26963  1.0000
  C   C250      1.0  0.33059  0.01501  0.31089  1.0000
  H   H197      1.0  0.09716  0.07899  0.32829  1.0000
  C   C251      1.0  0.04069  0.30685  0.20549  1.0000
  C   C252      1.0  0.32418  0.02555  0.37630  1.0000
  C   C253      1.0  0.01303  0.47390  0.33976  1.0000
  C   C254      1.0  0.35518  0.04700  0.24371  1.0000
  H   H198      1.0  0.37940  0.05281  0.31096  1.0000
  H   H199      1.0  0.39270  0.01345  0.28772  1.0000
  C   C255      1.0  0.06675  0.14933  0.38044  1.0000
  H   H200      1.0  0.19504  0.14485  0.33776  1.0000
  H   H201      1.0  0.04287  0.43589  0.33795  1.0000
  H   H202      1.0  0.20333  0.11589  0.35656  1.0000
  C   C256      1.0  0.10956  0.33575  0.26353  1.0000
  H   H203      1.0  0.26801  0.04731  0.33408  1.0000
  C   C257      1.0  0.00146  0.47176  0.23258  1.0000
  C   C258      1.0  0.17147  0.40677  0.21392  1.0000
  H   H204      1.0  0.02203  0.41081  0.20938  1.0000
  H   H205      1.0  0.48272  0.05378  0.27902  1.0000
  C   C259      1.0  0.27104  0.06612  0.30978  1.0000
  C   C260      1.0  0.03159  0.39268  0.25732  1.0000
  H   H206      1.0  0.16807  0.42898  0.24436  1.0000
  C   C261      1.0  0.20673  0.15709  0.36842  1.0000
  C   C262      1.0  0.16558  0.42069  0.20094  1.0000
  C   C263      1.0  0.16088  0.43783  0.20334  1.0000
  C   C264      1.0  0.06363  0.36138  0.20251  1.0000
  C   C265      1.0  0.12282  0.37957  0.18745  1.0000
  C   C266      1.0  0.21150  0.14068  0.37911  1.0000
  C   C267      1.0  0.05907  0.37693  0.19066  1.0000
  C   C268      1.0  0.06657  0.42833  0.30705  1.0000
  H   H207      1.0  0.03803  0.38686  0.29219  1.0000
  C   C269      1.0  0.09279  0.21144  0.38062  1.0000
  C   C270      1.0  0.23638  0.09407  0.37986  1.0000
  H   H208      1.0  0.44091  0.00509  0.22626  1.0000
  S   S54       1.0  0.41486  0.00624  0.36521  1.0000
  H   H209      1.0  0.08819  0.13545  0.36441  1.0000
  H   H210      1.0  0.16445  0.41799  0.18917  1.0000
  H   H211      1.0  0.00679  0.39851  0.29224  1.0000
  H   H212      1.0  0.03258  0.34927  0.27897  1.0000
  H   H213      1.0  0.03077  0.31111  0.25335  1.0000
  H   H214      1.0  0.45368  0.07351  0.27895  1.0000
  C   C271      1.0  0.29450  0.04357  0.32007  1.0000
  C   C272      1.0  0.05829  0.25755  0.31438  1.0000
  C   C273      1.0  0.09171  0.30625  0.22278  1.0000
  S   S55       1.0  0.99600  0.43103  0.23541  1.0000
  H   H215      1.0  0.13787  0.34862  0.22628  1.0000
  H   H216      1.0  0.99669  0.46624  0.22481  1.0000
  C   C274      1.0  0.09018  0.32407  0.21524  1.0000
  H   H217      1.0  0.29882  0.03254  0.32999  1.0000
  H   H218      1.0  0.16061  0.21913  0.34033  1.0000
  H   H219      1.0  0.46908  0.01053  0.31831  1.0000
  C   C275      1.0  0.02033  0.38168  0.33850  1.0000
  H   H220      1.0  0.00018  0.31445  0.23065  1.0000
  H   H221      1.0  0.02503  0.29023  0.22444  1.0000
  C   C276      1.0  0.02407  0.45804  0.34535  1.0000
  C   C277      1.0  0.03574  0.23502  0.32991  1.0000
  C   C278      1.0  0.02581  0.30351  0.21783  1.0000
  C   C279      1.0  0.02162  0.30657  0.34567  1.0000
  S   S56       1.0  0.40543  0.04947  0.32850  1.0000
  C   C280      1.0  0.33141  0.01036  0.37009  1.0000
  C   C281      1.0  0.09727  0.34065  0.23828  1.0000
  C   C282      1.0  0.08121  0.20760  0.37328  1.0000
  C   C283      1.0  0.00528  0.37008  0.32446  1.0000
  H   H222      1.0  0.05993  0.34990  0.20207  1.0000
  C   C284      1.0  0.09992  0.29389  0.21267  1.0000
  S   S57       1.0  0.03350  0.12381  0.36307  1.0000
  H   H223      1.0  0.15049  0.28827  0.20145  1.0000
  C   C285      1.0  0.99587  0.46780  0.25064  1.0000
  C   C286      1.0  0.01674  0.39970  0.21080  1.0000
  C   C287      1.0  0.31819  0.00674  0.30995  1.0000
  C   C288      1.0  0.45828  0.03961  0.36070  1.0000
  C   C289      1.0  0.02627  0.46803  0.19361  1.0000
  H   H224      1.0  0.10320  0.43383  0.18786  1.0000
  H   H225      1.0  0.35409  0.01112  0.32007  1.0000
  H   H226      1.0  0.01630  0.34190  0.36843  1.0000
  H   H227      1.0  0.12665  0.34166  0.36190  1.0000
  C   C290      1.0  0.44080  0.03879  0.36702  1.0000
  C   C291      1.0  0.34948  0.03163  0.25204  1.0000
  C   C292      1.0  0.03717  0.32049  0.25442  1.0000
  C   C293      1.0  0.46529  0.04426  0.32248  1.0000
  C   C294      1.0  0.47744  0.04383  0.30672  1.0000
  C   C295      1.0  0.47329  0.05442  0.29112  1.0000
  C   C296      1.0  0.45701  0.06561  0.29109  1.0000
  H   H228      1.0  0.03261  0.36172  0.32398  1.0000
  H   H229      1.0  0.13249  0.07135  0.37544  1.0000
  C   C297      1.0  0.40448  0.03144  0.22680  1.0000
  H   H230      1.0  0.11396  0.34883  0.21350  1.0000
  H   H231      1.0  0.03189  0.37991  0.26575  1.0000
  C   C298      1.0  0.07852  0.07138  0.37034  1.0000
  H   H232      1.0  0.04803  0.43923  0.26455  1.0000
  S   S58       1.0  0.37804  0.01427  0.35240  1.0000
  H   H233      1.0  0.05275  0.48029  0.21149  1.0000
  H   H234      1.0  0.43459  0.03302  0.36072  1.0000
  H   H235      1.0  0.09796  0.34287  0.19161  1.0000
  H   H236      1.0  0.05471  0.40803  0.32538  1.0000
  H   H237      1.0  0.10985  0.42711  0.29776  1.0000
  C   C299      1.0  0.06466  0.35253  0.38220  1.0000
  C   C300      1.0  0.00475  0.39272  0.34448  1.0000
  C   C301      1.0  0.01850  0.22571  0.37211  1.0000
  H   H238      1.0  0.00771  0.30908  0.34850  1.0000
  C   C302      1.0  0.05766  0.30024  0.33794  1.0000
  H   H239      1.0  0.08439  0.33232  0.26504  1.0000
  C   C303      1.0  0.44899  0.05567  0.32234  1.0000
  H   H240      1.0  0.03869  0.08659  0.35985  1.0000
  H   H241      1.0  0.03003  0.43867  0.22720  1.0000
  C   C304      1.0  0.01374  0.46094  0.19102  1.0000
  H   H242      1.0  0.05926  0.35491  0.25783  1.0000
  H   H243      1.0  0.08468  0.37557  0.22453  1.0000
  Fe  Fe28      1.0  0.99683  0.27637  0.37318  1.0000
  S   S59       1.0  0.02144  0.27176  0.35316  1.0000
  H   H244      1.0  0.22760  0.08447  0.36245  1.0000
  C   C305      1.0  0.46640  0.98865  0.22446  1.0000
  C   C306      1.0  0.17254  0.40977  0.22948  1.0000
  P   P6        1.0  0.47078  0.03009  0.34248  1.0000
  C   C307      1.0  0.09589  0.33591  0.25637  1.0000
  H   H245      1.0  0.12319  0.01314  0.36111  1.0000
  C   C308      1.0  0.00669  0.42369  0.29547  1.0000
  H   H246      1.0  0.01743  0.23743  0.36199  1.0000
  H   H247      1.0  0.34238  0.06724  0.27742  1.0000
  H   H248      1.0  0.35689  0.07175  0.24643  1.0000
  C   C309      1.0  0.06553  0.08134  0.36114  1.0000
  C   C310      1.0  0.14435  0.48333  0.20262  1.0000
  H   H249      1.0  0.17455  0.39356  0.21217  1.0000
  H   H250      1.0  0.30145  0.04611  0.38012  1.0000
  C   C311      1.0  0.45623  0.05385  0.38368  1.0000
  C   C312      1.0  0.02991  0.32038  0.34189  1.0000
  H   H251      1.0  0.20758  0.16867  0.37168  1.0000
  C   C313      1.0  0.07313  0.39124  0.20310  1.0000
  C   C314      1.0  0.11065  0.46223  0.25034  1.0000
  C   C315      1.0  0.04942  0.28652  0.34160  1.0000
  H   H252      1.0  0.17680  0.99447  0.30073  1.0000
  C   C316      1.0  0.35256  0.05978  0.25291  1.0000
  C   C317      1.0  0.01271  0.48646  0.25309  1.0000
  H   H253      1.0  0.25663  0.07047  0.34903  1.0000
  C   C318      1.0  0.40466  0.00240  0.25486  1.0000
  C   C319      1.0  0.14702  0.22055  0.34091  1.0000
  C   C320      1.0  0.02404  0.38337  0.21998  1.0000
  C   C321      1.0  0.16197  0.44070  0.21908  1.0000
  C   C322      1.0  0.16778  0.42672  0.23206  1.0000
  H   H254      1.0  0.13515  0.34041  0.25827  1.0000
  H   H255      1.0  0.15828  0.04712  0.33556  1.0000
  H   H256      1.0  0.13567  0.07206  0.34378  1.0000
  C   C323      1.0  0.25519  0.07736  0.35897  1.0000
  H   H257      1.0  0.05568  0.40523  0.29457  1.0000
  H   H258      1.0  0.43217  0.07479  0.30670  1.0000
  H   H259      1.0  0.15894  0.25875  0.21972  1.0000
  H   H260      1.0  0.07163  0.29760  0.33488  1.0000
  H   H261      1.0  0.36451  0.04245  0.29511  1.0000
  C   C324      1.0  0.23864  0.08525  0.36676  1.0000
  C   C325      1.0  0.33987  0.04572  0.31350  1.0000
  H   H262      1.0  0.19659  0.17130  0.34548  1.0000
  Fe  Fe29      1.0  0.48151  0.01605  0.26175  1.0000
  H   H263      1.0  0.36440  0.06052  0.33919  1.0000
  H   H264      1.0  0.47021  0.99483  0.23244  1.0000
  H   H265      1.0  0.00324  0.33296  0.25037  1.0000
  C   C326      1.0  0.07767  0.37570  0.21506  1.0000
  H   H266      1.0  0.05715  0.27350  0.34180  1.0000
  H   H267      1.0  0.39040  0.01926  0.21689  1.0000
  C   C327      1.0  0.05177  0.45553  0.27937  1.0000
  H   H268      1.0  0.28257  0.07256  0.35759  1.0000
  C   C328      1.0  0.13280  0.05922  0.34782  1.0000
  C   C329      1.0  0.28264  0.07198  0.29471  1.0000
  C   C330      1.0  0.20438  0.12728  0.35999  1.0000
  C   C331      1.0  0.30019  0.06359  0.29225  1.0000
  C   C332      1.0  0.04797  0.31704  0.33885  1.0000
  P   P7        1.0  0.04674  0.44107  0.30019  1.0000
  H   H269      1.0  0.36152  0.04906  0.23009  1.0000
  H   H270      1.0  0.05742  0.47438  0.28973  1.0000
  C   C333      1.0  0.07435  0.13803  0.36916  1.0000
  C   C334      1.0  0.14226  0.02846  0.34801  1.0000
  H   H271      1.0  0.11369  0.28972  0.18721  1.0000
  H   H272      1.0  0.27797  0.08296  0.28487  1.0000
  H   H273      1.0  0.30889  0.06831  0.28045  1.0000
  C   C335      1.0  0.30624  0.04923  0.30491  1.0000
  C   C336      1.0  0.10274  0.47158  0.23637  1.0000
  S   S60       1.0  0.24799  0.98822  0.37047  1.0000
  H   H274      1.0  0.08287  0.44564  0.28977  1.0000
  C   C337      1.0  0.04187  0.41036  0.29570  1.0000
  H   H275      1.0  0.08222  0.38941  0.33277  1.0000
  C   C338      1.0  0.34023  0.05541  0.33877  1.0000
  C   C339      1.0  0.35747  0.05657  0.33199  1.0000
  C   C340      1.0  0.43144  0.02675  0.31146  1.0000
  S   S61       1.0  0.09877  0.32587  0.36025  1.0000
  H   H276      1.0  0.11265  0.38935  0.19295  1.0000
  C   C341      1.0  0.36599  0.05212  0.31611  1.0000
  H   H277      1.0  0.31822  0.04881  0.33531  1.0000
  C   C342      1.0  0.00397  0.34120  0.37735  1.0000
  C   C343      1.0  0.03819  0.34199  0.26884  1.0000
  C   C344      1.0  0.46549  0.00933  0.34566  1.0000
  C   C345      1.0  0.33143  0.05000  0.32960  1.0000
  C   C346      1.0  0.03411  0.42733  0.29808  1.0000
  H   H278      1.0  0.46153  0.00352  0.37375  1.0000
  P   P8        1.0  0.32880  0.03806  0.30191  1.0000
  C   C347      1.0  0.07335  0.36056  0.21447  1.0000
  C   C348      1.0  0.03046  0.42587  0.23568  1.0000
  H   H279      1.0  0.07678  0.40286  0.20323  1.0000
  C   C349      1.0  0.01179  0.31726  0.22140  1.0000
  C   C350      1.0  0.11605  0.47104  0.25960  1.0000
  C   C351      1.0  0.05335  0.34508  0.25690  1.0000
  H   H280      1.0  0.33380  0.05838  0.35133  1.0000
  H   H281      1.0  0.14033  0.24820  0.34011  1.0000
  H   H282      1.0  0.49012  0.03518  0.30636  1.0000
  H   H283      1.0  0.10980  0.39892  0.31893  1.0000
  H   H284      1.0  0.43315  0.01900  0.32416  1.0000
  C   C352      1.0  0.29705  0.02764  0.36842  1.0000
  C   C353      1.0  0.10168  0.09297  0.34478  1.0000
  C   C354      1.0  0.35736  0.04646  0.30703  1.0000
  C   C355      1.0  0.10543  0.10840  0.34532  1.0000
  H   H285      1.0  0.25739  0.07246  0.31163  1.0000
  H   H286      1.0  0.13432  0.47688  0.21120  1.0000
  H   H287      1.0  0.17084  0.18917  0.36791  1.0000
  C   C356      1.0  0.06397  0.13038  0.36385  1.0000
  C   C357      1.0  0.34437  0.05716  0.27049  1.0000
  C   C358      1.0  0.48733  0.01369  0.19175  1.0000
  H   H288      1.0  0.01844  0.32730  0.27707  1.0000
  C   C359      1.0  0.06255  0.19725  0.34759  1.0000
  C   C360      1.0  0.07983  0.19403  0.33855  1.0000
  C   C361      1.0  0.08642  0.17995  0.33046  1.0000
  C   C362      1.0  0.07571  0.16915  0.33113  1.0000
  C   C363      1.0  0.05838  0.17254  0.33975  1.0000
  C   C364      1.0  0.05180  0.18651  0.34797  1.0000
  C   C365      1.0  0.05107  0.45134  0.26418  1.0000
  C   C366      1.0  0.08210  0.40198  0.32385  1.0000
  C   C367      1.0  0.00221  0.40183  0.20413  1.0000
  C   C368      1.0  0.11304  0.04010  0.36239  1.0000
  C   C369      1.0  0.12594  0.02598  0.35759  1.0000
  C   C370      1.0  0.04972  0.23347  0.33736  1.0000
  C   C371      1.0  0.12491  0.44331  0.18841  1.0000
  C   C372      1.0  0.03833  0.14541  0.38095  1.0000
  C   C373      1.0  0.10627  0.31692  0.18760  1.0000
  H   H289      1.0  0.41344  0.99595  0.33384  1.0000
  C   C374      1.0  0.06136  0.24441  0.32904  1.0000
  H   H290      1.0  0.30733  0.01405  0.30393  1.0000
  H   H291      1.0  0.12227  0.46373  0.27032  1.0000
  C   C375      1.0  0.00153  0.47512  0.26092  1.0000
  H   H292      1.0  0.05003  0.16421  0.34026  1.0000
  S   S62       1.0  0.15495  0.18559  0.34127  1.0000
  H   H293      1.0  0.08814  0.20251  0.33761  1.0000
  H   H294      1.0  0.09981  0.17745  0.32363  1.0000
  H   H295      1.0  0.08078  0.15814  0.32503  1.0000
  C   C376      1.0  0.99527  0.38754  0.20615  1.0000
  H   H296      1.0  0.00474  0.40116  0.35250  1.0000
  H   H297      1.0  0.32688  0.99144  0.35939  1.0000
  H   H298      1.0  0.14744  0.99812  0.38225  1.0000
  C   C377      1.0  0.03939  0.37491  0.37616  1.0000
  H   H299      1.0  0.08671  0.30193  0.23651  1.0000
  Fe  Fe30      1.0  0.39734  0.02913  0.35184  1.0000
  H   H300      1.0  0.43194  0.99147  0.20785  1.0000
  S   S63       1.0  0.05855  0.33310  0.33813  1.0000
  C   C378      1.0  0.06659  0.41252  0.31951  1.0000
  C   C379      1.0  0.39660  0.00379  0.24135  1.0000
  H   H301      1.0  0.07263  0.24322  0.33399  1.0000
  C   C380      1.0  0.41189  0.99351  0.32214  1.0000
  C   C381      1.0  0.09765  0.40731  0.31609  1.0000
  S   S64       1.0  0.12569  0.16476  0.38271  1.0000
  C   C382      1.0  0.39643  0.01832  0.22741  1.0000
  C   C383      1.0  0.02055  0.37030  0.32859  1.0000
  C   C384      1.0  0.10688  0.12177  0.33039  1.0000
  C   C385      1.0  0.10466  0.11981  0.31482  1.0000
  C   C386      1.0  0.10113  0.10438  0.31413  1.0000
  C   C387      1.0  0.09978  0.09094  0.32902  1.0000
  C   C388      1.0  0.06576  0.23781  0.36904  1.0000
  H   H302      1.0  0.04106  0.27020  0.29671  1.0000
  H   H303      1.0  0.36951  0.99668  0.27037  1.0000
  C   C389      1.0  0.01718  0.36902  0.22197  1.0000
  H   H304      1.0  0.15222  0.01756  0.34420  1.0000
  H   H305      1.0  0.47354  0.01854  0.19572  1.0000
  C   C390      1.0  0.09768  0.42323  0.30412  1.0000
  H   H306      1.0  0.99617  0.41459  0.19759  1.0000
  H   H307      1.0  0.10585  0.13018  0.30327  1.0000
  H   H308      1.0  0.09951  0.10281  0.30203  1.0000
  H   H309      1.0  0.03495  0.38191  0.22567  1.0000
  C   C391      1.0  0.14567  0.04509  0.34311  1.0000
  C   C392      1.0  0.04860  0.44409  0.18398  1.0000
  C   C393      1.0  0.08225  0.43371  0.29958  1.0000
  C   C394      1.0  0.15023  0.26909  0.22568  1.0000
  C   C395      1.0  0.14550  0.28569  0.21538  1.0000
  C   C396      1.0  0.13439  0.29906  0.22306  1.0000
  C   C397      1.0  0.12791  0.29581  0.24100  1.0000
  C   C398      1.0  0.13277  0.27925  0.25151  1.0000
  C   C399      1.0  0.14399  0.26587  0.24369  1.0000
  P   P9        1.0  0.12545  0.27587  0.27485  1.0000
  C   C400      1.0  0.10274  0.28636  0.27938  1.0000
  C   C401      1.0  0.12862  0.25285  0.28486  1.0000
  C   C402      1.0  0.11464  0.24455  0.29133  1.0000
  C   C403      1.0  0.11748  0.22671  0.29880  1.0000
  C   C404      1.0  0.13420  0.21707  0.30013  1.0000
  C   C405      1.0  0.14809  0.22529  0.29420  1.0000
  C   C406      1.0  0.14534  0.24310  0.28657  1.0000
  C   C407      1.0  0.09644  0.29741  0.29104  1.0000
  C   C408      1.0  0.07885  0.30529  0.29473  1.0000
  C   C409      1.0  0.06735  0.30211  0.28689  1.0000
  C   C410      1.0  0.07352  0.29134  0.27500  1.0000
  C   C411      1.0  0.09118  0.28355  0.27117  1.0000
  C   C412      1.0  0.13772  0.28512  0.28372  1.0000
  C   C413      1.0  0.14633  0.29825  0.27331  1.0000
  C   C414      1.0  0.15522  0.30567  0.28057  1.0000
  C   C415      1.0  0.15569  0.29998  0.29819  1.0000
  C   C416      1.0  0.14728  0.28686  0.30860  1.0000
  C   C417      1.0  0.13827  0.27949  0.30144  1.0000
  H   H310      1.0  0.13082  0.31197  0.21507  1.0000
  H   H311      1.0  0.11942  0.30630  0.24677  1.0000
  H   H312      1.0  0.14804  0.25299  0.25139  1.0000
  H   H313      1.0  0.10151  0.25176  0.29103  1.0000
  H   H314      1.0  0.10663  0.22044  0.30408  1.0000
  H   H315      1.0  0.13635  0.20333  0.30636  1.0000
  H   H316      1.0  0.16092  0.21789  0.29589  1.0000
  H   H317      1.0  0.15624  0.24931  0.28216  1.0000
  H   H318      1.0  0.10507  0.30001  0.29730  1.0000
  H   H319      1.0  0.07413  0.31388  0.30375  1.0000
  H   H320      1.0  0.05367  0.30795  0.29017  1.0000
  H   H321      1.0  0.06457  0.28891  0.26894  1.0000
  H   H322      1.0  0.09582  0.27510  0.26208  1.0000
  H   H323      1.0  0.14615  0.30296  0.25966  1.0000
  H   H324      1.0  0.16163  0.31598  0.27260  1.0000
  H   H325      1.0  0.16239  0.30591  0.30385  1.0000
  H   H326      1.0  0.14739  0.28273  0.32235  1.0000
  H   H327      1.0  0.13145  0.26964  0.30982  1.0000
  H   H328      1.0  0.06249  0.48677  0.23462  1.0000
  C   C418      1.0  0.19976  0.14367  0.34925  1.0000
  H   H329      1.0  0.10752  0.11006  0.35715  1.0000
  C   C419      1.0  0.26972  0.07864  0.36376  1.0000
  H   H330      1.0  0.05696  0.31709  0.23173  1.0000
  P   P10       1.0  0.08036  0.33995  0.22850  1.0000
  H   H331      1.0  0.42047  0.01412  0.26351  1.0000
  H   H332      1.0  0.27898  0.08954  0.37943  1.0000
  H   H333      1.0  0.10997  0.13356  0.33088  1.0000
  C   C420      1.0  0.01546  0.41920  0.24177  1.0000
  C   C421      1.0  0.05725  0.36974  0.37514  1.0000
  H   H334      1.0  0.07663  0.25505  0.37624  1.0000
  S   S65       1.0  0.08189  0.29268  0.36614  1.0000
  H   H335      1.0  0.02292  0.35649  0.22925  1.0000
  C   C422      1.0  0.06420  0.39173  0.19069  1.0000
  P   P11       1.0  0.05361  0.21648  0.35635  1.0000
  C   C423      1.0  0.12993  0.33776  0.37459  1.0000
  P   P12       1.0  0.99456  0.35230  0.21680  1.0000
  H   H336      1.0  0.17644  0.39891  0.23980  1.0000
  H   H337      1.0  0.06985  0.12171  0.35506  1.0000
  C   C424      1.0  0.03138  0.28953  0.34609  1.0000
  C   C425      1.0  0.01607  0.40266  0.25267  1.0000
  H   H338      1.0  0.02231  0.33340  0.34201  1.0000
  C   C426      1.0  0.02249  0.46986  0.31025  1.0000
  H   H339      1.0  0.05525  0.24814  0.36474  1.0000
  H   H340      1.0  0.03508  0.27671  0.38222  1.0000
  C   C427      1.0  0.27701  0.05196  0.32246  1.0000
  H   H341      1.0  0.06801  0.09167  0.34987  1.0000
  C   C428      1.0  0.43118  0.04531  0.38161  1.0000
  C   C429      1.0  0.03383  0.45403  0.31569  1.0000
  C   C430      1.0  0.32142  0.00361  0.36345  1.0000
  H   H342      1.0  0.35134  0.02181  0.24483  1.0000
  H   H343      1.0  0.39613  0.01899  0.31445  1.0000
  C   C431      1.0  0.46594  0.00295  0.33138  1.0000
  H   H344      1.0  0.43916  0.05620  0.33410  1.0000
  H   H345      1.0  0.99321  0.42901  0.29476  1.0000
  C   C432      1.0  0.01433  0.40655  0.29399  1.0000
  C   C433      1.0  0.04594  0.13408  0.36968  1.0000
  H   H346      1.0  0.02472  0.45349  0.35895  1.0000
  C   C434      1.0  0.03192  0.39994  0.29405  1.0000
  H   H347      1.0  0.34454  0.00345  0.37094  1.0000
  C   C435      1.0  0.11640  0.05685  0.35760  1.0000
  S   S66       1.0  0.29191  0.00158  0.35632  1.0000
  C   C436      1.0  0.06793  0.22089  0.36696  1.0000
  H   H348      1.0  0.08292  0.19438  0.37217  1.0000
  H   H349      1.0  0.28373  0.03416  0.36797  1.0000
  H   H350      1.0  0.41966  0.03975  0.23936  1.0000
  H   H351      1.0  0.47936  0.04806  0.36459  1.0000
  C   C437      1.0  0.44494  0.06636  0.30672  1.0000
  H   H352      1.0  0.03362  0.38826  0.37075  1.0000
  C   C438      1.0  0.04378  0.25964  0.30766  1.0000
  C   C439      1.0  0.30702  0.03432  0.37533  1.0000
  Fe  Fe31      1.0  0.39450  0.99187  0.36795  1.0000
  H   H353      1.0  0.15773  0.21802  0.37516  1.0000
  C   C440      1.0  0.00299  0.37096  0.21466  1.0000
  C   C441      1.0  0.44979  0.99445  0.22098  1.0000
  C   C442      1.0  0.15222  0.36242  0.18447  1.0000
  H   H354      1.0  0.15240  0.31828  0.36702  1.0000
  P   P13       1.0  0.10019  0.07540  0.36379  1.0000
  H   H355      1.0  0.05147  0.29620  0.20257  1.0000
  H   H356      1.0  0.16483  0.35888  0.18771  1.0000
  Fe  Fe32      1.0  0.10836  0.15167  0.37641  1.0000
  C   C443      1.0  0.34552  0.98746  0.32626  1.0000
  C   C444      1.0  0.14458  0.32462  0.37742  1.0000
  C   C445      1.0  0.04454  0.06612  0.38194  1.0000
  C   C446      1.0  0.05906  0.47825  0.24710  1.0000
  P   P14       1.0  0.15395  0.45573  0.18608  1.0000
  C   C447      1.0  0.03432  0.21359  0.37275  1.0000
  C   C448      1.0  0.07761  0.24169  0.37595  1.0000
  C   C449      1.0  0.16313  0.19003  0.38077  1.0000
  H   H357      1.0  0.06540  0.37901  0.36886  1.0000
  Fe  Fe33      1.0  0.36508  0.02169  0.37799  1.0000
  Fe  Fe34      1.0  0.00441  0.12919  0.37307  1.0000
  C   C450      1.0  0.06009  0.48236  0.26210  1.0000
  H   H358      1.0  0.10047  0.03784  0.36951  1.0000
  H   H359      1.0  0.99711  0.47220  0.27489  1.0000
  H   H360      1.0  0.39085  0.99345  0.24136  1.0000
  C   C451      1.0  0.46593  0.04726  0.36911  1.0000
  C   C452      1.0  0.26766  0.08810  0.37620  1.0000
  H   H361      1.0  0.01064  0.44748  0.29790  1.0000
  H   H362      1.0  0.02157  0.47470  0.29672  1.0000
  C   C453      1.0  0.04870  0.07858  0.36686  1.0000
  C   C454      1.0  0.03263  0.24823  0.31529  1.0000
  H   H363      1.0  0.00013  0.46711  0.19388  1.0000
  H   H364      1.0  0.03230  0.38175  0.34152  1.0000
  H   H365      1.0  0.12117  0.40662  0.37796  1.0000
  C   C455      1.0  0.40870  0.98727  0.29144  1.0000
  Fe  Fe35      1.0  0.22670  0.00854  0.38150  1.0000
  C   C456      1.0  0.04150  0.32393  0.19660  1.0000
  H   H366      1.0  0.00465  0.39734  0.25733  1.0000
  C   C457      1.0  0.13170  0.45803  0.18527  1.0000
  H   H367      1.0  0.00555  0.36121  0.31676  1.0000
  C   C458      1.0  0.40037  0.00330  0.29598  1.0000
  C   C459      1.0  0.09120  0.22854  0.38164  1.0000
  C   C460      1.0  0.40213  0.00645  0.31121  1.0000
  H   H368      1.0  0.05283  0.32655  0.18668  1.0000
  C   C461      1.0  0.10462  0.08052  0.38198  1.0000
  H   H369      1.0  0.99146  0.23203  0.38386  1.0000
  C   C462      1.0  0.32521  0.06050  0.41717  1.0000
  C   C463      1.0  0.04069  0.12873  0.54420  1.0000
  C   C464      1.0  0.03678  0.48366  0.51752  1.0000
  P   P15       1.0  0.11167  0.35260  0.42116  1.0000
  H   H370      1.0  0.08009  0.37976  0.42791  1.0000
  C   C465      1.0  0.13734  0.03586  0.40240  1.0000
  C   C466      1.0  0.19388  0.06345  0.39349  1.0000
  C   C467      1.0  0.11390  0.03636  0.46151  1.0000
  C   C468      1.0  0.01883  0.26340  0.56282  1.0000
  C   C469      1.0  0.01573  0.23059  0.46703  1.0000
  C   C470      1.0  0.13892  0.32779  0.40706  1.0000
  C   C471      1.0  0.05994  0.19642  0.41953  1.0000
  H   H371      1.0  0.41105  0.00974  0.55604  1.0000
  Fe  Fe36      1.0  0.21563  0.04092  0.50096  1.0000
  S   S67       1.0  0.24396  0.02865  0.49446  1.0000
  S   S68       1.0  0.20538  0.06950  0.49080  1.0000
  H   H372      1.0  0.17864  0.11357  0.38672  1.0000
  H   H373      1.0  0.10760  0.99786  0.57736  1.0000
  H   H374      1.0  0.14667  0.02864  0.48499  1.0000
  C   C472      1.0  0.01800  0.34760  0.43029  1.0000
  Fe  Fe37      1.0  0.37484  0.03927  0.52803  1.0000
  S   S69       1.0  0.38631  0.02374  0.50740  1.0000
  Fe  Fe38      1.0  0.33835  0.03561  0.53067  1.0000
  S   S70       1.0  0.34677  0.01993  0.51041  1.0000
  S   S71       1.0  0.30995  0.04377  0.54213  1.0000
  Fe  Fe39      1.0  0.36885  0.00596  0.52380  1.0000
  Fe  Fe40      1.0  0.36337  0.03901  0.49581  1.0000
  S   S72       1.0  0.36224  0.05089  0.46776  1.0000
  S   S73       1.0  0.35315  0.05607  0.51503  1.0000
  C   C473      1.0  0.12713  0.33454  0.44931  1.0000
  C   C474      1.0  0.14457  0.34576  0.46111  1.0000
  H   H375      1.0  0.04616  0.12635  0.42820  1.0000
  C   C475      1.0  0.12332  0.47869  0.53320  1.0000
  H   H376      1.0  0.00788  0.23049  0.49444  1.0000
  S   S74       1.0  0.37966  0.99779  0.39372  1.0000
  C   C476      1.0  0.11086  0.08741  0.41114  1.0000
  H   H377      1.0  0.07789  0.09203  0.39158  1.0000
  S   S75       1.0  0.20918  0.00382  0.40779  1.0000
  Fe  Fe41      1.0  0.08074  0.13193  0.53795  1.0000
  S   S76       1.0  0.07960  0.14688  0.51077  1.0000
  S   S77       1.0  0.05539  0.12840  0.55635  1.0000
  Fe  Fe42      1.0  0.12018  0.12496  0.53007  1.0000
  S   S78       1.0  0.12189  0.13985  0.50233  1.0000
  S   S79       1.0  0.14342  0.10875  0.54114  1.0000
  Fe  Fe43      1.0  0.09941  0.15937  0.51340  1.0000
  S   S80       1.0  0.09425  0.18833  0.50247  1.0000
  Fe  Fe44      1.0  0.10196  0.12592  0.50266  1.0000
  S   S81       1.0  0.10117  0.11214  0.48295  1.0000
  S   S82       1.0  0.09919  0.14573  0.54134  1.0000
  S   S83       1.0  0.10156  0.10991  0.52960  1.0000
  Fe  Fe45      1.0  0.11143  0.30428  0.51729  1.0000
  S   S84       1.0  0.10360  0.31276  0.49139  1.0000
  S   S85       1.0  0.11438  0.32767  0.52517  1.0000
  Fe  Fe46      1.0  0.10925  0.26674  0.52102  1.0000
  S   S86       1.0  0.10158  0.27254  0.49547  1.0000
  S   S87       1.0  0.11163  0.23923  0.53758  1.0000
  Fe  Fe47      1.0  0.12179  0.28824  0.48538  1.0000
  S   S88       1.0  0.13817  0.28755  0.45851  1.0000
  Fe  Fe48      1.0  0.08403  0.29645  0.50354  1.0000
  S   S89       1.0  0.05725  0.30703  0.49803  1.0000
  S   S90       1.0  0.13133  0.28068  0.51031  1.0000
  S   S91       1.0  0.09005  0.28975  0.53002  1.0000
  H   H378      1.0  0.02122  0.18488  0.41005  1.0000
  C   C477      1.0  0.09595  0.41065  0.39487  1.0000
  C   C478      1.0  0.08372  0.33850  0.42320  1.0000
  S   S92       1.0  0.08927  0.29872  0.40691  1.0000
  C   C479      1.0  0.11749  0.99142  0.55229  1.0000
  S   S93       1.0  0.15439  0.13024  0.41302  1.0000
  P   P16       1.0  0.01598  0.12214  0.45642  1.0000
  H   H379      1.0  0.27929  0.00723  0.39608  1.0000
  C   C480      1.0  0.13550  0.03760  0.41934  1.0000
  C   C481      1.0  0.05927  0.13349  0.47438  1.0000
  H   H380      1.0  0.19075  0.12798  0.41088  1.0000
  C   C482      1.0  0.24795  0.99769  0.43147  1.0000
  H   H381      1.0  0.09120  0.23644  0.46749  1.0000
  H   H382      1.0  0.05075  0.32700  0.45627  1.0000
  H   H383      1.0  0.07799  0.06505  0.47674  1.0000
  C   C483      1.0  0.04632  0.29042  0.50176  1.0000
  C   C484      1.0  0.02978  0.29458  0.49822  1.0000
  H   H384      1.0  0.02401  0.30790  0.49282  1.0000
  C   C485      1.0  0.12493  0.28991  0.44401  1.0000
  C   C486      1.0  0.10696  0.29326  0.44968  1.0000
  C   C487      1.0  0.09632  0.29522  0.43826  1.0000
  C   C488      1.0  0.10347  0.29486  0.42080  1.0000
  C   C489      1.0  0.12146  0.29149  0.41498  1.0000
  C   C490      1.0  0.13221  0.28878  0.42668  1.0000
  H   H385      1.0  0.10112  0.29462  0.46282  1.0000
  H   H386      1.0  0.08245  0.29741  0.44295  1.0000
  H   H387      1.0  0.12706  0.29103  0.40152  1.0000
  H   H388      1.0  0.14612  0.28609  0.42226  1.0000
  C   C491      1.0  0.11679  0.11583  0.46389  1.0000
  C   C492      1.0  0.13176  0.12066  0.46389  1.0000
  C   C493      1.0  0.14352  0.12478  0.44824  1.0000
  C   C494      1.0  0.14014  0.12426  0.43261  1.0000
  C   C495      1.0  0.12548  0.11886  0.43273  1.0000
  C   C496      1.0  0.11391  0.11443  0.44838  1.0000
  H   H389      1.0  0.13433  0.12118  0.47591  1.0000
  H   H390      1.0  0.15496  0.12875  0.44822  1.0000
  H   H391      1.0  0.12292  0.11824  0.42079  1.0000
  H   H392      1.0  0.10237  0.11069  0.44829  1.0000
  C   C497      1.0  0.09861  0.20180  0.51331  1.0000
  C   C498      1.0  0.09116  0.21962  0.50955  1.0000
  C   C499      1.0  0.09475  0.23095  0.51737  1.0000
  C   C500      1.0  0.10629  0.22472  0.52860  1.0000
  C   C501      1.0  0.11343  0.20676  0.53280  1.0000
  C   C502      1.0  0.10954  0.19528  0.52522  1.0000
  H   H393      1.0  0.08230  0.22469  0.50080  1.0000
  H   H394      1.0  0.08835  0.24447  0.51489  1.0000
  H   H395      1.0  0.12219  0.20178  0.54168  1.0000
  H   H396      1.0  0.11529  0.18150  0.52827  1.0000
  C   C503      1.0  0.15876  0.06917  0.43455  1.0000
  H   H397      1.0  0.06069  0.11898  0.52397  1.0000
  C   C504      1.0  0.05014  0.23486  0.46785  1.0000
  C   C505      1.0  0.37689  0.04017  0.45215  1.0000
  C   C506      1.0  0.37190  0.04164  0.43673  1.0000
  C   C507      1.0  0.38266  0.03234  0.42441  1.0000
  C   C508      1.0  0.39875  0.02196  0.42717  1.0000
  C   C509      1.0  0.40405  0.02088  0.44237  1.0000
  C   C510      1.0  0.39306  0.02993  0.45493  1.0000
  H   H398      1.0  0.35951  0.04974  0.43450  1.0000
  H   H399      1.0  0.37845  0.03319  0.41280  1.0000
  C   C511      1.0  0.09403  0.09178  0.40830  1.0000
  H   H400      1.0  0.39706  0.02898  0.46674  1.0000
  C   C512      1.0  0.18756  0.07975  0.50479  1.0000
  C   C513      1.0  0.17687  0.09539  0.49792  1.0000
  C   C514      1.0  0.16294  0.10406  0.50892  1.0000
  C   C515      1.0  0.15987  0.09737  0.52691  1.0000
  C   C516      1.0  0.17052  0.08168  0.53374  1.0000
  C   C517      1.0  0.18415  0.07275  0.52269  1.0000
  H   H401      1.0  0.17927  0.10081  0.48409  1.0000
  H   H402      1.0  0.15492  0.11620  0.50353  1.0000
  H   H403      1.0  0.16822  0.07643  0.54762  1.0000
  H   H404      1.0  0.19226  0.06071  0.52813  1.0000
  C   C518      1.0  0.17187  0.08984  0.38800  1.0000
  H   H405      1.0  0.01282  0.30637  0.43675  1.0000
  C   C519      1.0  0.17108  0.98725  0.46732  1.0000
  C   C520      1.0  0.22073  0.00162  0.42351  1.0000
  C   C521      1.0  0.00995  0.31936  0.45695  1.0000
  C   C522      1.0  0.04695  0.12372  0.52834  1.0000
  C   C523      1.0  0.19995  0.09153  0.39068  1.0000
  H   H406      1.0  0.10078  0.08943  0.58054  1.0000
  C   C524      1.0  0.21254  0.10575  0.41161  1.0000
  C   C525      1.0  0.04852  0.18615  0.51378  1.0000
  H   H407      1.0  0.23041  0.98838  0.56597  1.0000
  C   C526      1.0  0.30334  0.01477  0.53704  1.0000
  C   C527      1.0  0.29666  0.03183  0.53927  1.0000
  C   C528      1.0  0.27901  0.03928  0.53987  1.0000
  C   C529      1.0  0.26807  0.02977  0.53810  1.0000
  H   H408      1.0  0.06650  0.26989  0.51144  1.0000
  H   H409      1.0  0.27375  0.05236  0.54194  1.0000
  H   H410      1.0  0.25438  0.03537  0.53908  1.0000
  C   C530      1.0  0.02768  0.26439  0.50959  1.0000
  H   H411      1.0  0.34085  0.00037  0.41983  1.0000
  C   C531      1.0  0.99777  0.18077  0.55046  1.0000
  Fe  Fe49      1.0  0.39896  0.01366  0.38990  1.0000
  H   H412      1.0  0.00964  0.14550  0.42282  1.0000
  C   C532      1.0  0.32328  0.07342  0.40214  1.0000
  C   C533      1.0  0.14600  0.04307  0.51732  1.0000
  H   H413      1.0  0.04748  0.18975  0.38753  1.0000
  Fe  Fe50      1.0  0.20536  0.00644  0.51682  1.0000
  C   C534      1.0  0.00025  0.14195  0.45078  1.0000
  H   H414      1.0  0.04111  0.15697  0.47935  1.0000
  H   H415      1.0  0.26614  0.17050  0.48277  1.0000
  H   H416      1.0  0.01893  0.23393  0.43912  1.0000
  H   H417      1.0  0.13028  0.07094  0.45931  1.0000
  C   C535      1.0  0.99505  0.21197  0.54267  1.0000
  H   H418      1.0  0.04033  0.12098  0.50581  1.0000
  H   H419      1.0  0.05042  0.24677  0.51761  1.0000
  C   C536      1.0  0.07409  0.05916  0.38575  1.0000
  C   C537      1.0  0.04666  0.11117  0.41077  1.0000
  H   H420      1.0  0.09230  0.42427  0.38861  1.0000
  C   C538      1.0  0.04352  0.14558  0.47419  1.0000
  H   H421      1.0  0.16884  0.06435  0.38943  1.0000
  C   C539      1.0  0.18618  0.05914  0.45178  1.0000
  C   C540      1.0  0.01744  0.33234  0.42609  1.0000
  H   H422      1.0  0.14659  0.03221  0.52848  1.0000
  H   H423      1.0  0.02277  0.47780  0.56804  1.0000
  H   H424      1.0  0.41651  0.01287  0.44455  1.0000
  C   C541      1.0  0.02045  0.19625  0.39944  1.0000
  H   H425      1.0  0.02830  0.25711  0.46840  1.0000
  H   H426      1.0  0.15797  0.00151  0.50492  1.0000
  H   H427      1.0  0.05727  0.20840  0.49691  1.0000
  C   C542      1.0  0.14527  0.20747  0.40127  1.0000
  S   S94       1.0  0.18102  0.99629  0.52855  1.0000
  C   C543      1.0  0.15021  0.03509  0.42610  1.0000
  C   C544      1.0  0.16873  0.08092  0.43299  1.0000
  H   H428      1.0  0.24474  0.05567  0.51264  1.0000
  C   C545      1.0  0.02374  0.09875  0.57992  1.0000
  C   C546      1.0  0.12462  0.08005  0.39921  1.0000
  C   C547      1.0  0.25922  0.14652  0.48455  1.0000
  H   H429      1.0  0.27215  0.06523  0.50483  1.0000
  C   C548      1.0  0.05434  0.34034  0.38996  1.0000
  C   C549      1.0  0.26898  0.15647  0.48744  1.0000
  H   H430      1.0  0.13337  0.30074  0.54962  1.0000
  H   H431      1.0  0.09988  0.08231  0.47152  1.0000
  C   C550      1.0  0.13717  0.33233  0.46136  1.0000
  C   C551      1.0  0.08915  0.38542  0.41698  1.0000
  C   C552      1.0  0.30621  0.07012  0.49492  1.0000
  C   C553      1.0  0.03827  0.10077  0.40663  1.0000
  C   C554      1.0  0.11941  0.01583  0.52758  1.0000
  H   H432      1.0  0.03319  0.16128  0.56967  1.0000
  C   C555      1.0  0.08744  0.30328  0.56786  1.0000
  C   C556      1.0  0.12623  0.04649  0.45749  1.0000
  H   H433      1.0  0.06237  0.32740  0.42494  1.0000
  C   C557      1.0  0.02278  0.13429  0.55003  1.0000
  H   H434      1.0  0.04788  0.30435  0.42238  1.0000
  C   C558      1.0  0.03548  0.12485  0.51805  1.0000
  H   H435      1.0  0.42784  0.99500  0.49302  1.0000
  C   C559      1.0  0.04849  0.20000  0.49922  1.0000
  P   P17       1.0  0.00916  0.19484  0.57169  1.0000
  H   H436      1.0  0.33806  0.05320  0.41871  1.0000
  C   C560      1.0  0.09093  0.23877  0.42380  1.0000
  C   C561      1.0  0.09767  0.25102  0.42714  1.0000
  C   C562      1.0  0.11302  0.24583  0.43323  1.0000
  C   C563      1.0  0.12169  0.22833  0.43598  1.0000
  C   C564      1.0  0.11484  0.21585  0.43296  1.0000
  C   C565      1.0  0.09946  0.22123  0.42671  1.0000
  P   P18       1.0  0.12717  0.19372  0.43434  1.0000
  C   C566      1.0  0.14207  0.19233  0.41372  1.0000
  C   C567      1.0  0.13833  0.18667  0.45217  1.0000
  C   C568      1.0  0.15338  0.17327  0.45191  1.0000
  C   C569      1.0  0.16124  0.16698  0.46629  1.0000
  C   C570      1.0  0.15417  0.17403  0.48100  1.0000
  C   C571      1.0  0.13923  0.18734  0.48135  1.0000
  C   C572      1.0  0.13122  0.19351  0.46712  1.0000
  C   C573      1.0  0.14965  0.17606  0.40948  1.0000
  C   C574      1.0  0.01137  0.33194  0.56204  1.0000
  C   C575      1.0  0.02505  0.11288  0.43747  1.0000
  C   C576      1.0  0.01329  0.31828  0.43960  1.0000
  H   H437      1.0  0.02547  0.30762  0.55548  1.0000
  C   C577      1.0  0.11271  0.17943  0.43840  1.0000
  C   C578      1.0  0.10616  0.17104  0.45542  1.0000
  C   C579      1.0  0.09591  0.15914  0.45829  1.0000
  C   C580      1.0  0.09206  0.15559  0.44426  1.0000
  C   C581      1.0  0.09810  0.16426  0.42733  1.0000
  C   C582      1.0  0.10825  0.17626  0.42443  1.0000
  C   C583      1.0  0.30660  0.08332  0.55459  1.0000
  H   H438      1.0  0.09093  0.26453  0.42514  1.0000
  H   H439      1.0  0.11822  0.25543  0.43574  1.0000
  H   H440      1.0  0.13385  0.22462  0.44022  1.0000
  H   H441      1.0  0.09414  0.21199  0.42382  1.0000
  H   H442      1.0  0.15891  0.16740  0.44083  1.0000
  H   H443      1.0  0.17266  0.15646  0.46614  1.0000
  H   H444      1.0  0.16008  0.16904  0.49224  1.0000
  H   H445      1.0  0.13358  0.19265  0.49284  1.0000
  H   H446      1.0  0.11919  0.20328  0.46809  1.0000
  H   H447      1.0  0.14698  0.16428  0.41867  1.0000
  C   C584      1.0  0.22261  0.09294  0.42245  1.0000
  H   H448      1.0  0.04299  0.09676  0.39438  1.0000
  S   S95       1.0  0.99424  0.25950  0.40004  1.0000
  H   H449      1.0  0.11769  0.02337  0.45905  1.0000
  H   H450      1.0  0.10910  0.17339  0.46653  1.0000
  H   H451      1.0  0.09136  0.15235  0.47142  1.0000
  H   H452      1.0  0.08454  0.14602  0.44644  1.0000
  H   H453      1.0  0.24963  0.10345  0.39358  1.0000
  C   C585      1.0  0.01109  0.09197  0.55997  1.0000
  C   C586      1.0  0.15381  0.03192  0.39200  1.0000
  C   C587      1.0  0.16847  0.02938  0.39862  1.0000
  H   H454      1.0  0.15911  0.09637  0.38544  1.0000
  C   C588      1.0  0.18307  0.09963  0.38840  1.0000
  H   H455      1.0  0.29746  0.99181  0.53439  1.0000
  S   S96       1.0  0.01482  0.24887  0.51750  1.0000
  C   C589      1.0  0.29533  0.08655  0.49061  1.0000
  H   H456      1.0  0.05751  0.18388  0.52212  1.0000
  C   C590      1.0  0.11222  0.40072  0.38886  1.0000
  C   C591      1.0  0.11430  0.46954  0.54842  1.0000
  S   S97       1.0  0.33654  0.03345  0.38543  1.0000
  H   H457      1.0  0.42113  0.02147  0.57527  1.0000
  H   H458      1.0  0.09504  0.16155  0.41645  1.0000
  H   H459      1.0  0.11023  0.43668  0.55268  1.0000
  H   H460      1.0  0.06048  0.27346  0.42275  1.0000
  C   C592      1.0  0.03050  0.14247  0.46834  1.0000
  C   C593      1.0  0.03740  0.20264  0.48793  1.0000
  C   C594      1.0  0.00309  0.33613  0.39537  1.0000
  C   C595      1.0  0.16130  0.06113  0.49271  1.0000
  H   H461      1.0  0.09236  0.08588  0.51587  1.0000
  C   C596      1.0  0.11076  0.00291  0.56345  1.0000
  C   C597      1.0  0.29027  0.00796  0.41680  1.0000
  C   C598      1.0  0.06804  0.22932  0.46718  1.0000
  H   H462      1.0  0.06547  0.33794  0.47218  1.0000
  C   C599      1.0  0.05988  0.07266  0.50888  1.0000
  H   H463      1.0  0.29648  0.12429  0.50939  1.0000
  H   H464      1.0  0.06041  0.32700  0.39511  1.0000
  H   H465      1.0  0.06116  0.31405  0.56497  1.0000
  C   C600      1.0  0.05034  0.19220  0.45075  1.0000
  H   H466      1.0  0.01511  0.36719  0.38531  1.0000
  C   C601      1.0  0.16207  0.05243  0.44520  1.0000
  C   C602      1.0  0.28602  0.13025  0.50252  1.0000
  C   C603      1.0  0.07753  0.24095  0.46732  1.0000
  C   C604      1.0  0.10042  0.41363  0.55976  1.0000
  H   H467      1.0  0.06552  0.09774  0.50503  1.0000
  H   H468      1.0  0.07954  0.06542  0.55353  1.0000
  H   H469      1.0  0.13734  0.47596  0.53059  1.0000
  P   P19       1.0  0.03789  0.21959  0.46820  1.0000
  C   C605      1.0  0.28889  0.08418  0.55730  1.0000
  Fe  Fe51      1.0  0.23948  0.01132  0.52096  1.0000
  H   H470      1.0  0.00231  0.19377  0.45878  1.0000
  H   H471      1.0  0.17824  0.02918  0.42042  1.0000
  C   C606      1.0  0.09077  0.06797  0.55594  1.0000
  H   H472      1.0  0.21771  0.07357  0.52647  1.0000
  C   C607      1.0  0.00543  0.10734  0.47432  1.0000
  C   C608      1.0  0.16670  0.03103  0.41556  1.0000
  C   C609      1.0  0.10375  0.06959  0.46846  1.0000
  S   S98       1.0  0.21161  0.02515  0.52845  1.0000
  H   H473      1.0  0.24879  0.15286  0.47766  1.0000
  H   H474      1.0  0.38517  0.00170  0.48684  1.0000
  H   H475      1.0  0.03504  0.10023  0.58326  1.0000
  H   H476      1.0  0.05783  0.11525  0.40175  1.0000
  H   H477      1.0  0.19811  0.00500  0.44392  1.0000
  H   H478      1.0  0.01762  0.16881  0.50907  1.0000
  C   C610      1.0  0.37800  0.05028  0.56911  1.0000
  Fe  Fe52      1.0  0.14150  0.13794  0.39030  1.0000
  P   P20       1.0  0.14838  0.03780  0.44771  1.0000
  H   H479      1.0  0.14795  0.37171  0.44839  1.0000
  C   C611      1.0  0.04206  0.25239  0.46789  1.0000
  H   H480      1.0  0.41776  0.04436  0.38656  1.0000
  S   S99       1.0  0.20759  0.02319  0.48990  1.0000
  C   C612      1.0  0.31797  0.06243  0.48192  1.0000
  C   C613      1.0  0.03637  0.34545  0.39121  1.0000
  H   H481      1.0  0.08365  0.05190  0.39350  1.0000
  H   H482      1.0  0.09156  0.34929  0.45711  1.0000
  H   H483      1.0  0.00473  0.09924  0.44129  1.0000
  C   C614      1.0  0.05383  0.27312  0.50851  1.0000
  H   H484      1.0  0.37070  0.00598  0.46299  1.0000
  C   C615      1.0  0.27470  0.01264  0.53612  1.0000
  C   C616      1.0  0.28882  0.00061  0.40402  1.0000
  H   H485      1.0  0.00154  0.16812  0.55866  1.0000
  C   C617      1.0  0.11697  0.38314  0.39688  1.0000
  H   H486      1.0  0.15128  0.45202  0.57070  1.0000
  C   C618      1.0  0.23873  0.99891  0.41903  1.0000
  C   C619      1.0  0.29602  0.09491  0.47301  1.0000
  H   H487      1.0  0.25522  0.12091  0.48831  1.0000
  C   C620      1.0  0.08523  0.43981  0.57049  1.0000
  H   H488      1.0  0.08702  0.03529  0.47119  1.0000
  C   C621      1.0  0.39253  0.05254  0.55578  1.0000
  C   C622      1.0  0.10431  0.37448  0.50534  1.0000
  C   C623      1.0  0.10976  0.38864  0.50655  1.0000
  C   C624      1.0  0.10064  0.39781  0.51947  1.0000
  C   C625      1.0  0.08617  0.39270  0.53127  1.0000
  C   C626      1.0  0.08065  0.37838  0.53024  1.0000
  C   C627      1.0  0.08983  0.36938  0.51710  1.0000
  P   P21       1.0  0.06261  0.37125  0.54638  1.0000
  C   C628      1.0  0.05262  0.35967  0.53749  1.0000
  C   C629      1.0  0.06983  0.35658  0.56529  1.0000
  C   C630      1.0  0.05938  0.34552  0.57677  1.0000
  C   C631      1.0  0.06426  0.28776  0.58063  1.0000
  C   C632      1.0  0.08557  0.35635  0.56896  1.0000
  H   H489      1.0  0.30241  0.00461  0.43780  1.0000
  C   C633      1.0  0.00460  0.20806  0.39831  1.0000
  C   C634      1.0  0.03652  0.36720  0.53272  1.0000
  C   C635      1.0  0.02940  0.35818  0.52530  1.0000
  C   C636      1.0  0.03816  0.34153  0.52280  1.0000
  C   C637      1.0  0.05393  0.33380  0.52792  1.0000
  C   C638      1.0  0.06112  0.34277  0.53527  1.0000
  C   C639      1.0  0.04750  0.39041  0.55236  1.0000
  C   C640      1.0  0.04112  0.39135  0.56988  1.0000
  H   H490      1.0  0.00693  0.30836  0.46727  1.0000
  C   C641      1.0  0.02509  0.42090  0.56111  1.0000
  C   C642      1.0  0.03140  0.42008  0.54368  1.0000
  C   C643      1.0  0.04263  0.40493  0.53930  1.0000
  H   H491      1.0  0.11162  0.36698  0.49568  1.0000
  H   H492      1.0  0.12121  0.39231  0.49765  1.0000
  H   H493      1.0  0.10494  0.40871  0.52050  1.0000
  H   H494      1.0  0.07934  0.39985  0.54126  1.0000
  H   H495      1.0  0.08627  0.35812  0.51600  1.0000
  H   H496      1.0  0.04690  0.34594  0.57451  1.0000
  C   C644      1.0  0.12174  0.06568  0.54999  1.0000
  H   H497      1.0  0.10073  0.23172  0.38638  1.0000
  H   H498      1.0  0.10336  0.02956  0.56559  1.0000
  H   H499      1.0  0.09368  0.36497  0.56055  1.0000
  H   H500      1.0  0.02938  0.37996  0.53472  1.0000
  H   H501      1.0  0.01702  0.36404  0.52158  1.0000
  H   H502      1.0  0.03275  0.33449  0.51699  1.0000
  H   H503      1.0  0.06067  0.32088  0.52599  1.0000
  H   H504      1.0  0.07353  0.33663  0.53889  1.0000
  H   H505      1.0  0.14469  0.30281  0.57404  1.0000
  S   S100      1.0  0.99322  0.28689  0.43063  1.0000
  H   H506      1.0  0.02743  0.43114  0.53359  1.0000
  H   H507      1.0  0.04750  0.40446  0.52573  1.0000
  C   C645      1.0  0.22972  0.07792  0.52301  1.0000
  C   C646      1.0  0.24497  0.06785  0.51515  1.0000
  S   S101      1.0  0.25154  0.99873  0.46299  1.0000
  H   H508      1.0  0.15230  0.34396  0.47053  1.0000
  C   C647      1.0  0.26285  0.12844  0.49065  1.0000
  H   H509      1.0  0.07676  0.26730  0.46771  1.0000
  C   C648      1.0  0.02327  0.09640  0.41785  1.0000
  C   C649      1.0  0.02050  0.28156  0.50208  1.0000
  H   H510      1.0  0.31685  0.00879  0.53698  1.0000
  C   C650      1.0  0.08445  0.40303  0.40896  1.0000
  H   H511      1.0  0.13950  0.22026  0.40394  1.0000
  C   C651      1.0  0.25585  0.11080  0.45204  1.0000
  C   C652      1.0  0.24256  0.10853  0.46668  1.0000
  C   C653      1.0  0.23990  0.09188  0.47490  1.0000
  C   C654      1.0  0.25014  0.07750  0.46825  1.0000
  C   C655      1.0  0.26304  0.07968  0.45304  1.0000
  C   C656      1.0  0.26610  0.09647  0.44529  1.0000
  P   P22       1.0  0.27495  0.06108  0.44359  1.0000
  C   C657      1.0  0.28136  0.04323  0.46107  1.0000
  C   C658      1.0  0.26087  0.05493  0.43384  1.0000
  C   C659      1.0  0.24594  0.04940  0.44434  1.0000
  C   C660      1.0  0.23554  0.04353  0.43733  1.0000
  C   C661      1.0  0.23985  0.04314  0.41976  1.0000
  C   C662      1.0  0.25460  0.04862  0.40915  1.0000
  C   C663      1.0  0.26518  0.05429  0.41615  1.0000
  C   C664      1.0  0.28125  0.02611  0.46128  1.0000
  C   C665      1.0  0.28598  0.01242  0.47498  1.0000
  C   C666      1.0  0.29085  0.01572  0.48857  1.0000
  C   C667      1.0  0.29113  0.03269  0.48840  1.0000
  C   C668      1.0  0.28642  0.04639  0.47469  1.0000
  C   C669      1.0  0.29399  0.06605  0.42757  1.0000
  C   C670      1.0  0.29220  0.07913  0.41241  1.0000
  C   C671      1.0  0.30678  0.08282  0.39979  1.0000
  C   C672      1.0  0.31068  0.05673  0.42984  1.0000
  H   H512      1.0  0.25813  0.12371  0.44583  1.0000
  H   H513      1.0  0.23434  0.11964  0.47173  1.0000
  H   H514      1.0  0.22964  0.09014  0.48633  1.0000
  H   H515      1.0  0.24768  0.06477  0.47487  1.0000
  H   H516      1.0  0.27636  0.09875  0.43413  1.0000
  H   H517      1.0  0.24256  0.04903  0.45810  1.0000
  H   H518      1.0  0.22447  0.03865  0.44569  1.0000
  H   H519      1.0  0.23200  0.03810  0.41452  1.0000
  H   H520      1.0  0.12969  0.37565  0.39214  1.0000
  H   H521      1.0  0.27703  0.05737  0.40777  1.0000
  H   H522      1.0  0.27708  0.02329  0.45115  1.0000
  H   H523      1.0  0.28533  0.99933  0.47534  1.0000
  H   H524      1.0  0.29410  0.00519  0.49939  1.0000
  H   H525      1.0  0.29477  0.03519  0.49906  1.0000
  H   H526      1.0  0.28651  0.05949  0.47482  1.0000
  H   H527      1.0  0.27945  0.08636  0.41030  1.0000
  H   H528      1.0  0.01251  0.08818  0.54794  1.0000
  H   H529      1.0  0.31258  0.04641  0.44121  1.0000
  H   H530      1.0  0.16591  0.09394  0.42506  1.0000
  H   H531      1.0  0.01782  0.13778  0.56248  1.0000
  H   H532      1.0  0.21811  0.10130  0.53259  1.0000
  H   H533      1.0  0.16567  0.16232  0.38980  1.0000
  C   C673      1.0  0.22997  0.09357  0.52640  1.0000
  C   C674      1.0  0.13214  0.36356  0.43647  1.0000
  H   H534      1.0  0.00805  0.33527  0.47448  1.0000
  H   H535      1.0  0.00775  0.28485  0.49931  1.0000
  H   H536      1.0  0.02122  0.35863  0.42023  1.0000
  H   H537      1.0  0.18960  0.08528  0.44082  1.0000
  C   C675      1.0  0.15955  0.00173  0.49130  1.0000
  C   C676      1.0  0.29233  0.00514  0.53568  1.0000
  H   H538      1.0  0.18679  0.12898  0.44144  1.0000
  H   H539      1.0  0.03757  0.16423  0.52861  1.0000
  H   H540      1.0  0.14821  0.07330  0.42775  1.0000
  S   S102      1.0  0.00439  0.13427  0.50889  1.0000
  C   C677      1.0  0.01024  0.23610  0.45115  1.0000
  C   C678      1.0  0.01125  0.13539  0.53966  1.0000
  C   C679      1.0  0.08712  0.48581  0.54015  1.0000
  H   H541      1.0  0.04541  0.27753  0.46779  1.0000
  C   C680      1.0  0.13004  0.05382  0.51408  1.0000
  C   C681      1.0  0.06441  0.20476  0.55331  1.0000
  H   H542      1.0  0.06061  0.24373  0.54845  1.0000
  H   H543      1.0  0.99298  0.20594  0.40794  1.0000
  H   H544      1.0  0.06021  0.22279  0.40558  1.0000
  H   H545      1.0  0.24557  0.99770  0.40601  1.0000
  C   C682      1.0  0.99457  0.09661  0.57011  1.0000
  Fe  Fe53      1.0  0.23545  0.00932  0.48608  1.0000
  C   C683      1.0  0.31646  0.08641  0.53769  1.0000
  C   C684      1.0  0.13886  0.31455  0.56573  1.0000
  S   S103      1.0  0.12302  0.12482  0.38625  1.0000
  C   C685      1.0  0.09145  0.05975  0.47164  1.0000
  C   C686      1.0  0.12109  0.06303  0.46143  1.0000
  C   C687      1.0  0.10264  0.08145  0.57141  1.0000
  C   C688      1.0  0.26085  0.08922  0.51379  1.0000
  H   H546      1.0  0.05016  0.23487  0.43180  1.0000
  H   H547      1.0  0.05770  0.17167  0.43682  1.0000
  C   C689      1.0  0.07036  0.33846  0.45840  1.0000
  C   C690      1.0  0.26049  0.07342  0.51059  1.0000
  H   H548      1.0  0.01725  0.19339  0.48340  1.0000
  C   C691      1.0  0.14207  0.36137  0.44866  1.0000
  H   H549      1.0  0.99824  0.27739  0.46525  1.0000
  C   C692      1.0  0.05255  0.26273  0.56425  1.0000
  H   H550      1.0  0.13772  0.07720  0.40105  1.0000
  C   C693      1.0  0.08136  0.04777  0.51974  1.0000
  H   H551      1.0  0.17943  0.03438  0.46146  1.0000
  H   H552      1.0  0.01826  0.15183  0.46882  1.0000
  P   P23       1.0  0.08457  0.46153  0.57203  1.0000
  C   C694      1.0  0.06981  0.08377  0.50918  1.0000
  C   C695      1.0  0.06240  0.47389  0.57629  1.0000
  C   C696      1.0  0.29088  0.09101  0.52608  1.0000
  C   C697      1.0  0.05173  0.26408  0.46753  1.0000
  C   C698      1.0  0.10747  0.06206  0.54654  1.0000
  C   C699      1.0  0.20738  0.10652  0.44670  1.0000
  C   C700      1.0  0.01060  0.33453  0.46100  1.0000
  C   C701      1.0  0.05349  0.20983  0.54156  1.0000
  C   C702      1.0  0.08714  0.40534  0.56980  1.0000
  C   C703      1.0  0.17230  0.98808  0.38931  1.0000
  C   C704      1.0  0.99484  0.21121  0.58297  1.0000
  H   H553      1.0  0.07460  0.21590  0.46702  1.0000
  H   H554      1.0  0.04772  0.18342  0.46317  1.0000
  C   C705      1.0  0.00380  0.23411  0.48217  1.0000
  H   H555      1.0  0.02333  0.10307  0.49101  1.0000
  C   C706      1.0  0.16442  0.00243  0.45601  1.0000
  C   C707      1.0  0.33390  0.00115  0.46829  1.0000
  C   C708      1.0  0.33985  0.01451  0.45517  1.0000
  C   C709      1.0  0.34301  0.01368  0.43779  1.0000
  C   C710      1.0  0.33947  0.99998  0.43345  1.0000
  P   P24       1.0  0.11033  0.05057  0.52976  1.0000
  C   C711      1.0  0.03671  0.20696  0.54699  1.0000
  C   C712      1.0  0.04964  0.47068  0.56991  1.0000
  C   C713      1.0  0.08534  0.34465  0.44983  1.0000
  H   H556      1.0  0.33462  0.07591  0.39221  1.0000
  H   H557      1.0  0.36722  0.04704  0.56657  1.0000
  C   C714      1.0  0.03736  0.17500  0.51738  1.0000
  H   H558      1.0  0.11805  0.07690  0.49713  1.0000
  H   H559      1.0  0.26177  0.99546  0.42812  1.0000
  H   H560      1.0  0.12146  0.32400  0.44972  1.0000
  C   C715      1.0  0.02597  0.19153  0.49185  1.0000
  H   H561      1.0  0.16673  0.00239  0.44240  1.0000
  H   H562      1.0  0.05385  0.25932  0.40294  1.0000
  C   C716      1.0  0.12455  0.35013  0.43674  1.0000
  C   C717      1.0  0.18227  0.07598  0.44174  1.0000
  H   H563      1.0  0.06578  0.26244  0.56418  1.0000
  H   H564      1.0  0.33177  0.00164  0.48180  1.0000
  H   H565      1.0  0.34234  0.02533  0.45852  1.0000
  H   H566      1.0  0.34804  0.02372  0.42755  1.0000
  C   C718      1.0  0.17734  0.07178  0.39035  1.0000
  S   S104      1.0  0.35920  0.02018  0.54544  1.0000
  C   C719      1.0  0.21202  0.00287  0.44048  1.0000
  C   C720      1.0  0.01772  0.13108  0.52343  1.0000
  H   H567      1.0  0.20520  0.10653  0.46035  1.0000
  S   S105      1.0  0.41213  0.01022  0.41172  1.0000
  C   C721      1.0  0.00015  0.19579  0.55360  1.0000
  H   H568      1.0  0.07188  0.41075  0.41368  1.0000
  C   C722      1.0  0.27620  0.12015  0.49979  1.0000
  C   C723      1.0  0.28239  0.14833  0.49638  1.0000
  C   C724      1.0  0.07208  0.43123  0.58074  1.0000
  H   H569      1.0  0.09192  0.31491  0.56019  1.0000
  H   H570      1.0  0.13668  0.48424  0.56688  1.0000
  C   C725      1.0  0.08838  0.07776  0.56821  1.0000
  C   C726      1.0  0.31809  0.01196  0.58055  1.0000
  C   C727      1.0  0.04465  0.26005  0.51212  1.0000
  C   C728      1.0  0.22135  0.00165  0.45292  1.0000
  H   H571      1.0  0.28770  0.10751  0.46930  1.0000
  C   C729      1.0  0.03266  0.48064  0.57256  1.0000
  C   C730      1.0  0.40647  0.05674  0.55920  1.0000
  C   C731      1.0  0.05783  0.21419  0.41819  1.0000
  C   C732      1.0  0.00068  0.15089  0.43335  1.0000
  C   C733      1.0  0.04481  0.29849  0.41365  1.0000
  H   H572      1.0  0.06719  0.19272  0.57959  1.0000
  C   C734      1.0  0.05616  0.18544  0.43581  1.0000
  C   C735      1.0  0.12181  0.99787  0.53436  1.0000
  H   H573      1.0  0.30579  0.06330  0.50836  1.0000
  C   C736      1.0  0.00341  0.08900  0.50355  1.0000
  H   H574      1.0  0.11179  0.40649  0.55230  1.0000
  C   C737      1.0  0.04841  0.27297  0.40269  1.0000
  H   H575      1.0  0.05110  0.10274  0.45933  1.0000
  C   C738      1.0  0.04969  0.25198  0.55528  1.0000
  C   C739      1.0  0.01202  0.09990  0.48954  1.0000
  H   H576      1.0  0.14544  0.08313  0.47853  1.0000
  H   H577      1.0  0.28196  0.02030  0.41872  1.0000
  C   C740      1.0  0.02225  0.31539  0.56508  1.0000
  C   C741      1.0  0.05722  0.05646  0.39144  1.0000
  H   H578      1.0  0.11329  0.09024  0.42227  1.0000
  C   C742      1.0  0.06568  0.05464  0.51412  1.0000
  C   C743      1.0  0.02999  0.40658  0.57418  1.0000
  H   H579      1.0  0.13477  0.06157  0.54288  1.0000
  H   H580      1.0  0.17335  0.06437  0.48495  1.0000
  H   H581      1.0  0.04102  0.47025  0.51625  1.0000
  H   H582      1.0  0.13049  0.37569  0.42689  1.0000
  C   C744      1.0  0.30866  0.09025  0.52349  1.0000
  C   C745      1.0  0.01461  0.34866  0.44768  1.0000
  H   H583      1.0  0.12598  0.03793  0.39720  1.0000
  H   H584      1.0  0.21633  0.13978  0.39042  1.0000
  H   H585      1.0  0.07741  0.20703  0.54904  1.0000
  C   C746      1.0  0.12997  0.06815  0.49984  1.0000
  H   H586      1.0  0.43140  0.05769  0.40138  1.0000
  S   S106      1.0  0.26106  0.99975  0.53578  1.0000
  H   H587      1.0  0.00589  0.33654  0.55054  1.0000
  C   C747      1.0  0.09129  0.05892  0.52031  1.0000
  C   C748      1.0  0.15561  0.01752  0.46223  1.0000
  C   C749      1.0  0.28102  0.08808  0.54312  1.0000
  C   C750      1.0  0.13762  0.33085  0.56894  1.0000
  S   S107      1.0  0.23265  0.99117  0.51206  1.0000
  C   C751      1.0  0.06203  0.11818  0.46880  1.0000
  H   H588      1.0  0.08342  0.09803  0.41722  1.0000
  H   H589      1.0  0.03842  0.08975  0.55682  1.0000
  C   C752      1.0  0.24548  0.09918  0.52189  1.0000
  C   C753      1.0  0.03779  0.28276  0.39104  1.0000
  H   H590      1.0  0.11284  0.18288  0.41126  1.0000
  C   C754      1.0  0.32847  0.02186  0.58248  1.0000
  H   H591      1.0  0.04280  0.16111  0.39561  1.0000
  C   C755      1.0  0.01667  0.10238  0.43323  1.0000
  C   C756      1.0  0.16152  0.04673  0.50667  1.0000
  H   H592      1.0  0.07417  0.10871  0.46920  1.0000
  C   C757      1.0  0.19942  0.11858  0.41868  1.0000
  C   C758      1.0  0.03351  0.30827  0.40250  1.0000
  C   C759      1.0  0.05205  0.28088  0.41388  1.0000
  H   H593      1.0  0.33024  0.08547  0.53560  1.0000
  H   H594      1.0  0.13927  0.32009  0.47083  1.0000
  H   H595      1.0  0.07544  0.08293  0.57489  1.0000
  H   H596      1.0  0.04773  0.07803  0.50459  1.0000
  C   C760      1.0  0.06199  0.33239  0.44941  1.0000
  H   H597      1.0  0.22722  0.08308  0.44843  1.0000
  C   C761      1.0  0.11276  0.02746  0.53872  1.0000
  H   H598      1.0  0.05273  0.46050  0.56286  1.0000
  H   H599      1.0  0.12154  0.45980  0.55745  1.0000
  C   C762      1.0  0.06941  0.25833  0.46746  1.0000
  C   C763      1.0  0.04796  0.21010  0.44949  1.0000
  C   C764      1.0  0.05211  0.22098  0.43310  1.0000
  H   H600      1.0  0.28997  0.15604  0.49861  1.0000
  H   H601      1.0  0.99690  0.22369  0.54477  1.0000
  C   C765      1.0  0.12397  0.34467  0.54415  1.0000
  H   H602      1.0  0.02864  0.21108  0.53751  1.0000
  H   H603      1.0  0.31276  0.07999  0.56556  1.0000
  C   C766      1.0  0.02611  0.17764  0.50639  1.0000
  H   H604      1.0  0.19816  0.04943  0.39527  1.0000
  H   H605      1.0  0.11826  0.35640  0.53582  1.0000
  C   C767      1.0  0.12443  0.32838  0.54145  1.0000
  P   P25       1.0  0.28078  0.09676  0.50761  1.0000
  C   C768      1.0  0.23936  0.99933  0.44828  1.0000
  H   H606      1.0  0.00815  0.08390  0.51547  1.0000
  C   C769      1.0  0.03045  0.30036  0.39086  1.0000
  H   H607      1.0  0.06444  0.19113  0.40797  1.0000
  C   C770      1.0  0.15312  0.01704  0.47999  1.0000
  H   H608      1.0  0.26735  0.08852  0.54558  1.0000
  H   H609      1.0  0.05796  0.04600  0.51396  1.0000
  S   S108      1.0  0.39422  0.04962  0.53483  1.0000
  H   H610      1.0  0.00582  0.26403  0.56192  1.0000
  H   H611      1.0  0.08540  0.03381  0.52399  1.0000
  C   C771      1.0  0.07003  0.30276  0.57062  1.0000
  H   H612      1.0  0.99748  0.13977  0.54405  1.0000
  H   H613      1.0  0.12973  0.35855  0.55995  1.0000
  H   H614      1.0  0.41771  0.05857  0.54892  1.0000
  C   C772      1.0  0.17616  0.04732  0.45351  1.0000
  H   H615      1.0  0.17372  0.03872  0.50968  1.0000
  C   C773      1.0  0.30781  0.08713  0.46000  1.0000
  C   C774      1.0  0.02161  0.27413  0.57181  1.0000
  P   P26       1.0  0.02266  0.33054  0.40365  1.0000
  H   H616      1.0  0.06909  0.13575  0.47943  1.0000
  C   C775      1.0  0.31891  0.07098  0.46447  1.0000
  C   C776      1.0  0.30187  0.99897  0.42761  1.0000
  C   C777      1.0  0.37901  0.99354  0.46710  1.0000
  H   H617      1.0  0.32663  0.04994  0.48540  1.0000
  H   H618      1.0  0.00964  0.48397  0.52216  1.0000
  H   H619      1.0  0.30863  0.09374  0.44646  1.0000
  H   H620      1.0  0.14267  0.32354  0.41950  1.0000
  C   C778      1.0  0.13234  0.31331  0.55201  1.0000
  C   C779      1.0  0.09612  0.47300  0.55201  1.0000
  H   H621      1.0  0.05805  0.21589  0.52813  1.0000
  H   H622      1.0  0.12260  0.04124  0.42684  1.0000
  C   C780      1.0  0.02568  0.09285  0.56497  1.0000
  C   C781      1.0  0.09949  0.43080  0.56007  1.0000
  H   H623      1.0  0.01055  0.28281  0.57790  1.0000
  C   C782      1.0  0.08527  0.07697  0.51509  1.0000
  H   H624      1.0  0.24548  0.11124  0.52480  1.0000
  H   H625      1.0  0.32847  0.06516  0.45449  1.0000
  C   C783      1.0  0.04874  0.15281  0.38650  1.0000
  C   C784      1.0  0.19703  0.11911  0.43608  1.0000
  H   H626      1.0  0.19666  0.05543  0.45865  1.0000
  H   H627      1.0  0.31658  0.09246  0.51049  1.0000
  C   C785      1.0  0.03282  0.25219  0.55473  1.0000
  H   H628      1.0  0.03057  0.24402  0.54764  1.0000
  H   H629      1.0  0.12294  0.02065  0.51366  1.0000
  C   C786      1.0  0.40624  0.05805  0.57597  1.0000
  C   C787      1.0  0.03308  0.12703  0.46286  1.0000
  C   C788      1.0  0.14556  0.07174  0.48918  1.0000
  C   C789      1.0  0.15528  0.98761  0.39006  1.0000
  C   C790      1.0  0.03998  0.11743  0.42592  1.0000
  H   H630      1.0  0.01635  0.08889  0.41436  1.0000
  P   P27       1.0  0.21485  0.10449  0.38945  1.0000
  C   C791      1.0  0.10839  0.02089  0.55672  1.0000
  C   C792      1.0  0.11930  0.07528  0.56241  1.0000
  C   C793      1.0  0.03847  0.27379  0.57277  1.0000
  H   H631      1.0  0.13032  0.07850  0.56459  1.0000
  C   C794      1.0  0.05861  0.19673  0.57056  1.0000
  C   C795      1.0  0.22000  0.09335  0.43991  1.0000
  C   C796      1.0  0.04185  0.19375  0.57605  1.0000
  H   H632      1.0  0.23203  0.08231  0.41760  1.0000
  C   C797      1.0  0.04895  0.11487  0.46319  1.0000
  C   C798      1.0  0.09654  0.04304  0.46840  1.0000
  C   C799      1.0  0.02896  0.36286  0.38425  1.0000
  H   H633      1.0  0.07917  0.24294  0.41887  1.0000
  C   C800      1.0  0.06852  0.33265  0.43176  1.0000
  C   C801      1.0  0.09232  0.34447  0.43219  1.0000
  C   C802      1.0  0.13047  0.34593  0.55784  1.0000
  C   C803      1.0  0.03076  0.19884  0.56430  1.0000
  H   H634      1.0  0.28132  0.08153  0.57041  1.0000
  C   C804      1.0  0.33068  0.98719  0.46401  1.0000
  H   H635      1.0  0.01620  0.43254  0.56456  1.0000
  H   H636      1.0  0.41726  0.06084  0.57856  1.0000
  C   C805      1.0  0.03527  0.19903  0.38670  1.0000
  H   H637      1.0  0.21461  0.00234  0.46604  1.0000
  H   H638      1.0  0.08815  0.39182  0.57017  1.0000
  H   H639      1.0  0.08896  0.33778  0.40977  1.0000
  C   C806      1.0  0.38743  0.99122  0.48044  1.0000
  H   H640      1.0  0.05386  0.04706  0.40334  1.0000
  H   H641      1.0  0.12733  0.98891  0.52576  1.0000
  H   H642      1.0  0.03138  0.06428  0.38643  1.0000
  H   H643      1.0  0.25816  0.04790  0.39559  1.0000
  H   H644      1.0  0.30670  0.01839  0.57509  1.0000
  H   H645      1.0  0.30536  0.09281  0.38807  1.0000
  S   S109      1.0  0.47993  0.05465  0.58075  1.0000
  H   H646      1.0  0.11264  0.28909  0.57268  1.0000
  C   C807      1.0  0.40509  0.00788  0.56976  1.0000
  C   C808      1.0  0.10536  0.37530  0.41085  1.0000
  C   C809      1.0  0.12413  0.34099  0.40436  1.0000
  H   H647      1.0  0.38741  0.99418  0.56788  1.0000
  H   H648      1.0  0.21796  0.06670  0.39597  1.0000
  H   H649      1.0  0.32512  0.03593  0.57835  1.0000
  H   H650      1.0  0.18739  0.39963  0.57804  1.0000
  H   H651      1.0  0.46217  0.05970  0.39017  1.0000
  H   H652      1.0  0.19965  0.98903  0.56750  1.0000
  C   C810      1.0  0.99319  0.24497  0.45050  1.0000
  C   C811      1.0  0.02385  0.15959  0.58190  1.0000
  C   C812      1.0  0.09917  0.28874  0.57485  1.0000
  C   C813      1.0  0.00734  0.34249  0.57393  1.0000
  H   H653      1.0  0.99881  0.35528  0.57161  1.0000
  C   C814      1.0  0.20512  0.07329  0.39380  1.0000
  S   S110      1.0  0.07956  0.15914  0.38707  1.0000
  H   H654      1.0  0.02449  0.14823  0.38566  1.0000
  H   H655      1.0  0.16032  0.30932  0.39588  1.0000
  H   H656      1.0  0.18129  0.02629  0.39059  1.0000
  C   C815      1.0  0.14906  0.31964  0.39364  1.0000
  C   C816      1.0  0.11964  0.34580  0.38802  1.0000
  H   H657      1.0  0.01524  0.36036  0.45085  1.0000
  H   H658      1.0  0.10830  0.35590  0.38556  1.0000
  C   C817      1.0  0.43889  0.05279  0.38997  1.0000
  H   H659      1.0  0.04462  0.38043  0.58030  1.0000
  C   C818      1.0  0.39153  0.99919  0.57655  1.0000
  S   S111      1.0  0.99155  0.10692  0.38710  1.0000
  C   C819      1.0  0.41067  0.01465  0.58054  1.0000
  H   H660      1.0  0.41172  0.99348  0.52352  1.0000
  H   H661      1.0  0.09804  0.48636  0.58100  1.0000
  S   S112      1.0  0.14886  0.41626  0.58007  1.0000
  C   C820      1.0  0.16021  0.17492  0.39311  1.0000
  C   C821      1.0  0.07287  0.41424  0.58001  1.0000
  C   C822      1.0  0.02864  0.30899  0.58046  1.0000
  C   C823      1.0  0.09094  0.08840  0.39375  1.0000
  C   C824      1.0  0.15371  0.44659  0.58367  1.0000
  C   C825      1.0  0.09107  0.34474  0.58357  1.0000
  H   H662      1.0  0.10348  0.20132  0.38473  1.0000
  C   C826      1.0  0.15570  0.20628  0.38486  1.0000
  C   C827      1.0  0.25104  0.09590  0.38419  1.0000
  C   C828      1.0  0.00368  0.22277  0.38467  1.0000
  C   C829      1.0  0.12156  0.07670  0.38464  1.0000
  Fe  Fe54      1.0  0.45638  0.05327  0.60242  1.0000
  S   S113      1.0  0.43307  0.07431  0.60904  1.0000
  Fe  Fe55      1.0  0.44526  0.02660  0.63452  1.0000
  S   S114      1.0  0.42097  0.04500  0.64423  1.0000
  S   S115      1.0  0.45625  0.99939  0.64777  1.0000
  Fe  Fe56      1.0  0.41827  0.05312  0.61625  1.0000
  Fe  Fe57      1.0  0.43752  0.06451  0.63641  1.0000
  S   S116      1.0  0.43951  0.08255  0.65175  1.0000
  S   S117      1.0  0.44129  0.03287  0.60732  1.0000
  S   S118      1.0  0.46199  0.04534  0.62899  1.0000
  Fe  Fe58      1.0  0.45765  0.07761  0.77489  1.0000
  H   H663      1.0  0.99521  0.24365  0.60116  1.0000
  Fe  Fe59      1.0  0.44391  0.07295  0.74549  1.0000
  S   S119      1.0  0.46911  0.05631  0.73497  1.0000
  S   S120      1.0  0.42154  0.07623  0.73299  1.0000
  Fe  Fe60      1.0  0.46919  0.04319  0.76286  1.0000
  H   H664      1.0  0.22889  0.33111  0.67998  1.0000
  H   H665      1.0  0.27999  0.32142  0.59511  1.0000
  S   S121      1.0  0.44323  0.05861  0.77338  1.0000
  S   S122      1.0  0.45555  0.09372  0.74798  1.0000
  H   H666      1.0  0.01617  0.26598  0.60616  1.0000
  Fe  Fe61      1.0  0.13346  0.39271  0.73922  1.0000
  S   S123      1.0  0.10453  0.39813  0.74452  1.0000
  S   S124      1.0  0.14777  0.39635  0.71103  1.0000
  H   H667      1.0  0.31342  0.47836  0.76716  1.0000
  C   C830      1.0  0.02258  0.26846  0.61478  1.0000
  S   S125      1.0  0.13388  0.41196  0.75384  1.0000
  C   C831      1.0  0.19284  0.35969  0.65536  1.0000
  C   C832      1.0  0.26670  0.32708  0.60051  1.0000
  C   C833      1.0  0.40232  0.01328  0.59797  1.0000
  C   C834      1.0  0.20996  0.47841  0.75328  1.0000
  C   C835      1.0  0.15303  0.42920  0.59156  1.0000
  Fe  Fe62      1.0  0.99099  0.37421  0.78055  1.0000
  C   C836      1.0  0.48216  0.14257  0.65695  1.0000
  C   C837      1.0  0.48914  0.09308  0.67886  1.0000
  Fe  Fe63      1.0  0.13911  0.36533  0.63191  1.0000
  S   S126      1.0  0.12452  0.39271  0.62413  1.0000
  S   S127      1.0  0.14514  0.35339  0.65875  1.0000
  Fe  Fe64      1.0  0.13745  0.35559  0.59880  1.0000
  H   H668      1.0  0.16708  0.48559  0.73849  1.0000
  C   C838      1.0  0.34812  0.99538  0.59376  1.0000
  Fe  Fe65      1.0  0.14064  0.39206  0.59742  1.0000
  C   C839      1.0  0.38937  0.00046  0.72226  1.0000
  Fe  Fe66      1.0  0.10740  0.38107  0.61604  1.0000
  S   S128      1.0  0.07933  0.39411  0.62232  1.0000
  S   S129      1.0  0.15713  0.36546  0.60567  1.0000
  S   S130      1.0  0.12070  0.35348  0.62566  1.0000
  C   C840      1.0  0.07341  0.45440  0.69048  1.0000
  C   C841      1.0  0.35016  0.47182  0.73631  1.0000
  H   H669      1.0  0.15171  0.48044  0.71518  1.0000
  H   H670      1.0  0.36650  0.04995  0.59620  1.0000
  C   C842      1.0  0.21886  0.33913  0.67307  1.0000
  C   C843      1.0  0.34343  0.01362  0.58913  1.0000
  C   C844      1.0  0.37761  0.05197  0.58584  1.0000
  S   S131      1.0  0.02779  0.34981  0.62338  1.0000
  H   H671      1.0  0.03757  0.18746  0.58946  1.0000
  C   C845      1.0  0.06888  0.36303  0.77918  1.0000
  C   C846      1.0  0.32550  0.47142  0.76054  1.0000
  C   C847      1.0  0.46711  0.12687  0.63843  1.0000
  H   H672      1.0  0.47528  0.29422  0.76899  1.0000
  C   C848      1.0  0.20408  0.40400  0.60977  1.0000
  H   H673      1.0  0.46551  0.15470  0.63004  1.0000
  H   H674      1.0  0.03977  0.47797  0.72475  1.0000
  C   C849      1.0  0.07054  0.43903  0.65310  1.0000
  C   C850      1.0  0.32250  0.99381  0.58548  1.0000
  H   H675      1.0  0.99587  0.07977  0.61730  1.0000
  S   S132      1.0  0.00305  0.47085  0.74123  1.0000
  C   C851      1.0  0.00723  0.10362  0.58996  1.0000
  H   H676      1.0  0.07206  0.26130  0.59493  1.0000
  C   C852      1.0  0.48928  0.10408  0.66223  1.0000
  C   C853      1.0  0.22081  0.33964  0.65546  1.0000
  H   H677      1.0  0.02580  0.47478  0.76249  1.0000
  H   H678      1.0  0.03240  0.34974  0.78131  1.0000
  H   H679      1.0  0.13567  0.45097  0.75503  1.0000
  H   H680      1.0  0.18186  0.39731  0.68157  1.0000
  C   C854      1.0  0.06563  0.38157  0.62176  1.0000
  C   C855      1.0  0.04886  0.38985  0.61937  1.0000
  C   C856      1.0  0.03754  0.38011  0.61912  1.0000
  C   C857      1.0  0.04259  0.36198  0.62222  1.0000
  C   C858      1.0  0.05931  0.35363  0.62486  1.0000
  C   C859      1.0  0.07101  0.36346  0.62419  1.0000
  H   H681      1.0  0.04466  0.40384  0.61754  1.0000
  H   H682      1.0  0.02490  0.38667  0.61658  1.0000
  H   H683      1.0  0.06312  0.33958  0.62763  1.0000
  H   H684      1.0  0.08392  0.35699  0.62617  1.0000
  C   C860      1.0  0.04327  0.28125  0.62009  1.0000
  C   C861      1.0  0.15628  0.42215  0.60829  1.0000
  C   C862      1.0  0.16075  0.43228  0.61687  1.0000
  H   H685      1.0  0.15611  0.40865  0.61432  1.0000
  H   H686      1.0  0.16398  0.42648  0.62947  1.0000
  H   H687      1.0  0.20236  0.34843  0.69548  1.0000
  H   H688      1.0  0.18022  0.38115  0.77991  1.0000
  H   H689      1.0  0.44772  0.99287  0.58793  1.0000
  C   C863      1.0  0.00876  0.31433  0.64217  1.0000
  H   H690      1.0  0.01493  0.32762  0.75658  1.0000
  H   H691      1.0  0.39156  0.98916  0.67696  1.0000
  H   H692      1.0  0.42892  0.01152  0.75020  1.0000
  C   C864      1.0  0.18321  0.41070  0.67735  1.0000
  H   H693      1.0  0.02208  0.31364  0.63524  1.0000
  H   H694      1.0  0.45661  0.15763  0.60278  1.0000
  H   H695      1.0  0.46693  0.12555  0.69535  1.0000
  C   C865      1.0  0.14557  0.38481  0.69684  1.0000
  C   C866      1.0  0.14725  0.39254  0.67900  1.0000
  C   C867      1.0  0.14688  0.38318  0.66717  1.0000
  C   C868      1.0  0.14518  0.36589  0.67309  1.0000
  C   C869      1.0  0.14373  0.35811  0.69088  1.0000
  C   C870      1.0  0.14365  0.36761  0.70276  1.0000
  H   H696      1.0  0.14883  0.40581  0.67433  1.0000
  H   H697      1.0  0.14808  0.38929  0.65349  1.0000
  H   H698      1.0  0.14254  0.34470  0.69553  1.0000
  H   H699      1.0  0.14262  0.36147  0.71642  1.0000
  H   H700      1.0  0.06451  0.33982  0.77545  1.0000
  H   H701      1.0  0.35102  0.02301  0.74205  1.0000
  C   C871      1.0  0.99862  0.17097  0.60223  1.0000
  C   C872      1.0  0.38847  0.00500  0.60470  1.0000
  H   H702      1.0  0.44144  0.12372  0.71947  1.0000
  H   H703      1.0  0.44906  0.28217  0.77962  1.0000
  C   C873      1.0  0.39628  0.01884  0.76997  1.0000
  H   H704      1.0  0.20648  0.41401  0.61445  1.0000
  H   H705      1.0  0.15803  0.47035  0.58646  1.0000
  H   H706      1.0  0.01520  0.22113  0.58638  1.0000
  H   H707      1.0  0.19366  0.42223  0.58847  1.0000
  H   H708      1.0  0.02488  0.40724  0.58769  1.0000
  C   C874      1.0  0.09382  0.45328  0.77220  1.0000
  H   H709      1.0  0.16661  0.31299  0.61372  1.0000
  C   C875      1.0  0.23795  0.32363  0.61634  1.0000
  C   C876      1.0  0.06496  0.33390  0.59132  1.0000
  H   H710      1.0  0.05679  0.32553  0.60026  1.0000
  C   C877      1.0  0.99770  0.30775  0.63676  1.0000
  H   H711      1.0  0.45268  0.04099  0.69491  1.0000
  C   C878      1.0  0.03276  0.46213  0.76835  1.0000
  H   H712      1.0  0.47063  0.18234  0.66722  1.0000
  C   C879      1.0  0.09400  0.48069  0.77784  1.0000
  H   H713      1.0  0.00242  0.30194  0.62556  1.0000
  C   C880      1.0  0.19342  0.39590  0.58917  1.0000
  H   H714      1.0  0.00519  0.43415  0.75465  1.0000
  H   H715      1.0  0.07401  0.48245  0.61971  1.0000
  H   H716      1.0  0.01475  0.12800  0.61790  1.0000
  H   H717      1.0  0.35360  0.43173  0.76342  1.0000
  H   H718      1.0  0.44755  0.02684  0.75645  1.0000
  H   H719      1.0  0.43439  0.03179  0.72363  1.0000
  C   C881      1.0  0.20396  0.34889  0.68181  1.0000
  H   H720      1.0  0.12526  0.48160  0.67802  1.0000
  H   H721      1.0  0.23245  0.33195  0.64899  1.0000
  Fe  Fe67      1.0  0.10712  0.37660  0.76822  1.0000
  H   H722      1.0  0.47166  0.14247  0.77277  1.0000
  H   H723      1.0  0.22914  0.31512  0.62330  1.0000
  C   C882      1.0  0.26115  0.34512  0.59862  1.0000
  C   C883      1.0  0.02101  0.45635  0.63825  1.0000
  C   C884      1.0  0.01939  0.39279  0.67951  1.0000
  H   H724      1.0  0.03761  0.34362  0.75206  1.0000
  C   C885      1.0  0.48680  0.05362  0.66239  1.0000
  C   C886      1.0  0.31304  0.42419  0.76760  1.0000
  C   C887      1.0  0.43543  0.07789  0.67464  1.0000
  C   C888      1.0  0.44663  0.08153  0.68261  1.0000
  C   C889      1.0  0.44294  0.08001  0.70064  1.0000
  C   C890      1.0  0.42748  0.07570  0.71078  1.0000
  C   C891      1.0  0.41621  0.07196  0.70289  1.0000
  C   C892      1.0  0.42030  0.07278  0.68488  1.0000
  H   H725      1.0  0.45785  0.08631  0.67472  1.0000
  H   H726      1.0  0.45151  0.08328  0.70651  1.0000
  H   H727      1.0  0.40421  0.06863  0.71069  1.0000
  H   H728      1.0  0.41143  0.07023  0.67881  1.0000
  H   H729      1.0  0.06202  0.41402  0.69870  1.0000
  C   C893      1.0  0.38335  0.99729  0.59421  1.0000
  C   C894      1.0  0.05721  0.46432  0.68704  1.0000
  C   C895      1.0  0.06289  0.44360  0.63876  1.0000
  H   H730      1.0  0.21359  0.38318  0.62979  1.0000
  C   C896      1.0  0.45500  0.12468  0.69283  1.0000
  H   H731      1.0  0.42147  0.00538  0.64350  1.0000
  H   H732      1.0  0.37860  0.05374  0.66201  1.0000
  C   C897      1.0  0.11392  0.33187  0.74020  1.0000
  C   C898      1.0  0.00015  0.15456  0.61356  1.0000
  C   C899      1.0  0.09538  0.31260  0.75838  1.0000
  C   C900      1.0  0.07311  0.47028  0.62898  1.0000
  C   C901      1.0  0.48396  0.99877  0.60195  1.0000
  C   C902      1.0  0.03183  0.38711  0.66554  1.0000
  C   C903      1.0  0.19647  0.33860  0.62072  1.0000
  H   H733      1.0  0.41424  0.01309  0.72721  1.0000
  H   H734      1.0  0.45239  0.13181  0.59572  1.0000
  C   C904      1.0  0.20789  0.38654  0.61851  1.0000
  C   C905      1.0  0.03839  0.27461  0.63793  1.0000
  H   H735      1.0  0.40087  0.06021  0.76317  1.0000
  C   C906      1.0  0.43973  0.00409  0.75608  1.0000
  H   H736      1.0  0.03282  0.48051  0.69653  1.0000
  H   H737      1.0  0.00776  0.25441  0.63750  1.0000
  H   H738      1.0  0.01090  0.32834  0.65974  1.0000
  H   H739      1.0  0.07015  0.31778  0.75305  1.0000
  C   C907      1.0  0.45892  0.14501  0.61158  1.0000
  H   H740      1.0  0.03744  0.45149  0.74592  1.0000
  H   H741      1.0  0.46687  0.09976  0.64294  1.0000
  C   C908      1.0  0.01349  0.14069  0.60909  1.0000
  S   S133      1.0  0.99133  0.39079  0.63438  1.0000
  P   P28       1.0  0.47318  0.12431  0.65872  1.0000
  C   C909      1.0  0.16118  0.44975  0.60910  1.0000
  H   H742      1.0  0.21131  0.45098  0.75730  1.0000
  C   C910      1.0  0.48610  0.00055  0.69425  1.0000
  C   C911      1.0  0.23221  0.34176  0.61431  1.0000
  H   H743      1.0  0.06884  0.42716  0.66261  1.0000
  C   C912      1.0  0.18842  0.46661  0.74816  1.0000
  C   C913      1.0  0.46337  0.35943  0.78307  1.0000
  C   C914      1.0  0.05849  0.35240  0.77849  1.0000
  S   S134      1.0  0.13636  0.36995  0.76216  1.0000
  C   C915      1.0  0.12503  0.47072  0.67322  1.0000
  H   H744      1.0  0.30690  0.40978  0.75267  1.0000
  H   H745      1.0  0.39352  0.01043  0.76352  1.0000
  H   H746      1.0  0.42964  0.01428  0.67237  1.0000
  C   C916      1.0  0.99199  0.44039  0.75339  1.0000
  H   H747      1.0  0.04635  0.40639  0.68141  1.0000
  Fe  Fe68      1.0  0.00190  0.36803  0.62164  1.0000
  C   C917      1.0  0.06396  0.45935  0.62681  1.0000
  C   C918      1.0  0.45028  0.01277  0.75966  1.0000
  C   C919      1.0  0.46406  0.14325  0.62703  1.0000
  C   C920      1.0  0.04839  0.41963  0.69955  1.0000
  C   C921      1.0  0.03977  0.43136  0.71018  1.0000
  C   C922      1.0  0.24399  0.35245  0.60555  1.0000
  H   H748      1.0  0.12049  0.48658  0.72792  1.0000
  H   H749      1.0  0.04448  0.27707  0.64690  1.0000
  H   H750      1.0  0.48255  0.07179  0.63838  1.0000
  P   P29       1.0  0.01031  0.41570  0.67883  1.0000
  C   C923      1.0  0.45938  0.11424  0.61896  1.0000
  S   S135      1.0  0.16699  0.46220  0.61993  1.0000
  H   H751      1.0  0.41422  0.12064  0.71450  1.0000
  C   C924      1.0  0.20446  0.37358  0.61264  1.0000
  H   H752      1.0  0.10282  0.26225  0.58954  1.0000
  H   H753      1.0  0.00589  0.10860  0.60126  1.0000
  C   C925      1.0  0.01801  0.44567  0.65486  1.0000
  C   C926      1.0  0.01327  0.42415  0.64273  1.0000
  C   C927      1.0  0.03952  0.44915  0.75888  1.0000
  H   H754      1.0  0.99919  0.43916  0.70340  1.0000
  H   H755      1.0  0.39271  0.03781  0.68671  1.0000
  C   C928      1.0  0.07645  0.35424  0.70094  1.0000
  H   H756      1.0  0.99633  0.34689  0.69523  1.0000
  C   C929      1.0  0.00248  0.32253  0.65612  1.0000
  C   C930      1.0  0.15749  0.45694  0.59255  1.0000
  H   H757      1.0  0.12598  0.33608  0.73704  1.0000
  H   H758      1.0  0.41224  0.12015  0.68504  1.0000
  H   H759      1.0  0.27015  0.35344  0.59176  1.0000
  C   C931      1.0  0.03548  0.27815  0.60831  1.0000
  H   H760      1.0  0.47570  0.00799  0.60960  1.0000
  H   H761      1.0  0.17679  0.41303  0.75965  1.0000
  C   C932      1.0  0.17897  0.48349  0.74285  1.0000
  C   C933      1.0  0.11571  0.45641  0.61297  1.0000
  C   C934      1.0  0.11010  0.44206  0.61249  1.0000
  C   C935      1.0  0.10028  0.44351  0.60045  1.0000
  S   S136      1.0  0.12235  0.38226  0.58865  1.0000
  Fe  Fe69      1.0  0.13418  0.38987  0.77739  1.0000
  C   C936      1.0  0.08497  0.33615  0.73541  1.0000
  H   H762      1.0  0.05491  0.42331  0.75855  1.0000
  S   S137      1.0  0.14499  0.33181  0.58698  1.0000
  C   C937      1.0  0.11112  0.31771  0.75398  1.0000
  H   H763      1.0  0.25942  0.30235  0.61092  1.0000
  C   C938      1.0  0.00142  0.22210  0.58877  1.0000
  C   C939      1.0  0.37690  0.03058  0.65586  1.0000
  C   C940      1.0  0.01397  0.33638  0.58903  1.0000
  H   H764      1.0  0.12346  0.45522  0.62220  1.0000
  H   H765      1.0  0.11360  0.42974  0.62132  1.0000
  H   H766      1.0  0.09641  0.43203  0.60023  1.0000
  C   C941      1.0  0.19098  0.35916  0.67295  1.0000
  C   C942      1.0  0.01441  0.42932  0.65722  1.0000
  C   C943      1.0  0.48741  0.07770  0.59466  1.0000
  C   C944      1.0  0.33229  0.45381  0.76734  1.0000
  H   H767      1.0  0.02382  0.46889  0.63662  1.0000
  C   C945      1.0  0.03935  0.41497  0.69010  1.0000
  H   H768      1.0  0.00578  0.38432  0.70597  1.0000
  H   H769      1.0  0.04053  0.30934  0.70990  1.0000
  H   H770      1.0  0.03294  0.37153  0.72497  1.0000
  H   H771      1.0  0.05305  0.28892  0.61551  1.0000
  C   C946      1.0  0.01770  0.26187  0.63265  1.0000
  C   C947      1.0  0.34809  0.44530  0.75839  1.0000
  H   H772      1.0  0.35143  0.02147  0.59038  1.0000
  C   C948      1.0  0.02534  0.14322  0.59329  1.0000
  C   C949      1.0  0.01670  0.43468  0.62609  1.0000
  C   C950      1.0  0.04929  0.47169  0.71511  1.0000
  H   H773      1.0  0.38185  0.00485  0.61802  1.0000
  H   H774      1.0  0.14673  0.42398  0.77559  1.0000
  C   C951      1.0  0.17518  0.31976  0.61580  1.0000
  C   C952      1.0  0.17259  0.32382  0.63186  1.0000
  C   C953      1.0  0.18323  0.33312  0.63436  1.0000
  C   C954      1.0  0.47855  0.17146  0.66162  1.0000
  C   C955      1.0  0.28969  0.40885  0.77775  1.0000
  H   H775      1.0  0.15212  0.48078  0.77995  1.0000
  H   H776      1.0  0.16203  0.32018  0.64230  1.0000
  S   S138      1.0  0.08839  0.44214  0.75975  1.0000
  C   C956      1.0  0.47704  0.99587  0.71131  1.0000
  C   C957      1.0  0.47201  0.15676  0.66416  1.0000
  C   C958      1.0  0.02631  0.31746  0.73355  1.0000
  H   H777      1.0  0.05366  0.46572  0.67488  1.0000
  Fe  Fe70      1.0  0.10520  0.41531  0.76103  1.0000
  P   P30       1.0  0.06786  0.34869  0.72402  1.0000
  H   H778      1.0  0.01853  0.45031  0.66575  1.0000
  H   H779      1.0  0.03555  0.41139  0.74773  1.0000
  C   C959      1.0  0.01506  0.38043  0.69482  1.0000
  H   H780      1.0  0.09800  0.33176  0.70078  1.0000
  H   H781      1.0  0.22229  0.47618  0.75679  1.0000
  C   C960      1.0  0.01287  0.43341  0.70231  1.0000
  C   C961      1.0  0.10093  0.34103  0.73095  1.0000
  H   H782      1.0  0.39390  0.04123  0.74859  1.0000
  C   C962      1.0  0.05771  0.36882  0.73116  1.0000
  H   H783      1.0  0.06315  0.32555  0.70490  1.0000
  H   H784      1.0  0.33280  0.98994  0.62755  1.0000
  C   C963      1.0  0.43843  0.12285  0.67337  1.0000
  C   C964      1.0  0.36278  0.01297  0.74054  1.0000
  H   H785      1.0  0.08839  0.47412  0.64448  1.0000
  C   C965      1.0  0.48959  0.25012  0.77378  1.0000
  P   P31       1.0  0.21011  0.35095  0.62367  1.0000
  C   C966      1.0  0.20394  0.46408  0.75331  1.0000
  C   C967      1.0  0.30877  0.42946  0.78339  1.0000
  C   C968      1.0  0.45654  0.13050  0.60757  1.0000
  H   H786      1.0  0.01954  0.35336  0.70785  1.0000
  H   H787      1.0  0.02271  0.45915  0.61098  1.0000
  C   C969      1.0  0.17529  0.48389  0.67901  1.0000
  C   C970      1.0  0.05176  0.33625  0.72782  1.0000
  C   C971      1.0  0.40069  0.04678  0.76966  1.0000
  C   C972      1.0  0.18783  0.41813  0.65969  1.0000
  H   H788      1.0  0.01544  0.44764  0.71946  1.0000
  C   C973      1.0  0.15216  0.46825  0.77840  1.0000
  C   C974      1.0  0.38105  0.03964  0.66566  1.0000
  C   C975      1.0  0.03254  0.39238  0.73600  1.0000
  H   H789      1.0  0.19005  0.41053  0.65012  1.0000
  C   C976      1.0  0.09581  0.45954  0.58888  1.0000
  H   H790      1.0  0.01595  0.43050  0.61497  1.0000
  C   C977      1.0  0.06708  0.37664  0.73749  1.0000
  C   C978      1.0  0.07751  0.45371  0.70624  1.0000
  H   H791      1.0  0.01923  0.39865  0.73531  1.0000
  C   C979      1.0  0.45415  0.12396  0.67617  1.0000
  H   H792      1.0  0.15246  0.46507  0.66299  1.0000
  H   H793      1.0  0.10320  0.34459  0.58647  1.0000
  H   H794      1.0  0.06874  0.46156  0.73071  1.0000
  H   H795      1.0  0.37124  0.03768  0.64466  1.0000
  C   C980      1.0  0.39659  0.03612  0.76152  1.0000
  C   C981      1.0  0.17978  0.42065  0.68968  1.0000
  H   H796      1.0  0.37743  0.00545  0.65243  1.0000
  C   C982      1.0  0.18853  0.32485  0.60224  1.0000
  H   H797      1.0  0.37089  0.02387  0.71345  1.0000
  H   H798      1.0  0.04842  0.36504  0.65573  1.0000
  H   H799      1.0  0.18079  0.33617  0.64690  1.0000
  C   C983      1.0  0.38050  0.01241  0.66019  1.0000
  S   S139      1.0  0.09162  0.35604  0.77439  1.0000
  H   H800      1.0  0.18368  0.45552  0.74832  1.0000
  C   C984      1.0  0.46825  0.29402  0.78224  1.0000
  H   H801      1.0  0.00745  0.47188  0.68690  1.0000
  C   C985      1.0  0.04185  0.39976  0.74275  1.0000
  S   S140      1.0  0.99644  0.38318  0.59568  1.0000
  C   C986      1.0  0.38911  0.03055  0.67959  1.0000
  C   C987      1.0  0.02561  0.32704  0.74543  1.0000
  C   C988      1.0  0.14264  0.45151  0.76425  1.0000
  H   H802      1.0  0.03636  0.39623  0.65395  1.0000
  C   C989      1.0  0.02461  0.31974  0.59226  1.0000
  H   H803      1.0  0.10320  0.35221  0.72065  1.0000
  H   H804      1.0  0.17602  0.41462  0.70330  1.0000
  C   C990      1.0  0.47079  0.34253  0.78055  1.0000
  H   H805      1.0  0.03578  0.13251  0.58983  1.0000
  H   H806      1.0  0.05598  0.43497  0.63701  1.0000
  H   H807      1.0  0.16589  0.48148  0.67347  1.0000
  S   S141      1.0  0.39199  0.05568  0.61083  1.0000
  H   H808      1.0  0.04023  0.34348  0.68248  1.0000
  H   H809      1.0  0.47358  0.08271  0.59784  1.0000
  C   C991      1.0  0.03837  0.33625  0.74270  1.0000
  C   C992      1.0  0.46423  0.00325  0.76743  1.0000
  H   H810      1.0  0.02182  0.25983  0.65806  1.0000
  H   H811      1.0  0.32378  0.42781  0.75749  1.0000
  H   H812      1.0  0.08070  0.47824  0.75966  1.0000
  C   C993      1.0  0.04893  0.43304  0.76616  1.0000
  H   H813      1.0  0.46303  0.99937  0.71446  1.0000
  C   C994      1.0  0.02206  0.43833  0.71145  1.0000
  C   C995      1.0  0.20779  0.34993  0.64647  1.0000
  H   H814      1.0  0.47937  0.09615  0.69002  1.0000
  C   C996      1.0  0.02562  0.26492  0.64422  1.0000
  H   H815      1.0  0.47894  0.00780  0.68419  1.0000
  H   H816      1.0  0.01612  0.31073  0.73551  1.0000
  H   H817      1.0  0.23999  0.36644  0.60396  1.0000
  C   C997      1.0  0.11138  0.47231  0.60150  1.0000
  H   H818      1.0  0.13821  0.47944  0.75763  1.0000
  H   H819      1.0  0.45047  0.03204  0.66927  1.0000
  C   C998      1.0  0.03901  0.36936  0.66656  1.0000
  H   H820      1.0  0.04678  0.43499  0.71752  1.0000
  C   C999      1.0  0.33443  0.48037  0.74510  1.0000
  C   C1000     1.0  0.14044  0.46121  0.66506  1.0000
  C   C1001     1.0  0.14029  0.44689  0.65924  1.0000
  C   C1002     1.0  0.12473  0.44211  0.66141  1.0000
  C   C1003     1.0  0.10911  0.45157  0.66968  1.0000
  C   C1004     1.0  0.10934  0.46625  0.67514  1.0000
  P   P32       1.0  0.08934  0.44415  0.67413  1.0000
  C   C1005     1.0  0.08024  0.44971  0.65508  1.0000
  C   C1006     1.0  0.09527  0.42066  0.68077  1.0000
  C   C1007     1.0  0.10116  0.41074  0.66800  1.0000
  C   C1008     1.0  0.10544  0.39265  0.67270  1.0000
  C   C1009     1.0  0.10429  0.38422  0.69012  1.0000
  C   C1010     1.0  0.09921  0.39388  0.70288  1.0000
  C   C1011     1.0  0.09478  0.41207  0.69827  1.0000
  H   H821      1.0  0.08537  0.32422  0.60571  1.0000
  C   C1012     1.0  0.48922  0.05903  0.64433  1.0000
  H   H822      1.0  0.99517  0.46598  0.59049  1.0000
  H   H823      1.0  0.17936  0.36654  0.67981  1.0000
  C   C1013     1.0  0.08136  0.46546  0.64299  1.0000
  C   C1014     1.0  0.14412  0.46752  0.76570  1.0000
  H   H824      1.0  0.35786  0.99924  0.76738  1.0000
  C   C1015     1.0  0.08863  0.47141  0.76908  1.0000
  H   H825      1.0  0.00973  0.41199  0.64426  1.0000
  H   H826      1.0  0.02961  0.31536  0.60401  1.0000
  H   H827      1.0  0.45716  0.10302  0.61614  1.0000
  C   C1016     1.0  0.42515  0.12216  0.70372  1.0000
  C   C1017     1.0  0.04034  0.35805  0.78166  1.0000
  H   H828      1.0  0.15231  0.43954  0.65300  1.0000
  H   H829      1.0  0.12506  0.43091  0.65680  1.0000
  Fe  Fe71      1.0  0.48076  0.07574  0.73959  1.0000
  H   H830      1.0  0.10262  0.41694  0.65432  1.0000
  H   H831      1.0  0.11023  0.38511  0.66280  1.0000
  H   H832      1.0  0.10805  0.37020  0.69354  1.0000
  H   H833      1.0  0.09915  0.38724  0.71628  1.0000
  H   H834      1.0  0.09096  0.41917  0.70843  1.0000
  C   C1018     1.0  0.42404  0.12189  0.68711  1.0000
  C   C1019     1.0  0.25511  0.31634  0.60940  1.0000
  H   H835      1.0  0.36921  0.44766  0.73620  1.0000
  C   C1020     1.0  0.35697  0.45428  0.74295  1.0000
  C   C1021     1.0  0.09359  0.27363  0.58449  1.0000
  H   H836      1.0  0.18250  0.36753  0.64876  1.0000
  C   C1022     1.0  0.03452  0.35720  0.68173  1.0000
  C   C1023     1.0  0.44057  0.12372  0.70654  1.0000
  C   C1024     1.0  0.02053  0.45080  0.62384  1.0000
  H   H837      1.0  0.09016  0.44695  0.70888  1.0000
  C   C1025     1.0  0.09774  0.34781  0.67517  1.0000
  C   C1026     1.0  0.08922  0.36275  0.66497  1.0000
  C   C1027     1.0  0.07450  0.37350  0.67264  1.0000
  C   C1028     1.0  0.06801  0.36920  0.69053  1.0000
  C   C1029     1.0  0.05925  0.39216  0.74300  1.0000
  H   H838      1.0  0.10945  0.33973  0.66916  1.0000
  H   H839      1.0  0.09409  0.36629  0.65113  1.0000
  H   H840      1.0  0.06817  0.38515  0.66456  1.0000
  H   H841      1.0  0.06658  0.39780  0.74819  1.0000
  H   H842      1.0  0.08027  0.37061  0.73880  1.0000
  C   C1030     1.0  0.06548  0.46224  0.71853  1.0000
  C   C1031     1.0  0.19315  0.47561  0.70036  1.0000
  C   C1032     1.0  0.18214  0.47138  0.69253  1.0000
  P   P33       1.0  0.17515  0.45101  0.70083  1.0000
  C   C1033     1.0  0.18567  0.43705  0.71818  1.0000
  C   C1034     1.0  0.15199  0.45624  0.70909  1.0000
  C   C1035     1.0  0.14171  0.44482  0.71004  1.0000
  C   C1036     1.0  0.12404  0.44839  0.71748  1.0000
  C   C1037     1.0  0.11638  0.46352  0.72374  1.0000
  C   C1038     1.0  0.12645  0.47499  0.72282  1.0000
  C   C1039     1.0  0.14419  0.47139  0.71558  1.0000
  C   C1040     1.0  0.17596  0.43007  0.73432  1.0000
  C   C1041     1.0  0.18431  0.41866  0.74732  1.0000
  C   C1042     1.0  0.20236  0.41416  0.74437  1.0000
  C   C1043     1.0  0.21212  0.42081  0.72825  1.0000
  C   C1044     1.0  0.20382  0.43204  0.71513  1.0000
  C   C1045     1.0  0.18066  0.43827  0.68449  1.0000
  H   H843      1.0  0.05635  0.37745  0.69615  1.0000
  C   C1046     1.0  0.18940  0.43544  0.65440  1.0000
  C   C1047     1.0  0.18597  0.44545  0.66671  1.0000
  H   H844      1.0  0.40631  0.01909  0.60616  1.0000
  H   H845      1.0  0.19791  0.46674  0.71139  1.0000
  H   H846      1.0  0.14721  0.43303  0.70531  1.0000
  H   H847      1.0  0.11639  0.43919  0.71865  1.0000
  H   H848      1.0  0.10267  0.46628  0.72950  1.0000
  C   C1048     1.0  0.04042  0.37702  0.73014  1.0000
  H   H849      1.0  0.45889  0.15673  0.67141  1.0000
  H   H850      1.0  0.16198  0.43309  0.73685  1.0000
  C   C1049     1.0  0.09132  0.34347  0.69310  1.0000
  H   H851      1.0  0.20872  0.40522  0.75449  1.0000
  H   H852      1.0  0.22613  0.41700  0.72583  1.0000
  H   H853      1.0  0.21152  0.43675  0.70254  1.0000
  H   H854      1.0  0.19291  0.44127  0.64067  1.0000
  H   H855      1.0  0.18732  0.45875  0.66209  1.0000
  H   H856      1.0  0.28244  0.40067  0.77576  1.0000
  H   H857      1.0  0.11576  0.48344  0.60180  1.0000
  C   C1050     1.0  0.02284  0.36278  0.69597  1.0000
  C   C1051     1.0  0.46482  0.11241  0.63421  1.0000
  C   C1052     1.0  0.02146  0.42151  0.69170  1.0000
  C   C1053     1.0  0.05273  0.32611  0.71624  1.0000
  P   P34       1.0  0.40419  0.00069  0.70143  1.0000
  C   C1054     1.0  0.42757  0.99178  0.64398  1.0000
  C   C1055     1.0  0.42054  0.01215  0.69998  1.0000
  C   C1056     1.0  0.42207  0.01703  0.71450  1.0000
  C   C1057     1.0  0.43360  0.02748  0.71260  1.0000
  C   C1058     1.0  0.44394  0.03273  0.69636  1.0000
  C   C1059     1.0  0.44267  0.02772  0.68194  1.0000
  C   C1060     1.0  0.43093  0.01760  0.68374  1.0000
  C   C1061     1.0  0.37411  0.01342  0.72430  1.0000
  H   H858      1.0  0.47693  0.25374  0.77058  1.0000
  C   C1062     1.0  0.08235  0.32174  0.74913  1.0000
  H   H859      1.0  0.43730  0.12197  0.66082  1.0000
  C   C1063     1.0  0.03997  0.31683  0.71906  1.0000
  C   C1064     1.0  0.39296  0.01226  0.68393  1.0000
  C   C1065     1.0  0.38850  0.00324  0.67417  1.0000
  S   S142      1.0  0.47748  0.01412  0.77185  1.0000
  C   C1066     1.0  0.99253  0.10216  0.58541  1.0000
  H   H860      1.0  0.48999  0.00138  0.65267  1.0000
  H   H861      1.0  0.46604  0.11453  0.77193  1.0000
  H   H862      1.0  0.99214  0.06138  0.64682  1.0000
  H   H863      1.0  0.46543  0.33740  0.77291  1.0000
  H   H864      1.0  0.09755  0.47424  0.68104  1.0000
  H   H865      1.0  0.05770  0.46307  0.61591  1.0000
  C   C1067     1.0  0.19722  0.37843  0.59785  1.0000
  C   C1068     1.0  0.10138  0.47390  0.58962  1.0000
  C   C1069     1.0  0.14885  0.43632  0.77576  1.0000
  C   C1070     1.0  0.04525  0.47289  0.69932  1.0000
  H   H866      1.0  0.47855  0.06231  0.67048  1.0000
  C   C1071     1.0  0.08096  0.33327  0.59451  1.0000
  H   H867      1.0  0.20944  0.33805  0.59400  1.0000
  C   C1072     1.0  0.36661  0.99959  0.75481  1.0000
  H   H868      1.0  0.01073  0.34447  0.59834  1.0000
  H   H869      1.0  0.19026  0.32192  0.58971  1.0000
  C   C1073     1.0  0.39188  0.05553  0.58938  1.0000
  C   C1074     1.0  0.07619  0.27313  0.58745  1.0000
  H   H870      1.0  0.06144  0.43742  0.58967  1.0000
  H   H871      1.0  0.09313  0.30181  0.76926  1.0000
  C   C1075     1.0  0.99378  0.47695  0.69143  1.0000
  H   H872      1.0  0.19435  0.36889  0.59297  1.0000
  H   H873      1.0  0.12100  0.31097  0.76148  1.0000
  P   P35       1.0  0.04169  0.28715  0.58527  1.0000
  H   H874      1.0  0.45240  0.36723  0.77744  1.0000
  S   S143      1.0  0.48359  0.06079  0.76648  1.0000
  C   C1076     1.0  0.01047  0.17362  0.58628  1.0000
  H   H875      1.0  0.06277  0.40767  0.58793  1.0000
  H   H876      1.0  0.35711  0.47880  0.72441  1.0000
  C   C1077     1.0  0.19923  0.33411  0.60470  1.0000
  C   C1078     1.0  0.19694  0.40866  0.59506  1.0000
  C   C1079     1.0  0.30348  0.41395  0.76480  1.0000
  C   C1080     1.0  0.06102  0.37918  0.78340  1.0000
  C   C1081     1.0  0.05080  0.42948  0.78327  1.0000
  H   H877      1.0  0.17573  0.48667  0.78373  1.0000
  H   H878      1.0  0.99100  0.15262  0.62584  1.0000
  C   C1082     1.0  0.39321  0.98723  0.73673  1.0000
  H   H879      1.0  0.46413  0.03899  0.85428  1.0000
  H   H880      1.0  0.41814  0.29541  0.90864  1.0000
  C   C1083     1.0  0.19228  0.44470  0.80047  1.0000
  H   H881      1.0  0.47094  0.01719  0.80825  1.0000
  C   C1084     1.0  0.05416  0.37609  0.82704  1.0000
  H   H882      1.0  0.43254  0.06127  0.82259  1.0000
  H   H883      1.0  0.44024  0.05438  0.94387  1.0000
  H   H884      1.0  0.45595  0.06166  0.96180  1.0000
  H   H885      1.0  0.34972  0.38653  0.82206  1.0000
  C   C1085     1.0  0.07037  0.46809  0.81949  1.0000
  C   C1086     1.0  0.20131  0.48058  0.84948  1.0000
  P   P36       1.0  0.32130  0.44213  0.78757  1.0000
  H   H886      1.0  0.00796  0.43953  0.80890  1.0000
  H   H887      1.0  0.01969  0.41044  0.82708  1.0000
  H   H888      1.0  0.07416  0.40960  0.81699  1.0000
  C   C1087     1.0  0.26788  0.41186  0.89275  1.0000
  H   H889      1.0  0.18289  0.42754  0.83563  1.0000
  H   H890      1.0  0.42834  0.36834  0.94562  1.0000
  H   H891      1.0  0.08084  0.37770  0.82150  1.0000
  Fe  Fe72      1.0  0.22331  0.38982  0.83868  1.0000
  S   S144      1.0  0.20437  0.39858  0.86174  1.0000
  S   S145      1.0  0.21875  0.38097  0.81656  1.0000
  Fe  Fe73      1.0  0.25315  0.39990  0.84660  1.0000
  S   S146      1.0  0.23655  0.41064  0.86937  1.0000
  S   S147      1.0  0.28217  0.39660  0.83852  1.0000
  Fe  Fe74      1.0  0.22578  0.38681  0.87656  1.0000
  S   S148      1.0  0.22208  0.37238  0.90478  1.0000
  Fe  Fe75      1.0  0.21637  0.42168  0.85317  1.0000
  S   S149      1.0  0.19794  0.44757  0.85349  1.0000
  S   S150      1.0  0.24363  0.37520  0.85452  1.0000
  S   S151      1.0  0.23421  0.41378  0.82936  1.0000
  C   C1088     1.0  0.42543  0.13940  0.87725  1.0000
  S   S152      1.0  0.34904  0.43721  0.88639  1.0000
  Fe  Fe76      1.0  0.38535  0.42081  0.84994  1.0000
  S   S153      1.0  0.36317  0.40768  0.86298  1.0000
  S   S154      1.0  0.40452  0.41228  0.82691  1.0000
  Fe  Fe77      1.0  0.34670  0.43470  0.86076  1.0000
  S   S155      1.0  0.32023  0.44542  0.85453  1.0000
  Fe  Fe78      1.0  0.36771  0.41147  0.88731  1.0000
  S   S156      1.0  0.36582  0.39049  0.91170  1.0000
  S   S157      1.0  0.36849  0.44773  0.84554  1.0000
  S   S158      1.0  0.39114  0.42276  0.87442  1.0000
  Fe  Fe79      1.0  0.47222  0.32641  0.84905  1.0000
  C   C1089     1.0  0.45746  0.02345  0.81216  1.0000
  S   S159      1.0  0.45099  0.33581  0.83401  1.0000
  H   H892      1.0  0.08762  0.46348  0.83662  1.0000
  H   H893      1.0  0.39629  0.36173  0.90530  1.0000
  H   H894      1.0  0.34796  0.46905  0.81774  1.0000
  C   C1090     1.0  0.20151  0.48674  0.90609  1.0000
  C   C1091     1.0  0.43396  0.44780  0.91219  1.0000
  Fe  Fe80      1.0  0.47466  0.16452  0.82371  1.0000
  C   C1092     1.0  0.34077  0.48187  0.81961  1.0000
  H   H895      1.0  0.13357  0.45024  0.82067  1.0000
  H   H896      1.0  0.36022  0.33810  0.95431  1.0000
  P   P37       1.0  0.39084  0.46216  0.94871  1.0000
  C   C1093     1.0  0.26848  0.35943  0.97112  1.0000
  C   C1094     1.0  0.13735  0.44131  0.96454  1.0000
  Fe  Fe81      1.0  0.46810  0.16525  0.86220  1.0000
  S   S160      1.0  0.45128  0.15905  0.88875  1.0000
  H   H897      1.0  0.25339  0.47368  0.97110  1.0000
  S   S161      1.0  0.45736  0.18363  0.83961  1.0000
  C   C1095     1.0  0.44001  0.13538  0.86437  1.0000
  H   H898      1.0  0.19992  0.46392  0.80866  1.0000
  C   C1096     1.0  0.10457  0.47190  0.78981  1.0000
  C   C1097     1.0  0.46225  0.14656  0.90542  1.0000
  C   C1098     1.0  0.45378  0.13558  0.91944  1.0000
  C   C1099     1.0  0.46242  0.12474  0.93248  1.0000
  C   C1100     1.0  0.47943  0.12516  0.93192  1.0000
  C   C1101     1.0  0.11365  0.45851  0.98201  1.0000
  C   C1102     1.0  0.47930  0.14705  0.90477  1.0000
  H   H899      1.0  0.44062  0.13517  0.92002  1.0000
  H   H900      1.0  0.45587  0.11600  0.94306  1.0000
  H   H901      1.0  0.47182  0.31982  0.94176  1.0000
  C   C1103     1.0  0.40030  0.01214  0.78643  1.0000
  C   C1104     1.0  0.28229  0.46457  0.88955  1.0000
  S   S162      1.0  0.49019  0.11041  0.94789  1.0000
  C   C1105     1.0  0.43582  0.04826  0.82026  1.0000
  C   C1106     1.0  0.25259  0.47082  0.95929  1.0000
  C   C1107     1.0  0.48991  0.11085  0.88272  1.0000
  C   C1108     1.0  0.25749  0.42207  0.92441  1.0000
  C   C1109     1.0  0.07541  0.44199  0.84192  1.0000
  C   C1110     1.0  0.28290  0.36686  0.96592  1.0000
  H   H902      1.0  0.30728  0.44457  0.98353  1.0000
  H   H903      1.0  0.08177  0.43446  0.85250  1.0000
  H   H904      1.0  0.16846  0.40950  0.86225  1.0000
  C   C1111     1.0  0.04628  0.41246  0.82279  1.0000
  C   C1112     1.0  0.37787  0.31665  0.96694  1.0000
  C   C1113     1.0  0.40693  0.30978  0.94987  1.0000
  H   H905      1.0  0.00345  0.37015  0.86340  1.0000
  C   C1114     1.0  0.22809  0.43222  0.78974  1.0000
  H   H906      1.0  0.47866  0.02971  0.87933  1.0000
  H   H907      1.0  0.45131  0.07022  0.84386  1.0000
  H   H908      1.0  0.45373  0.25805  0.94556  1.0000
  H   H909      1.0  0.38129  0.34388  0.92710  1.0000
  C   C1115     1.0  0.41678  0.39074  0.83024  1.0000
  C   C1116     1.0  0.41841  0.38096  0.81820  1.0000
  C   C1117     1.0  0.42872  0.36407  0.81978  1.0000
  C   C1118     1.0  0.43810  0.35702  0.83299  1.0000
  C   C1119     1.0  0.43665  0.36677  0.84507  1.0000
  C   C1120     1.0  0.42574  0.38357  0.84385  1.0000
  H   H910      1.0  0.41161  0.38647  0.80763  1.0000
  H   H911      1.0  0.42971  0.35654  0.81053  1.0000
  H   H912      1.0  0.44370  0.36128  0.85545  1.0000
  H   H913      1.0  0.42459  0.39112  0.85315  1.0000
  C   C1121     1.0  0.37736  0.39154  0.92631  1.0000
  C   C1122     1.0  0.37738  0.37903  0.94192  1.0000
  C   C1123     1.0  0.38631  0.37965  0.95393  1.0000
  C   C1124     1.0  0.39574  0.39248  0.95011  1.0000
  C   C1125     1.0  0.39602  0.40483  0.93436  1.0000
  C   C1126     1.0  0.38656  0.40456  0.92261  1.0000
  H   H914      1.0  0.37037  0.36892  0.94475  1.0000
  C   C1127     1.0  0.03698  0.38541  0.82851  1.0000
  H   H915      1.0  0.40328  0.41479  0.93136  1.0000
  H   H916      1.0  0.38637  0.41445  0.91076  1.0000
  C   C1128     1.0  0.29208  0.40992  0.84423  1.0000
  C   C1129     1.0  0.28315  0.42648  0.84692  1.0000
  C   C1130     1.0  0.29184  0.43720  0.85037  1.0000
  C   C1131     1.0  0.30940  0.43138  0.85121  1.0000
  C   C1132     1.0  0.31823  0.41480  0.84868  1.0000
  C   C1133     1.0  0.30959  0.40411  0.84516  1.0000
  H   H917      1.0  0.26966  0.43111  0.84609  1.0000
  H   H918      1.0  0.28496  0.45008  0.85230  1.0000
  H   H919      1.0  0.33179  0.41033  0.84914  1.0000
  H   H920      1.0  0.31652  0.39133  0.84302  1.0000
  C   C1134     1.0  0.22151  0.38421  0.91996  1.0000
  C   C1135     1.0  0.22309  0.37541  0.93702  1.0000
  C   C1136     1.0  0.22233  0.38468  0.94935  1.0000
  C   C1137     1.0  0.21986  0.40282  0.94468  1.0000
  C   C1138     1.0  0.21801  0.41161  0.92777  1.0000
  C   C1139     1.0  0.21890  0.40237  0.91545  1.0000
  H   H921      1.0  0.22493  0.36139  0.94067  1.0000
  H   H922      1.0  0.03687  0.39713  0.79026  1.0000
  H   H923      1.0  0.21582  0.42564  0.92422  1.0000
  H   H924      1.0  0.21693  0.40940  0.90266  1.0000
  C   C1140     1.0  0.48446  0.31195  0.93759  1.0000
  S   S163      1.0  0.46778  0.31017  0.87607  1.0000
  H   H925      1.0  0.41416  0.34653  0.94390  1.0000
  H   H926      1.0  0.43430  0.10458  0.91007  1.0000
  H   H927      1.0  0.23453  0.44615  0.84187  1.0000
  C   C1141     1.0  0.16559  0.38810  0.80397  1.0000
  C   C1142     1.0  0.16670  0.39104  0.81967  1.0000
  C   C1143     1.0  0.18286  0.38922  0.82352  1.0000
  C   C1144     1.0  0.19814  0.38429  0.81177  1.0000
  C   C1145     1.0  0.19708  0.38160  0.79592  1.0000
  C   C1146     1.0  0.18088  0.38359  0.79197  1.0000
  H   H928      1.0  0.15496  0.39458  0.82902  1.0000
  H   H929      1.0  0.18353  0.39114  0.83580  1.0000
  C   C1147     1.0  0.28407  0.48187  0.81848  1.0000
  C   C1148     1.0  0.16095  0.41835  0.85306  1.0000
  H   H930      1.0  0.00511  0.42822  0.86880  1.0000
  C   C1149     1.0  0.39211  0.02125  0.84829  1.0000
  H   H931      1.0  0.27499  0.40970  0.80374  1.0000
  H   H932      1.0  0.41596  0.15150  0.87467  1.0000
  C   C1150     1.0  0.42342  0.12815  0.89364  1.0000
  H   H933      1.0  0.20213  0.46635  0.94258  1.0000
  C   C1151     1.0  0.40504  0.02265  0.79443  1.0000
  H   H934      1.0  0.38618  0.36995  0.96594  1.0000
  H   H935      1.0  0.28593  0.46264  0.78624  1.0000
  H   H936      1.0  0.48016  0.05146  0.89408  1.0000
  H   H937      1.0  0.44491  0.30950  0.96861  1.0000
  C   C1152     1.0  0.16908  0.42852  0.83794  1.0000
  C   C1153     1.0  0.00349  0.38294  0.86454  1.0000
  H   H938      1.0  0.37268  0.02567  0.81499  1.0000
  H   H939      1.0  0.32678  0.40528  0.80682  1.0000
  C   C1154     1.0  0.25737  0.48353  0.87843  1.0000
  C   C1155     1.0  0.45725  0.11046  0.81566  1.0000
  C   C1156     1.0  0.46084  0.12607  0.81616  1.0000
  H   H940      1.0  0.40808  0.04867  0.79196  1.0000
  C   C1157     1.0  0.20985  0.46354  0.84820  1.0000
  H   H941      1.0  0.45288  0.10175  0.82764  1.0000
  H   H942      1.0  0.45925  0.12932  0.82842  1.0000
  H   H943      1.0  0.13709  0.41113  0.86776  1.0000
  C   C1158     1.0  0.38529  0.33329  0.93750  1.0000
  C   C1159     1.0  0.22786  0.45935  0.84274  1.0000
  C   C1160     1.0  0.03302  0.40350  0.82645  1.0000
  H   H944      1.0  0.47864  0.20740  0.95619  1.0000
  H   H945      1.0  0.26421  0.43907  0.88077  1.0000
  C   C1161     1.0  0.19417  0.45919  0.95337  1.0000
  C   C1162     1.0  0.16167  0.47684  0.82772  1.0000
  H   H946      1.0  0.05727  0.36216  0.82801  1.0000
  H   H947      1.0  0.45393  0.31561  0.92301  1.0000
  H   H948      1.0  0.02678  0.37867  0.83047  1.0000
  Fe  Fe82      1.0  0.37191  0.44857  0.87142  1.0000
  H   H949      1.0  0.32411  0.45562  0.81619  1.0000
  C   C1163     1.0  0.26431  0.46929  0.89068  1.0000
  C   C1164     1.0  0.17456  0.43974  0.98133  1.0000
  H   H950      1.0  0.28793  0.45350  0.89872  1.0000
  P   P38       1.0  0.41862  0.32797  0.91634  1.0000
  P   P39       1.0  0.40978  0.01439  0.81592  1.0000
  H   H951      1.0  0.25125  0.46892  0.83442  1.0000
  C   C1165     1.0  0.48461  0.33211  0.78837  1.0000
  H   H952      1.0  0.20886  0.37766  0.78680  1.0000
  Fe  Fe83      1.0  0.48066  0.19472  0.83487  1.0000
  H   H953      1.0  0.36465  0.48655  0.96786  1.0000
  C   C1166     1.0  0.47297  0.04334  0.87484  1.0000
  C   C1167     1.0  0.18341  0.45040  0.95031  1.0000
  C   C1168     1.0  0.39945  0.35470  0.89508  1.0000
  C   C1169     1.0  0.42838  0.34440  0.91789  1.0000
  H   H954      1.0  0.45009  0.25174  0.88020  1.0000
  C   C1170     1.0  0.26645  0.39935  0.90830  1.0000
  C   C1171     1.0  0.14319  0.41933  0.85623  1.0000
  H   H955      1.0  0.05817  0.41686  0.78851  1.0000
  S   S164      1.0  0.40751  0.39288  0.96479  1.0000
  H   H956      1.0  0.23301  0.44757  0.94531  1.0000
  C   C1172     1.0  0.46458  0.11766  0.78427  1.0000
  S   S165      1.0  0.21905  0.41504  0.95949  1.0000
  C   C1173     1.0  0.45353  0.39895  0.95493  1.0000
  H   H957      1.0  0.22968  0.44354  0.89409  1.0000
  H   H958      1.0  0.28089  0.40125  0.96053  1.0000
  H   H959      1.0  0.48757  0.05481  0.82700  1.0000
  C   C1174     1.0  0.39812  0.45646  0.98168  1.0000
  C   C1175     1.0  0.42400  0.33072  0.97532  1.0000
  C   C1176     1.0  0.00469  0.41563  0.86750  1.0000
  H   H960      1.0  0.31614  0.34499  0.96698  1.0000
  C   C1177     1.0  0.37319  0.33003  0.95302  1.0000
  H   H961      1.0  0.27326  0.43258  0.95914  1.0000
  C   C1178     1.0  0.45231  0.06932  0.91977  1.0000
  H   H962      1.0  0.37371  0.39840  0.82378  1.0000
  C   C1179     1.0  0.05651  0.44458  0.82268  1.0000
  C   C1180     1.0  0.07859  0.45837  0.83311  1.0000
  C   C1181     1.0  0.46255  0.37414  0.97756  1.0000
  H   H963      1.0  0.27167  0.40785  0.88050  1.0000
  C   C1182     1.0  0.44697  0.22685  0.87939  1.0000
  C   C1183     1.0  0.45075  0.20890  0.88615  1.0000
  C   C1184     1.0  0.46056  0.20195  0.89900  1.0000
  C   C1185     1.0  0.46699  0.21285  0.90496  1.0000
  C   C1186     1.0  0.46263  0.23092  0.89852  1.0000
  P   P40       1.0  0.48055  0.20319  0.92080  1.0000
  C   C1187     1.0  0.46778  0.19005  0.93815  1.0000
  C   C1188     1.0  0.28544  0.41397  0.79351  1.0000
  C   C1189     1.0  0.10872  0.45365  0.79385  1.0000
  H   H964      1.0  0.02840  0.46856  0.79298  1.0000
  H   H965      1.0  0.48253  0.34154  0.95470  1.0000
  H   H966      1.0  0.28699  0.37063  0.97554  1.0000
  C   C1190     1.0  0.48816  0.09493  0.88101  1.0000
  C   C1191     1.0  0.47169  0.17192  0.94032  1.0000
  C   C1192     1.0  0.46136  0.16187  0.95340  1.0000
  C   C1193     1.0  0.06418  0.43524  0.83693  1.0000
  C   C1194     1.0  0.44251  0.18803  0.96168  1.0000
  C   C1195     1.0  0.45289  0.19809  0.94866  1.0000
  C   C1196     1.0  0.13099  0.44969  0.97850  1.0000
  H   H967      1.0  0.08902  0.46567  0.97452  1.0000
  H   H968      1.0  0.37968  0.42927  0.95986  1.0000
  H   H969      1.0  0.25343  0.42539  0.93690  1.0000
  H   H970      1.0  0.40940  0.04734  0.82343  1.0000
  C   C1197     1.0  0.42643  0.23821  0.97953  1.0000
  H   H971      1.0  0.09991  0.45054  0.95009  1.0000
  H   H972      1.0  0.44635  0.20028  0.88127  1.0000
  H   H973      1.0  0.46349  0.18795  0.90394  1.0000
  H   H974      1.0  0.46721  0.23970  0.90288  1.0000
  H   H975      1.0  0.42859  0.45429  0.93701  1.0000
  C   C1198     1.0  0.00582  0.44548  0.81976  1.0000
  H   H976      1.0  0.30434  0.47688  0.83227  1.0000
  C   C1199     1.0  0.17343  0.44061  0.96430  1.0000
  C   C1200     1.0  0.26120  0.47906  0.94329  1.0000
  C   C1201     1.0  0.48650  0.21876  0.92870  1.0000
  H   H977      1.0  0.48781  0.22820  0.96624  1.0000
  H   H978      1.0  0.22114  0.41127  0.78415  1.0000
  H   H979      1.0  0.46466  0.14783  0.95522  1.0000
  H   H980      1.0  0.44939  0.21211  0.94679  1.0000
  H   H981      1.0  0.40469  0.01738  0.85171  1.0000
  C   C1202     1.0  0.26034  0.47538  0.92796  1.0000
  H   H982      1.0  0.44788  0.44504  0.91076  1.0000
  H   H983      1.0  0.24188  0.42704  0.78615  1.0000
  H   H984      1.0  0.30696  0.47061  0.87595  1.0000
  H   H985      1.0  0.02724  0.45470  0.84508  1.0000
  H   H986      1.0  0.05370  0.46880  0.80318  1.0000
  C   C1203     1.0  0.33961  0.44800  0.95149  1.0000
  H   H987      1.0  0.41174  0.42676  0.95631  1.0000
  H   H988      1.0  0.37855  0.02655  0.87335  1.0000
  C   C1204     1.0  0.27889  0.47782  0.80553  1.0000
  C   C1205     1.0  0.16624  0.47462  0.81053  1.0000
  C   C1206     1.0  0.32347  0.36990  0.95863  1.0000
  H   H989      1.0  0.29180  0.45179  0.93816  1.0000
  C   C1207     1.0  0.40027  0.44950  0.96721  1.0000
  S   S166      1.0  0.45413  0.08647  0.79986  1.0000
  C   C1208     1.0  0.48323  0.35578  0.80143  1.0000
  C   C1209     1.0  0.35943  0.03099  0.83996  1.0000
  C   C1210     1.0  0.46995  0.07751  0.94000  1.0000
  C   C1211     1.0  0.26280  0.35454  0.95902  1.0000
  C   C1212     1.0  0.24250  0.45944  0.95995  1.0000
  H   H990      1.0  0.16035  0.48231  0.96874  1.0000
  C   C1213     1.0  0.23732  0.47227  0.83843  1.0000
  C   C1214     1.0  0.42690  0.02382  0.81672  1.0000
  C   C1215     1.0  0.40487  0.04012  0.78603  1.0000
  C   C1216     1.0  0.21641  0.42337  0.78854  1.0000
  H   H991      1.0  0.34377  0.35455  0.93186  1.0000
  H   H992      1.0  0.35204  0.44809  0.79430  1.0000
  H   H993      1.0  0.47969  0.25588  0.79910  1.0000
  H   H994      1.0  0.44174  0.14436  0.85182  1.0000
  C   C1217     1.0  0.36427  0.42395  0.80906  1.0000
  H   H995      1.0  0.43409  0.99019  0.79571  1.0000
  C   C1218     1.0  0.38847  0.48483  0.94824  1.0000
  H   H996      1.0  0.47872  0.12008  0.88779  1.0000
  C   C1219     1.0  0.10864  0.45049  0.95790  1.0000
  C   C1220     1.0  0.99980  0.46215  0.84688  1.0000
  C   C1221     1.0  0.47286  0.08424  0.92205  1.0000
  C   C1222     1.0  0.44682  0.16990  0.96411  1.0000
  C   C1223     1.0  0.42301  0.45304  0.92702  1.0000
  C   C1224     1.0  0.40998  0.43246  0.96723  1.0000
  C   C1225     1.0  0.44919  0.29375  0.81620  1.0000
  C   C1226     1.0  0.13338  0.43079  0.84448  1.0000
  H   H997      1.0  0.46966  0.26007  0.82783  1.0000
  C   C1227     1.0  0.45333  0.28725  0.78817  1.0000
  H   H998      1.0  0.99487  0.40290  0.81938  1.0000
  C   C1228     1.0  0.42274  0.04030  0.82066  1.0000
  H   H999      1.0  0.42455  0.31765  0.88270  1.0000
  P   P41       1.0  0.31076  0.37874  0.94203  1.0000
  C   C1229     1.0  0.47376  0.05570  0.88319  1.0000
  C   C1230     1.0  0.32357  0.35299  0.96892  1.0000
  P   P42       1.0  0.15947  0.42894  0.96077  1.0000
  H   H1000     1.0  0.43235  0.28174  0.80981  1.0000
  C   C1231     1.0  0.41526  0.32992  0.88254  1.0000
  H   H1001     1.0  0.02872  0.40265  0.87580  1.0000
  P   P43       1.0  0.04168  0.43601  0.81653  1.0000
  C   C1232     1.0  0.36101  0.03127  0.85641  1.0000
  C   C1233     1.0  0.37031  0.45698  0.95087  1.0000
  H   H1002     1.0  0.48761  0.36066  0.81007  1.0000
  C   C1234     1.0  0.48135  0.23446  0.84080  1.0000
  C   C1235     1.0  0.33683  0.48546  0.83608  1.0000
  C   C1236     1.0  0.45904  0.10619  0.79974  1.0000
  C   C1237     1.0  0.40904  0.44930  0.90117  1.0000
  C   C1238     1.0  0.14137  0.44119  0.82954  1.0000
  H   H1003     1.0  0.47674  0.27539  0.84623  1.0000
  H   H1004     1.0  0.44402  0.34633  0.89178  1.0000
  C   C1239     1.0  0.39804  0.45459  0.91593  1.0000
  C   C1240     1.0  0.01794  0.40119  0.87157  1.0000
  H   H1005     1.0  0.23560  0.45324  0.97239  1.0000
  C   C1241     1.0  0.06357  0.40297  0.82103  1.0000
  H   H1006     1.0  0.20057  0.45453  0.88805  1.0000
  C   C1242     1.0  0.33727  0.41065  0.80710  1.0000
  C   C1243     1.0  0.01983  0.44550  0.82643  1.0000
  H   H1007     1.0  0.44512  0.06631  0.91215  1.0000
  C   C1244     1.0  0.37734  0.02637  0.86058  1.0000
  C   C1245     1.0  0.29500  0.42413  0.79638  1.0000
  C   C1246     1.0  0.29017  0.46577  0.79613  1.0000
  H   H1008     1.0  0.41233  0.13155  0.90373  1.0000
  C   C1247     1.0  0.46633  0.07341  0.87753  1.0000
  C   C1248     1.0  0.46591  0.13777  0.80072  1.0000
  C   C1249     1.0  0.39834  0.35496  0.86585  1.0000
  C   C1250     1.0  0.17854  0.40605  0.91878  1.0000
  C   C1251     1.0  0.44352  0.37034  0.91956  1.0000
  C   C1252     1.0  0.43082  0.29413  0.91099  1.0000
  C   C1253     1.0  0.17348  0.40857  0.93577  1.0000
  C   C1254     1.0  0.45931  0.40964  0.96163  1.0000
  H   H1009     1.0  0.44181  0.29382  0.82934  1.0000
  C   C1255     1.0  0.45821  0.07850  0.86330  1.0000
  C   C1256     1.0  0.15931  0.43984  0.82599  1.0000
  H   H1010     1.0  0.33055  0.47525  0.94079  1.0000
  C   C1257     1.0  0.45826  0.06670  0.94785  1.0000
  H   H1011     1.0  0.18242  0.48237  0.89527  1.0000
  C   C1258     1.0  0.33294  0.34645  0.98217  1.0000
  C   C1259     1.0  0.47656  0.25267  0.83800  1.0000
  S   S167      1.0  0.00985  0.38110  0.79171  1.0000
  C   C1260     1.0  0.43416  0.24464  0.96232  1.0000
  C   C1261     1.0  0.28910  0.40930  0.95117  1.0000
  C   C1262     1.0  0.04302  0.44200  0.79335  1.0000
  C   C1263     1.0  0.48418  0.21756  0.94661  1.0000
  C   C1264     1.0  0.35349  0.43512  0.95686  1.0000
  H   H1012     1.0  0.07293  0.48076  0.81268  1.0000
  C   C1265     1.0  0.03441  0.45858  0.78559  1.0000
  H   H1013     1.0  0.16094  0.42514  0.79752  1.0000
  C   C1266     1.0  0.44125  0.32163  0.97284  1.0000
  H   H1014     1.0  0.38419  0.45711  0.91699  1.0000
  C   C1267     1.0  0.45084  0.30549  0.91915  1.0000
  S   S168      1.0  0.14478  0.39005  0.80032  1.0000
  C   C1268     1.0  0.45978  0.27690  0.91263  1.0000
  C   C1269     1.0  0.36373  0.40659  0.81683  1.0000
  C   C1270     1.0  0.20420  0.45301  0.80244  1.0000
  H   H1015     1.0  0.44057  0.26846  0.90573  1.0000
  H   H1016     1.0  0.13972  0.48137  0.95239  1.0000
  H   H1017     1.0  0.42964  0.24317  0.95170  1.0000
  H   H1018     1.0  0.47660  0.08094  0.94786  1.0000
  C   C1271     1.0  0.39064  0.02108  0.83168  1.0000
  C   C1272     1.0  0.30051  0.47409  0.82192  1.0000
  C   C1273     1.0  0.34113  0.46533  0.94544  1.0000
  H   H1019     1.0  0.99747  0.46896  0.85712  1.0000
  C   C1274     1.0  0.45753  0.06613  0.85491  1.0000
  H   H1020     1.0  0.32782  0.44443  0.95175  1.0000
  H   H1021     1.0  0.26597  0.48376  0.80313  1.0000
  S   S169      1.0  0.11246  0.48356  0.79992  1.0000
  H   H1022     1.0  0.43117  0.19426  0.96989  1.0000
  C   C1275     1.0  0.16073  0.40853  0.97679  1.0000
  C   C1276     1.0  0.35140  0.43466  0.80023  1.0000
  C   C1277     1.0  0.45317  0.03989  0.81591  1.0000
  C   C1278     1.0  0.44030  0.35121  0.90354  1.0000
  H   H1023     1.0  0.11653  0.44665  0.80338  1.0000
  H   H1024     1.0  0.35758  0.48319  0.93974  1.0000
  H   H1025     1.0  0.22365  0.37781  0.96242  1.0000
  P   P44       1.0  0.25051  0.45785  0.90869  1.0000
  C   C1279     1.0  0.25087  0.46333  0.92850  1.0000
  C   C1280     1.0  0.22856  0.46493  0.90536  1.0000
  C   C1281     1.0  0.40495  0.45639  0.92906  1.0000
  H   H1026     1.0  0.18353  0.45087  0.93701  1.0000
  S   S170      1.0  0.48303  0.14510  0.84685  1.0000
  C   C1282     1.0  0.20534  0.46172  0.89430  1.0000
  C   C1283     1.0  0.22200  0.45554  0.89770  1.0000
  C   C1284     1.0  0.24129  0.45605  0.94458  1.0000
  H   H1027     1.0  0.35086  0.36643  0.87639  1.0000
  P   P45       1.0  0.46730  0.08921  0.88864  1.0000
  H   H1028     1.0  0.15866  0.46631  0.83859  1.0000
  C   C1285     1.0  0.44340  0.27878  0.90954  1.0000
  C   C1286     1.0  0.25812  0.43484  0.90884  1.0000
  C   C1287     1.0  0.06745  0.38486  0.82335  1.0000
  H   H1029     1.0  0.37467  0.42909  0.81001  1.0000
  C   C1288     1.0  0.26372  0.42953  0.89298  1.0000
  C   C1289     1.0  0.01732  0.38486  0.87011  1.0000
  C   C1290     1.0  0.46410  0.30044  0.81034  1.0000
  C   C1291     1.0  0.15907  0.45298  0.78954  1.0000
  C   C1292     1.0  0.45527  0.38124  0.96276  1.0000
  S   S171      1.0  0.46885  0.15832  0.80078  1.0000
  C   C1293     1.0  0.40231  0.32322  0.93578  1.0000
  H   H1030     1.0  0.42005  0.30204  0.94914  1.0000
  C   C1294     1.0  0.45272  0.23786  0.88572  1.0000
  C   C1295     1.0  0.10250  0.45897  0.97167  1.0000
  C   C1296     1.0  0.35028  0.39993  0.81580  1.0000
  H   H1031     1.0  0.18106  0.41830  0.89154  1.0000
  C   C1297     1.0  0.44943  0.06261  0.93774  1.0000
  H   H1032     1.0  0.46400  0.11731  0.85789  1.0000
  H   H1033     1.0  0.26737  0.35291  0.93237  1.0000
  H   H1034     1.0  0.32308  0.38845  0.87813  1.0000
  H   H1035     1.0  0.46328  0.04645  0.81479  1.0000
  H   H1036     1.0  0.06161  0.42268  0.84416  1.0000
  H   H1037     1.0  0.29175  0.42761  0.80886  1.0000
  C   C1298     1.0  0.42383  0.35096  0.93293  1.0000
  C   C1299     1.0  0.43164  0.36363  0.93385  1.0000
  C   C1300     1.0  0.12596  0.44157  0.95441  1.0000
  H   H1038     1.0  0.48591  0.15555  0.89404  1.0000
  H   H1039     1.0  0.43982  0.23217  0.86905  1.0000
  C   C1301     1.0  0.31176  0.46197  0.81267  1.0000
  H   H1040     1.0  0.46334  0.37885  0.79611  1.0000
  H   H1041     1.0  0.34956  0.03527  0.86594  1.0000
  C   C1302     1.0  0.44772  0.36424  0.90434  1.0000
  H   H1042     1.0  0.18470  0.39312  0.91645  1.0000
  C   C1303     1.0  0.32751  0.38097  0.88987  1.0000
  H   H1043     1.0  0.13031  0.43461  0.94404  1.0000
  C   C1304     1.0  0.39473  0.30646  0.96533  1.0000
  C   C1305     1.0  0.42697  0.44588  0.89930  1.0000
  H   H1044     1.0  0.46977  0.26533  0.91090  1.0000
  C   C1306     1.0  0.34311  0.36850  0.88892  1.0000
  H   H1045     1.0  0.29333  0.36516  0.92316  1.0000
  C   C1307     1.0  0.43476  0.30796  0.91493  1.0000
  C   C1308     1.0  0.40997  0.33779  0.89685  1.0000
  C   C1309     1.0  0.39352  0.36312  0.87977  1.0000
  H   H1046     1.0  0.47597  0.28850  0.92050  1.0000
  H   H1047     1.0  0.38560  0.37622  0.87860  1.0000
  H   H1048     1.0  0.33401  0.39272  0.95337  1.0000
  C   C1310     1.0  0.27184  0.35667  0.94176  1.0000
  C   C1311     1.0  0.34881  0.35889  0.90412  1.0000
  C   C1312     1.0  0.33350  0.37980  0.96130  1.0000
  C   C1313     1.0  0.46332  0.29003  0.91794  1.0000
  C   C1314     1.0  0.30672  0.45768  0.79971  1.0000
  C   C1315     1.0  0.47383  0.30048  0.79339  1.0000
  H   H1049     1.0  0.48172  0.09287  0.91643  1.0000
  C   C1316     1.0  0.31772  0.38402  0.90598  1.0000
  H   H1050     1.0  0.30576  0.39390  0.90646  1.0000
  H   H1051     1.0  0.39997  0.99870  0.79264  1.0000
  C   C1317     1.0  0.40930  0.33841  0.86720  1.0000
  H   H1052     1.0  0.39426  0.36180  0.85375  1.0000
  H   H1053     1.0  0.41384  0.33250  0.85604  1.0000
  H   H1054     1.0  0.40358  0.44781  0.89118  1.0000
  C   C1318     1.0  0.44442  0.01545  0.81248  1.0000
  H   H1055     1.0  0.36106  0.34947  0.90334  1.0000
  C   C1319     1.0  0.32341  0.37448  0.92132  1.0000
  H   H1056     1.0  0.17577  0.39738  0.94631  1.0000
  H   H1057     1.0  0.44946  0.38023  0.92029  1.0000
  C   C1320     1.0  0.46414  0.08010  0.91176  1.0000
  H   H1058     1.0  0.34677  0.03475  0.83674  1.0000
  C   C1321     1.0  0.28652  0.36378  0.93656  1.0000
  C   C1322     1.0  0.46955  0.36603  0.79355  1.0000
  C   C1323     1.0  0.29310  0.47427  0.87670  1.0000
  H   H1059     1.0  0.41579  0.23191  0.98212  1.0000
  C   C1324     1.0  0.45070  0.10872  0.88428  1.0000
  S   S172      1.0  0.37248  0.47199  0.88037  1.0000
  C   C1325     1.0  0.29199  0.36924  0.94855  1.0000
  C   C1326     1.0  0.31005  0.43089  0.92766  1.0000
  C   C1327     1.0  0.33898  0.36183  0.92029  1.0000
  H   H1060     1.0  0.31829  0.43918  0.91863  1.0000
  H   H1061     1.0  0.26702  0.48212  0.91577  1.0000
  H   H1062     1.0  0.25140  0.34908  0.96304  1.0000
  C   C1328     1.0  0.30408  0.40203  0.94018  1.0000
  C   C1329     1.0  0.17650  0.42023  0.90472  1.0000
  C   C1330     1.0  0.28470  0.42718  0.95041  1.0000
  C   C1331     1.0  0.29514  0.43798  0.93864  1.0000
  C   C1332     1.0  0.31459  0.41299  0.92849  1.0000
  H   H1063     1.0  0.35245  0.42161  0.96131  1.0000
  H   H1064     1.0  0.32655  0.40769  0.92025  1.0000
  H   H1065     1.0  0.45774  0.42341  0.95569  1.0000
  H   H1066     1.0  0.43890  0.16204  0.97424  1.0000
  S   S173      1.0  0.48878  0.34125  0.85408  1.0000
  H   H1067     1.0  0.44735  0.40438  0.94387  1.0000
  H   H1068     1.0  0.34067  0.47552  0.84703  1.0000
  C   C1333     1.0  0.37418  0.02588  0.82763  1.0000
  C   C1334     1.0  0.41614  0.99084  0.82035  1.0000
  C   C1335     1.0  0.01669  0.45404  0.83998  1.0000
  C   C1336     1.0  0.16349  0.43946  0.92465  1.0000
  C   C1337     1.0  0.16592  0.42533  0.93887  1.0000
  S   S174      1.0  0.47716  0.22398  0.82691  1.0000
  H   H1069     1.0  0.16753  0.44788  0.89666  1.0000
  C   C1338     1.0  0.16892  0.43693  0.90765  1.0000
  H   H1070     1.0  0.45714  0.36918  0.89331  1.0000
  P   P46       1.0  0.16919  0.45331  0.80647  1.0000
  H   H1071     1.0  0.43539  0.44167  0.88786  1.0000
  C   C1339     1.0  0.44764  0.25313  0.95881  1.0000
  C   C1340     1.0  0.45326  0.25537  0.97245  1.0000
  H   H1072     1.0  0.26881  0.38576  0.90805  1.0000
  C   C1341     1.0  0.05956  0.46117  0.81408  1.0000
  C   C1342     1.0  0.17698  0.39807  0.97925  1.0000
  H   H1073     1.0  0.45075  0.37319  0.95732  1.0000
  H   H1074     1.0  0.11962  0.43156  0.84684  1.0000
  C   C1343     1.0  0.26149  0.40445  0.92412  1.0000
  C   C1344     1.0  0.48688  0.34113  0.97973  1.0000
  H   H1075     1.0  0.48265  0.16552  0.93188  1.0000
  H   H1076     1.0  0.02768  0.37368  0.87312  1.0000
  C   C1345     1.0  0.45264  0.12015  0.86790  1.0000
  H   H1077     1.0  0.46802  0.30566  0.81905  1.0000
  H   H1078     1.0  0.41425  0.32576  0.97293  1.0000
  H   H1079     1.0  0.45227  0.09195  0.85862  1.0000
  C   C1346     1.0  0.36886  0.43955  0.95630  1.0000
  C   C1347     1.0  0.33771  0.42813  0.79928  1.0000
  C   C1348     1.0  0.43599  0.11285  0.89718  1.0000
  H   H1080     1.0  0.25997  0.39484  0.93625  1.0000
  C   C1349     1.0  0.46481  0.04855  0.86074  1.0000
  C   C1350     1.0  0.44386  0.28704  0.80517  1.0000
  C   C1351     1.0  0.19533  0.45803  0.97031  1.0000
  Fe  Fe84      1.0  0.48647  0.32307  0.88038  1.0000
  H   H1081     1.0  0.47135  0.41088  0.98139  1.0000
  H   H1082     1.0  0.15768  0.45249  0.92669  1.0000
  H   H1083     1.0  0.18871  0.40187  0.97130  1.0000
  H   H1084     1.0  0.20420  0.46418  0.97264  1.0000
  H   H1085     1.0  0.31442  0.47327  0.97855  1.0000
  C   C1352     1.0  0.46782  0.13346  0.78478  1.0000
  C   C1353     1.0  0.48935  0.25179  0.86168  1.0000
  H   H1086     1.0  0.37861  0.48430  0.84262  1.0000
  C   C1354     1.0  0.21820  0.48063  0.90945  1.0000
  H   H1087     1.0  0.46341  0.26237  0.96967  1.0000
  C   C1355     1.0  0.19512  0.47735  0.89841  1.0000
  C   C1356     1.0  0.04289  0.38468  0.78688  1.0000
  H   H1088     1.0  0.44822  0.00305  0.80885  1.0000
  H   H1089     1.0  0.36848  0.31430  0.97900  1.0000
  C   C1357     1.0  0.44903  0.34321  0.98254  1.0000
  H   H1090     1.0  0.23105  0.45319  0.79881  1.0000
  C   C1358     1.0  0.19860  0.42957  0.79385  1.0000
  C   C1359     1.0  0.48988  0.22497  0.85425  1.0000
  C   C1360     1.0  0.34292  0.37317  0.97446  1.0000
  S   S175      1.0  0.49023  0.17750  0.85851  1.0000
  H   H1091     1.0  0.18741  0.48380  0.85381  1.0000
  C   C1361     1.0  0.35646  0.46981  0.94501  1.0000
  C   C1362     1.0  0.48054  0.26135  0.84841  1.0000
  C   C1363     1.0  0.48783  0.13647  0.91811  1.0000
  H   H1092     1.0  0.35016  0.38118  0.97674  1.0000
  C   C1364     1.0  0.41917  0.34589  0.98157  1.0000
  C   C1365     1.0  0.03251  0.37418  0.78595  1.0000
  C   C1366     1.0  0.22198  0.44695  0.79684  1.0000
  H   H1093     1.0  0.10753  0.43030  0.78752  1.0000
  H   H1094     1.0  0.42388  0.40901  0.98178  1.0000
  S   S176      1.0  0.48266  0.33186  0.90497  1.0000
  C   C1367     1.0  0.49071  0.33889  0.79892  1.0000
  H   H1095     1.0  0.39850  0.29620  0.97615  1.0000
  H   H1096     1.0  0.18994  0.42221  0.79314  1.0000
  C   C1368     1.0  0.48963  0.22921  0.95243  1.0000
  C   C1369     1.0  0.45368  0.32770  0.97671  1.0000
  H   H1097     1.0  0.46677  0.32009  0.97537  1.0000
  H   H1098     1.0  0.39041  0.46934  0.98248  1.0000
  H   H1099     1.0  0.48571  0.29547  0.96301  1.0000
  C   C1370     1.0  0.10361  0.44435  0.78485  1.0000
  C   C1371     1.0  0.15698  0.43704  0.78830  1.0000
  C   C1372     1.0  0.41710  0.42243  0.98154  1.0000
  S   S177      1.0  0.10504  0.39440  0.78527  1.0000
  C   C1373     1.0  0.46688  0.40260  0.97616  1.0000
  H   H1100     1.0  0.06895  0.38738  0.78401  1.0000
  C   C1374     1.0  0.99092  0.41380  0.86175  1.0000
  H   H1101     1.0  0.40576  0.35272  0.98389  1.0000
  Fe  Fe85      1.0  0.46709  0.77523  0.01499  1.0000
  S   S178      1.0  0.46692  0.74954  0.03382  1.0000
  H   H1102     1.0  0.16703  0.50024  0.02589  1.0000
  Fe  Fe86      1.0  0.45703  0.79559  0.04383  1.0000
  S   S179      1.0  0.45585  0.77145  0.06498  1.0000
  S   S180      1.0  0.45618  0.82247  0.04655  1.0000
  H   H1103     1.0  0.03039  0.63313  0.16790  1.0000
  S   S181      1.0  0.48036  0.85273  0.18044  1.0000
  Fe  Fe87      1.0  0.44254  0.76389  0.04844  1.0000
  S   S182      1.0  0.41783  0.75417  0.06001  1.0000
  H   H1104     1.0  0.05000  0.59396  0.07208  1.0000
  S   S183      1.0  0.44172  0.78917  0.02841  1.0000
  Fe  Fe88      1.0  0.41957  0.66096  0.04939  1.0000
  S   S184      1.0  0.43912  0.63551  0.05293  1.0000
  S   S185      1.0  0.41066  0.67672  0.07003  1.0000
  Fe  Fe89      1.0  0.41549  0.65749  0.01518  1.0000
  S   S186      1.0  0.43509  0.63223  0.01545  1.0000
  S   S187      1.0  0.25056  0.49408  0.99956  1.0000
  Fe  Fe90      1.0  0.42173  0.62510  0.04327  1.0000
  S   S188      1.0  0.41801  0.59765  0.05591  1.0000
  Fe  Fe91      1.0  0.45066  0.64478  0.02485  1.0000
  C   C1375     1.0  0.48263  0.93818  0.15208  1.0000
  S   S189      1.0  0.40100  0.64967  0.04249  1.0000
  S   S190      1.0  0.43219  0.67097  0.02187  1.0000
  C   C1376     1.0  0.38799  0.79488  0.99811  1.0000
  S   S191      1.0  0.22257  0.52278  0.03251  1.0000
  C   C1377     1.0  0.44726  0.56689  0.99620  1.0000
  Fe  Fe92      1.0  0.19663  0.53242  0.02532  1.0000
  S   S192      1.0  0.17472  0.52106  0.04350  1.0000
  H   H1105     1.0  0.46458  0.68983  0.01823  1.0000
  H   H1106     1.0  0.19736  0.49712  0.14306  1.0000
  Fe  Fe93      1.0  0.36594  0.54994  0.02055  1.0000
  C   C1378     1.0  0.19404  0.49464  0.11861  1.0000
  S   S193      1.0  0.38570  0.54523  0.03685  1.0000
  Fe  Fe94      1.0  0.32920  0.56653  0.01551  1.0000
  S   S194      1.0  0.23828  0.54538  0.99421  1.0000
  S   S195      1.0  0.30443  0.58483  0.02481  1.0000
  Fe  Fe95      1.0  0.34679  0.53095  0.00721  1.0000
  C   C1379     1.0  0.04183  0.59586  0.08451  1.0000
  H   H1107     1.0  0.29875  0.62727  0.01265  1.0000
  C   C1380     1.0  0.46521  0.56520  0.98994  1.0000
  S   S196      1.0  0.34085  0.54095  0.03147  1.0000
  S   S197      1.0  0.35382  0.57620  0.00647  1.0000
  H   H1108     1.0  0.14287  0.56801  0.01347  1.0000
  C   C1381     1.0  0.47256  0.71370  0.10056  1.0000
  H   H1109     1.0  0.48444  0.97435  0.10153  1.0000
  Fe  Fe96      1.0  0.09541  0.55255  0.10112  1.0000
  S   S198      1.0  0.11210  0.52710  0.11155  1.0000
  S   S199      1.0  0.10865  0.57041  0.07838  1.0000
  Fe  Fe97      1.0  0.06289  0.54345  0.12577  1.0000
  S   S200      1.0  0.07699  0.51709  0.13767  1.0000
  Fe  Fe98      1.0  0.09680  0.53091  0.13775  1.0000
  S   S201      1.0  0.10949  0.52165  0.16083  1.0000
  Fe  Fe99      1.0  0.09081  0.51578  0.11040  1.0000
  H   H1110     1.0  0.01953  0.61071  0.07386  1.0000
  S   S202      1.0  0.08178  0.55763  0.12765  1.0000
  S   S203      1.0  0.07493  0.54104  0.09833  1.0000
  H   H1111     1.0  0.39500  0.73705  0.03184  1.0000
  P   P47       1.0  0.40775  0.74400  0.99371  1.0000
  C   C1382     1.0  0.17997  0.54199  0.14760  1.0000
  H   H1112     1.0  0.41444  0.51555  0.01683  1.0000
  H   H1113     1.0  0.24863  0.49329  0.11879  1.0000
  C   C1383     1.0  0.00339  0.54704  0.13636  1.0000
  C   C1384     1.0  0.48836  0.75950  0.13195  1.0000
  C   C1385     1.0  0.43760  0.65760  0.11308  1.0000
  C   C1386     1.0  0.15842  0.50366  0.11601  1.0000
  H   H1114     1.0  0.48625  0.88796  0.16797  1.0000
  H   H1115     1.0  0.42358  0.96246  0.17257  1.0000
  C   C1387     1.0  0.44036  0.56682  0.01385  1.0000
  C   C1388     1.0  0.03789  0.59071  0.11575  1.0000
  P   P48       1.0  0.00669  0.60303  0.13778  1.0000
  H   H1116     1.0  0.19681  0.52854  0.12824  1.0000
  H   H1117     1.0  0.00040  0.54454  0.15041  1.0000
  H   H1118     1.0  0.12235  0.52265  0.99130  1.0000
  H   H1119     1.0  0.46345  0.66303  0.04086  1.0000
  C   C1389     1.0  0.10014  0.55435  0.16765  1.0000
  H   H1120     1.0  0.33771  0.53236  0.07740  1.0000
  H   H1121     1.0  0.04314  0.50888  0.13837  1.0000
  C   C1390     1.0  0.19459  0.49531  0.98549  1.0000
  H   H1122     1.0  0.09783  0.55921  0.15462  1.0000
  H   H1123     1.0  0.13254  0.51790  0.02045  1.0000
  H   H1124     1.0  0.47202  0.71471  0.05437  1.0000
  C   C1391     1.0  0.26762  0.56203  0.02171  1.0000
  C   C1392     1.0  0.40238  0.76417  0.00100  1.0000
  S   S204      1.0  0.46922  0.91844  0.11081  1.0000
  C   C1393     1.0  0.46460  0.59175  0.04396  1.0000
  H   H1125     1.0  0.47072  0.74604  0.15222  1.0000
  C   C1394     1.0  0.39162  0.72800  0.02672  1.0000
  H   H1126     1.0  0.37428  0.69220  0.04187  1.0000
  C   C1395     1.0  0.02470  0.60529  0.08554  1.0000
  H   H1127     1.0  0.46448  0.64414  0.14159  1.0000
  C   C1396     1.0  0.42678  0.54926  0.98476  1.0000
  C   C1397     1.0  0.09863  0.56608  0.17783  1.0000
  S   S205      1.0  0.20630  0.52639  0.99894  1.0000
  C   C1398     1.0  0.49061  0.57984  0.06342  1.0000
  H   H1128     1.0  0.23335  0.58395  0.00292  1.0000
  C   C1399     1.0  0.15581  0.53562  0.05114  1.0000
  C   C1400     1.0  0.15506  0.55343  0.04821  1.0000
  C   C1401     1.0  0.14017  0.56438  0.05584  1.0000
  C   C1402     1.0  0.12609  0.55751  0.06645  1.0000
  C   C1403     1.0  0.12641  0.53998  0.06822  1.0000
  C   C1404     1.0  0.14125  0.52907  0.06069  1.0000
  H   H1129     1.0  0.16613  0.55864  0.04060  1.0000
  H   H1130     1.0  0.13987  0.57800  0.05415  1.0000
  H   H1131     1.0  0.11521  0.53477  0.07547  1.0000
  H   H1132     1.0  0.14147  0.51549  0.06235  1.0000
  C   C1405     1.0  0.28482  0.57881  0.02737  1.0000
  C   C1406     1.0  0.27011  0.58638  0.03829  1.0000
  C   C1407     1.0  0.25441  0.58148  0.04129  1.0000
  C   C1408     1.0  0.25307  0.56935  0.03300  1.0000
  H   H1133     1.0  0.44562  0.56525  0.03861  1.0000
  C   C1409     1.0  0.28357  0.56666  0.01898  1.0000
  H   H1134     1.0  0.27095  0.59582  0.04477  1.0000
  H   H1135     1.0  0.24321  0.58719  0.05004  1.0000
  H   H1136     1.0  0.15433  0.54539  0.10139  1.0000
  H   H1137     1.0  0.29485  0.56093  0.01037  1.0000
  C   C1410     1.0  0.40792  0.58439  0.04997  1.0000
  C   C1411     1.0  0.41087  0.56672  0.05819  1.0000
  C   C1412     1.0  0.40387  0.55519  0.05392  1.0000
  C   C1413     1.0  0.39345  0.56108  0.04160  1.0000
  C   C1414     1.0  0.39013  0.57887  0.03341  1.0000
  C   C1415     1.0  0.39744  0.59053  0.03758  1.0000
  H   H1138     1.0  0.41876  0.56185  0.06789  1.0000
  H   H1139     1.0  0.40648  0.54155  0.06035  1.0000
  H   H1140     1.0  0.38210  0.58358  0.02386  1.0000
  H   H1141     1.0  0.39484  0.60421  0.03141  1.0000
  C   C1416     1.0  0.19645  0.52731  0.08549  1.0000
  H   H1142     1.0  0.01043  0.66499  0.11723  1.0000
  H   H1143     1.0  0.28004  0.52087  0.99826  1.0000
  C   C1417     1.0  0.39912  0.61358  0.99438  1.0000
  H   H1144     1.0  0.03683  0.60016  0.15155  1.0000
  C   C1418     1.0  0.38275  0.88073  0.02937  1.0000
  H   H1145     1.0  0.47640  0.63034  0.05019  1.0000
  H   H1146     1.0  0.04327  0.58453  0.12719  1.0000
  C   C1419     1.0  0.45658  0.82593  0.06666  1.0000
  C   C1420     1.0  0.46201  0.84055  0.06700  1.0000
  C   C1421     1.0  0.46168  0.84410  0.08291  1.0000
  C   C1422     1.0  0.45530  0.83339  0.09856  1.0000
  C   C1423     1.0  0.44954  0.81899  0.09817  1.0000
  C   C1424     1.0  0.45050  0.81505  0.08230  1.0000
  H   H1147     1.0  0.46648  0.84916  0.05493  1.0000
  H   H1148     1.0  0.46588  0.85539  0.08306  1.0000
  C   C1425     1.0  0.14834  0.49595  0.13151  1.0000
  H   H1149     1.0  0.44599  0.80395  0.08216  1.0000
  C   C1426     1.0  0.41677  0.73249  0.06195  1.0000
  C   C1427     1.0  0.40552  0.72500  0.07640  1.0000
  C   C1428     1.0  0.40407  0.70788  0.07869  1.0000
  C   C1429     1.0  0.41328  0.69821  0.06619  1.0000
  C   C1430     1.0  0.42414  0.70583  0.05133  1.0000
  C   C1431     1.0  0.42618  0.72286  0.04937  1.0000
  H   H1150     1.0  0.39807  0.73237  0.08609  1.0000
  H   H1151     1.0  0.39557  0.70217  0.09015  1.0000
  H   H1152     1.0  0.43092  0.69860  0.04143  1.0000
  H   H1153     1.0  0.43472  0.72862  0.03802  1.0000
  C   C1432     1.0  0.15348  0.53068  0.14171  1.0000
  H   H1154     1.0  0.03614  0.55523  0.10174  1.0000
  S   S206      1.0  0.45982  0.87402  0.13878  1.0000
  H   H1155     1.0  0.44834  0.77301  0.15596  1.0000
  Fe  Fe100     1.0  0.21101  0.55331  0.98991  1.0000
  C   C1433     1.0  0.46899  0.94297  0.16552  1.0000
  H   H1156     1.0  0.36119  0.90284  0.02763  1.0000
  C   C1434     1.0  0.00905  0.63800  0.12612  1.0000
  C   C1435     1.0  0.38287  0.83514  0.04225  1.0000
  H   H1157     1.0  0.47198  0.56673  0.08305  1.0000
  C   C1436     1.0  0.48108  0.61135  0.10403  1.0000
  C   C1437     1.0  0.46231  0.67119  0.10176  1.0000
  P   P49       1.0  0.17571  0.51286  0.11652  1.0000
  S   S207      1.0  0.03483  0.54955  0.13857  1.0000
  H   H1158     1.0  0.01995  0.49393  0.10567  1.0000
  C   C1438     1.0  0.47286  0.75851  0.14419  1.0000
  C   C1439     1.0  0.41766  0.52337  0.00381  1.0000
  H   H1159     1.0  0.22513  0.51841  0.11033  1.0000
  C   C1440     1.0  0.02648  0.49024  0.11641  1.0000
  S   S208      1.0  0.19891  0.56022  0.01581  1.0000
  C   C1441     1.0  0.42513  0.97575  0.16908  1.0000
  C   C1442     1.0  0.45961  0.65092  0.12989  1.0000
  C   C1443     1.0  0.01975  0.54969  0.12709  1.0000
  C   C1444     1.0  0.48039  0.59676  0.03716  1.0000
  C   C1445     1.0  0.16715  0.54394  0.09305  1.0000
  H   H1160     1.0  0.42658  0.56823  0.01897  1.0000
  C   C1446     1.0  0.99903  0.62825  0.15710  1.0000
  H   H1161     1.0  0.44417  0.81089  0.11017  1.0000
  H   H1162     1.0  0.47136  0.85139  0.00082  1.0000
  C   C1447     1.0  0.00720  0.65474  0.12838  1.0000
  S   S209      1.0  0.48655  0.87063  0.10120  1.0000
  H   H1163     1.0  0.41077  0.50702  0.99159  1.0000
  H   H1164     1.0  0.47204  0.73464  0.11183  1.0000
  S   S210      1.0  0.33307  0.55602  0.99219  1.0000
  C   C1448     1.0  0.03809  0.57751  0.17244  1.0000
  C   C1449     1.0  0.46890  0.95646  0.17295  1.0000
  H   H1165     1.0  0.38062  0.69334  0.01037  1.0000
  C   C1450     1.0  0.44645  0.66915  0.10021  1.0000
  C   C1451     1.0  0.44422  0.64840  0.12789  1.0000
  H   H1166     1.0  0.16076  0.56910  0.07618  1.0000
  C   C1452     1.0  0.38382  0.71501  0.03854  1.0000
  H   H1167     1.0  0.19013  0.54673  0.14961  1.0000
  C   C1453     1.0  0.46010  0.73329  0.99086  1.0000
  C   C1454     1.0  0.01564  0.58778  0.15553  1.0000
  C   C1455     1.0  0.43963  0.73204  0.09506  1.0000
  S   S211      1.0  0.23307  0.56338  0.03776  1.0000
  H   H1168     1.0  0.44455  0.86169  0.02069  1.0000
  H   H1169     1.0  0.16412  0.50780  0.08786  1.0000
  H   H1170     1.0  0.36492  0.49384  0.02686  1.0000
  H   H1171     1.0  0.45841  0.93635  0.16977  1.0000
  H   H1172     1.0  0.02787  0.51659  0.11419  1.0000
  H   H1173     1.0  0.23356  0.48767  0.05025  1.0000
  H   H1174     1.0  0.41266  0.83725  0.06905  1.0000
  P   P50       1.0  0.41052  0.85207  0.03191  1.0000
  C   C1456     1.0  0.40258  0.80339  0.05717  1.0000
  C   C1457     1.0  0.13977  0.52772  0.01297  1.0000
  Fe  Fe101     1.0  0.48256  0.86061  0.15134  1.0000
  H   H1175     1.0  0.45438  0.59670  0.03667  1.0000
  S   S212      1.0  0.34055  0.50724  0.00360  1.0000
  S   S213      1.0  0.47710  0.77516  0.98665  1.0000
  Fe  Fe102     1.0  0.47002  0.85428  0.12208  1.0000
  H   H1176     1.0  0.44282  0.75094  0.10686  1.0000
  C   C1458     1.0  0.48935  0.96050  0.10267  1.0000
  C   C1459     1.0  0.42239  0.88322  0.05620  1.0000
  H   H1177     1.0  0.30554  0.48939  0.09670  1.0000
  H   H1178     1.0  0.04964  0.53561  0.16722  1.0000
  H   H1179     1.0  0.12584  0.54574  0.02941  1.0000
  S   S214      1.0  0.37290  0.53747  0.99767  1.0000
  C   C1460     1.0  0.47471  0.57476  0.07010  1.0000
  H   H1180     1.0  0.06171  0.58128  0.09877  1.0000
  H   H1181     1.0  0.48051  0.80352  0.11636  1.0000
  H   H1182     1.0  0.48203  0.97662  0.17103  1.0000
  C   C1461     1.0  0.39393  0.79546  0.01228  1.0000
  H   H1183     1.0  0.99951  0.67130  0.14663  1.0000
  C   C1462     1.0  0.16300  0.54664  0.15675  1.0000
  Fe  Fe103     1.0  0.35885  0.56317  0.98448  1.0000
  C   C1463     1.0  0.04844  0.58868  0.09959  1.0000
  H   H1184     1.0  0.21246  0.53953  0.06235  1.0000
  H   H1185     1.0  0.41915  0.84870  0.09052  1.0000
  C   C1464     1.0  0.37536  0.82072  0.04994  1.0000
  H   H1186     1.0  0.44076  0.67654  0.08909  1.0000
  H   H1187     1.0  0.42359  0.81637  0.04938  1.0000
  C   C1465     1.0  0.03060  0.58965  0.15925  1.0000
  C   C1466     1.0  0.46983  0.68797  0.06436  1.0000
  H   H1188     1.0  0.47407  0.59556  0.09150  1.0000
  C   C1467     1.0  0.26761  0.50069  0.09580  1.0000
  C   C1468     1.0  0.00787  0.57399  0.16569  1.0000
  C   C1469     1.0  0.41363  0.58605  0.98597  1.0000
  H   H1189     1.0  0.30783  0.48771  0.00314  1.0000
  C   C1470     1.0  0.03509  0.62256  0.17803  1.0000
  P   P51       1.0  0.47313  0.68684  0.08549  1.0000
  H   H1190     1.0  0.42549  0.89590  0.05270  1.0000
  Fe  Fe104     1.0  0.22585  0.55009  0.02102  1.0000
  C   C1471     1.0  0.41013  0.81773  0.04941  1.0000
  C   C1472     1.0  0.14455  0.49306  0.09967  1.0000
  H   H1191     1.0  0.26657  0.55267  0.01531  1.0000
  C   C1473     1.0  0.46898  0.56337  0.01873  1.0000
  C   C1474     1.0  0.41869  0.85667  0.07755  1.0000
  H   H1192     1.0  0.46940  0.73999  0.99162  1.0000
  C   C1475     1.0  0.47787  0.94968  0.10546  1.0000
  Fe  Fe105     1.0  0.23250  0.51889  0.00534  1.0000
  C   C1476     1.0  0.32373  0.62228  0.99568  1.0000
  H   H1193     1.0  0.37496  0.84728  0.03662  1.0000
  C   C1477     1.0  0.15314  0.52453  0.99860  1.0000
  C   C1478     1.0  0.17061  0.52530  0.13300  1.0000
  C   C1479     1.0  0.47600  0.56344  0.00118  1.0000
  H   H1194     1.0  0.30623  0.59714  0.98816  1.0000
  C   C1480     1.0  0.18004  0.52886  0.09664  1.0000
  C   C1481     1.0  0.46854  0.66243  0.11696  1.0000
  C   C1482     1.0  0.38523  0.80484  0.05737  1.0000
  C   C1483     1.0  0.03100  0.50316  0.12116  1.0000
  C   C1484     1.0  0.45116  0.56511  0.02504  1.0000
  H   H1195     1.0  0.00091  0.61484  0.10222  1.0000
  C   C1485     1.0  0.43013  0.84534  0.01655  1.0000
  C   C1486     1.0  0.18706  0.55579  0.06768  1.0000
  C   C1487     1.0  0.15887  0.55300  0.99481  1.0000
  C   C1488     1.0  0.46620  0.68941  0.03098  1.0000
  H   H1196     1.0  0.47908  0.70980  0.98680  1.0000
  C   C1489     1.0  0.43686  0.98038  0.17562  1.0000
  C   C1490     1.0  0.41510  0.86018  0.04818  1.0000
  C   C1491     1.0  0.10551  0.53646  0.17404  1.0000
  H   H1197     1.0  0.02546  0.52080  0.17557  1.0000
  C   C1492     1.0  0.41361  0.59975  0.99308  1.0000
  C   C1493     1.0  0.39546  0.72873  0.00878  1.0000
  H   H1198     1.0  0.36187  0.82184  0.05020  1.0000
  C   C1494     1.0  0.39215  0.77934  0.99250  1.0000
  Fe  Fe106     1.0  0.48024  0.75936  0.04833  1.0000
  H   H1199     1.0  0.01375  0.63563  0.11316  1.0000
  H   H1200     1.0  0.37950  0.79361  0.06330  1.0000
  C   C1495     1.0  0.46507  0.72948  0.10574  1.0000
  H   H1201     1.0  0.48017  0.66464  0.11890  1.0000
  H   H1202     1.0  0.14983  0.49653  0.14403  1.0000
  C   C1496     1.0  0.44723  0.71646  0.08953  1.0000
  C   C1497     1.0  0.41862  0.87685  0.04385  1.0000
  H   H1203     1.0  0.46417  0.95530  0.10639  1.0000
  C   C1498     1.0  0.01082  0.55395  0.10009  1.0000
  H   H1204     1.0  0.44014  0.71150  0.08338  1.0000
  C   C1499     1.0  0.44463  0.85240  0.01360  1.0000
  H   H1205     1.0  0.43888  0.75494  0.99426  1.0000
  C   C1500     1.0  0.13592  0.54348  0.01808  1.0000
  C   C1501     1.0  0.42249  0.87309  0.07302  1.0000
  C   C1502     1.0  0.46383  0.70730  0.09202  1.0000
  C   C1503     1.0  0.47021  0.70335  0.05149  1.0000
  C   C1504     1.0  0.29995  0.64600  0.98806  1.0000
  C   C1505     1.0  0.46182  0.58066  0.06037  1.0000
  H   H1206     1.0  0.42681  0.73910  0.09306  1.0000
  H   H1207     1.0  0.32884  0.61101  0.00502  1.0000
  H   H1208     1.0  0.46827  0.66096  0.06973  1.0000
  S   S215      1.0  0.45325  0.83819  0.11879  1.0000
  H   H1209     1.0  0.21119  0.60272  0.98641  1.0000
  C   C1506     1.0  0.17074  0.55744  0.07877  1.0000
  C   C1507     1.0  0.41548  0.51865  0.98961  1.0000
  H   H1210     1.0  0.38137  0.71425  0.05238  1.0000
  H   H1211     1.0  0.43951  0.78721  0.99288  1.0000
  H   H1212     1.0  0.38111  0.87896  0.04328  1.0000
  H   H1213     1.0  0.42548  0.65601  0.11158  1.0000
  H   H1214     1.0  0.42474  0.59990  0.99755  1.0000
  H   H1215     1.0  0.39082  0.80748  0.01661  1.0000
  C   C1508     1.0  0.40038  0.83372  0.04189  1.0000
  C   C1509     1.0  0.37140  0.89423  0.02056  1.0000
  H   H1216     1.0  0.41024  0.79109  0.06299  1.0000
  C   C1510     1.0  0.05006  0.52361  0.17703  1.0000
  C   C1511     1.0  0.44264  0.74174  0.99257  1.0000
  H   H1217     1.0  0.26167  0.50605  0.02388  1.0000
  C   C1512     1.0  0.37984  0.70257  0.03262  1.0000
  C   C1513     1.0  0.30670  0.63151  0.00002  1.0000
  H   H1218     1.0  0.42011  0.82715  0.00947  1.0000
  C   C1514     1.0  0.39778  0.87199  0.00231  1.0000
  C   C1515     1.0  0.37323  0.89664  0.00265  1.0000
  C   C1516     1.0  0.18372  0.53152  0.13565  1.0000
  H   H1219     1.0  0.47730  0.56207  0.02744  1.0000
  H   H1220     1.0  0.41623  0.75360  0.02203  1.0000
  H   H1221     1.0  0.01335  0.49730  0.16593  1.0000
  C   C1517     1.0  0.39608  0.86955  0.02030  1.0000
  C   C1518     1.0  0.15647  0.50209  0.10006  1.0000
  H   H1222     1.0  0.42419  0.54223  0.01277  1.0000
  C   C1519     1.0  0.46799  0.67320  0.06026  1.0000
  H   H1223     1.0  0.42582  0.87779  0.08252  1.0000
  S   S216      1.0  0.47912  0.64305  0.01278  1.0000
  H   H1224     1.0  0.28674  0.65316  0.99150  1.0000
  H   H1225     1.0  0.41874  0.88481  0.03083  1.0000
  C   C1520     1.0  0.02355  0.55302  0.10895  1.0000
  C   C1521     1.0  0.45997  0.84655  0.00230  1.0000
  C   C1522     1.0  0.40827  0.76496  0.01524  1.0000
  C   C1523     1.0  0.01416  0.60751  0.10167  1.0000
  Fe  Fe107     1.0  0.47827  0.88923  0.11908  1.0000
  C   C1524     1.0  0.47852  0.79081  0.12382  1.0000
  C   C1525     1.0  0.48890  0.63352  0.04443  1.0000
  H   H1226     1.0  0.45364  0.80166  0.13820  1.0000
  C   C1526     1.0  0.46027  0.77367  0.14635  1.0000
  C   C1527     1.0  0.40395  0.78049  0.02087  1.0000
  H   H1227     1.0  0.45756  0.69469  0.98513  1.0000
  H   H1228     1.0  0.18979  0.56615  0.05644  1.0000
  H   H1229     1.0  0.43722  0.63959  0.13793  1.0000
  H   H1230     1.0  0.46838  0.71602  0.02501  1.0000
  H   H1231     1.0  0.26275  0.57253  0.98747  1.0000
  H   H1232     1.0  0.39923  0.62418  0.99978  1.0000
  S   S217      1.0  0.48223  0.78407  0.02831  1.0000
  C   C1528     1.0  0.42322  0.53863  0.00144  1.0000
  C   C1529     1.0  0.44642  0.82708  0.99609  1.0000
  H   H1233     1.0  0.01366  0.55681  0.08604  1.0000
  C   C1530     1.0  0.14980  0.54109  0.15369  1.0000
  C   C1531     1.0  0.39146  0.71606  0.00296  1.0000
  P   P52       1.0  0.29221  0.51096  0.06567  1.0000
  C   C1532     1.0  0.27101  0.51293  0.08013  1.0000
  C   C1533     1.0  0.30205  0.52753  0.06711  1.0000
  C   C1534     1.0  0.31819  0.52305  0.07191  1.0000
  C   C1535     1.0  0.32512  0.53584  0.07405  1.0000
  C   C1536     1.0  0.31620  0.55323  0.07113  1.0000
  C   C1537     1.0  0.30034  0.55785  0.06607  1.0000
  C   C1538     1.0  0.29335  0.54511  0.06394  1.0000
  C   C1539     1.0  0.25743  0.52692  0.07538  1.0000
  C   C1540     1.0  0.24102  0.52891  0.08626  1.0000
  C   C1541     1.0  0.41507  0.85019  0.06521  1.0000
  C   C1542     1.0  0.43107  0.83282  0.00747  1.0000
  H   H1234     1.0  0.14286  0.49215  0.08736  1.0000
  C   C1543     1.0  0.28822  0.51479  0.04421  1.0000
  C   C1544     1.0  0.29906  0.52268  0.02953  1.0000
  C   C1545     1.0  0.29627  0.52466  0.01292  1.0000
  C   C1546     1.0  0.28259  0.51896  0.01096  1.0000
  C   C1547     1.0  0.27203  0.51077  0.02548  1.0000
  C   C1548     1.0  0.27492  0.50856  0.04202  1.0000
  C   C1549     1.0  0.23785  0.51681  0.10191  1.0000
  C   C1550     1.0  0.19985  0.54070  0.07100  1.0000
  H   H1235     1.0  0.46782  0.61824  0.10789  1.0000
  C   C1551     1.0  0.46091  0.83379  0.99368  1.0000
  C   C1552     1.0  0.46570  0.67413  0.04376  1.0000
  H   H1236     1.0  0.32575  0.50985  0.07366  1.0000
  H   H1237     1.0  0.32180  0.56321  0.07229  1.0000
  H   H1238     1.0  0.29367  0.57141  0.06335  1.0000
  H   H1239     1.0  0.28130  0.54917  0.05955  1.0000
  H   H1240     1.0  0.25934  0.53628  0.06309  1.0000
  H   H1241     1.0  0.23083  0.53996  0.08248  1.0000
  H   H1242     1.0  0.20672  0.51598  0.08793  1.0000
  C   C1553     1.0  0.44861  0.73865  0.10297  1.0000
  C   C1554     1.0  0.00487  0.62463  0.14047  1.0000
  H   H1243     1.0  0.30976  0.52709  0.03083  1.0000
  H   H1244     1.0  0.30470  0.53071  0.00160  1.0000
  C   C1555     1.0  0.02058  0.60003  0.11698  1.0000
  H   H1245     1.0  0.36444  0.90712  0.99582  1.0000
  C   C1556     1.0  0.23682  0.58782  0.98889  1.0000
  H   H1246     1.0  0.47300  0.82882  0.98548  1.0000
  H   H1247     1.0  0.44942  0.57704  0.06576  1.0000
  H   H1248     1.0  0.40840  0.78091  0.03195  1.0000
  H   H1249     1.0  0.48552  0.60047  0.99139  1.0000
  C   C1557     1.0  0.25111  0.50268  0.10666  1.0000
  C   C1558     1.0  0.46837  0.70406  0.03484  1.0000
  H   H1250     1.0  0.14281  0.52735  0.13902  1.0000
  C   C1559     1.0  0.38349  0.70320  0.01485  1.0000
  C   C1560     1.0  0.14553  0.55606  0.00910  1.0000
  C   C1561     1.0  0.46320  0.78980  0.13629  1.0000
  C   C1562     1.0  0.48228  0.96553  0.16624  1.0000
  H   H1251     1.0  0.05005  0.57855  0.17479  1.0000
  H   H1252     1.0  0.40785  0.86353  0.99499  1.0000
  C   C1563     1.0  0.03643  0.51505  0.18178  1.0000
  C   C1564     1.0  0.05291  0.61626  0.17687  1.0000
  S   S218      1.0  0.40210  0.66769  0.99274  1.0000
  H   H1253     1.0  0.26678  0.50193  0.05307  1.0000
  C   C1565     1.0  0.38640  0.88551  0.99354  1.0000
  H   H1254     1.0  0.48979  0.56227  0.99625  1.0000
  C   C1566     1.0  0.03965  0.49879  0.13477  1.0000
  P   P53       1.0  0.15850  0.50382  0.99249  1.0000
  H   H1255     1.0  0.06199  0.62185  0.16589  1.0000
  H   H1256     1.0  0.09504  0.57991  0.17257  1.0000
  H   H1257     1.0  0.45421  0.60301  0.99673  1.0000
  C   C1567     1.0  0.00154  0.50243  0.17438  1.0000
  C   C1568     1.0  0.48472  0.59847  0.09465  1.0000
  C   C1569     1.0  0.16261  0.53737  0.98949  1.0000
  H   H1258     1.0  0.38034  0.80652  0.99130  1.0000
  H   H1259     1.0  0.99650  0.57206  0.16297  1.0000
  H   H1260     1.0  0.48513  0.70662  0.10321  1.0000
  H   H1261     1.0  0.17910  0.50760  0.17173  1.0000
  H   H1262     1.0  0.99591  0.61809  0.16837  1.0000
  H   H1263     1.0  0.48239  0.60567  0.02460  1.0000
  C   C1570     1.0  0.00108  0.65828  0.14494  1.0000
  S   S219      1.0  0.09594  0.49337  0.09778  1.0000
  H   H1264     1.0  0.40709  0.98442  0.15201  1.0000
  H   H1265     1.0  0.13661  0.54513  0.16044  1.0000
  H   H1266     1.0  0.16658  0.56260  0.98803  1.0000
  C   C1571     1.0  0.45344  0.70787  0.98714  1.0000
  C   C1572     1.0  0.46553  0.71637  0.98808  1.0000
  C   C1573     1.0  0.43592  0.71620  0.98912  1.0000
  C   C1574     1.0  0.48400  0.93164  0.10726  1.0000
  H   H1267     1.0  0.23453  0.49060  0.07924  1.0000
  H   H1268     1.0  0.21711  0.49386  0.02229  1.0000
  H   H1269     1.0  0.09723  0.48925  0.17294  1.0000
  H   H1270     1.0  0.39492  0.71573  0.98933  1.0000
  C   C1575     1.0  0.43035  0.73319  0.99197  1.0000
  H   H1271     1.0  0.15995  0.55484  0.16596  1.0000
  C   C1576     1.0  0.38445  0.61365  0.98891  1.0000
  H   H1272     1.0  0.44729  0.81700  0.98957  1.0000
  H   H1273     1.0  0.48986  0.90822  0.18355  1.0000
  C   C1577     1.0  0.99434  0.55151  0.10936  1.0000
  C   C1578     1.0  0.99696  0.64504  0.15929  1.0000
  H   H1274     1.0  0.42680  0.70932  0.98838  1.0000
  C   C1579     1.0  0.48556  0.88407  0.18184  1.0000
  C   C1580     1.0  0.01520  0.56205  0.17912  1.0000
  H   H1275     1.0  0.43724  0.67123  0.98615  1.0000
  H   H1276     1.0  0.37318  0.62427  0.99007  1.0000
  H   H1277     1.0  0.48262  0.92786  0.14625  1.0000
  H   H1278     1.0  0.99390  0.58432  0.11982  1.0000
  H   H1279     1.0  0.27743  0.48946  0.09967  1.0000
  C   C1581     1.0  0.20206  0.48999  0.13285  1.0000
  H   H1280     1.0  0.19363  0.49145  0.99941  1.0000
  H   H1281     1.0  0.07488  0.52341  0.18101  1.0000
  C   C1582     1.0  0.16951  0.50071  0.18038  1.0000
  H   H1282     1.0  0.19359  0.48741  0.09533  1.0000
  C   C1583     1.0  0.13590  0.48763  0.13097  1.0000
  C   C1584     1.0  0.03041  0.56373  0.18235  1.0000
  C   C1585     1.0  0.30679  0.48979  0.06987  1.0000
  C   C1586     1.0  0.16397  0.48822  0.02602  1.0000
  H   H1283     1.0  0.99216  0.64778  0.17214  1.0000
  H   H1284     1.0  0.31355  0.48698  0.04306  1.0000
  C   C1587     1.0  0.46097  0.60881  0.98406  1.0000
  H   H1285     1.0  0.48026  0.82005  0.34566  1.0000
  C   C1588     1.0  0.43679  0.89547  0.35611  1.0000
  H   H1286     1.0  0.20355  0.98058  0.35436  1.0000
  C   C1589     1.0  0.48636  0.89069  0.20870  1.0000
  S   S220      1.0  0.22730  0.88261  0.34194  1.0000
  S   S221      1.0  0.14741  0.73822  0.36326  1.0000
  C   C1590     1.0  0.48398  0.92644  0.29847  1.0000
  C   C1591     1.0  0.48276  0.86758  0.19098  1.0000
  Fe  Fe108     1.0  0.24841  0.87410  0.35705  1.0000
  S   S222      1.0  0.27549  0.87762  0.34376  1.0000
  H   H1287     1.0  0.27730  0.85151  0.37596  1.0000
  C   C1592     1.0  0.00862  0.59478  0.25882  1.0000
  S   S223      1.0  0.10510  0.54281  0.28323  1.0000
  C   C1593     1.0  0.03717  0.49934  0.19436  1.0000
  S   S224      1.0  0.05558  0.56492  0.28707  1.0000
  H   H1288     1.0  0.16272  0.81761  0.34542  1.0000
  H   H1289     1.0  0.24029  0.92878  0.26210  1.0000
  H   H1290     1.0  0.13656  0.50457  0.21562  1.0000
  H   H1291     1.0  0.19199  0.91597  0.24606  1.0000
  H   H1292     1.0  0.35574  0.98028  0.33311  1.0000
  C   C1594     1.0  0.07063  0.52817  0.32159  1.0000
  Fe  Fe109     1.0  0.11934  0.62428  0.34892  1.0000
  S   S225      1.0  0.10411  0.65182  0.34831  1.0000
  S   S226      1.0  0.10853  0.60720  0.33912  1.0000
  C   C1595     1.0  0.06441  0.51669  0.18474  1.0000
  H   H1293     1.0  0.00968  0.62070  0.19323  1.0000
  H   H1294     1.0  0.06740  0.50199  0.32686  1.0000
  S   S227      1.0  0.00886  0.63152  0.34819  1.0000
  C   C1596     1.0  0.01416  0.62068  0.23712  1.0000
  Fe  Fe110     1.0  0.12910  0.65836  0.34716  1.0000
  S   S228      1.0  0.13655  0.68287  0.32954  1.0000
  S   S229      1.0  0.11605  0.61687  0.37796  1.0000
  S   S230      1.0  0.14485  0.63149  0.34465  1.0000
  H   H1295     1.0  0.34419  0.98309  0.28198  1.0000
  C   C1597     1.0  0.43935  0.94467  0.24836  1.0000
  H   H1296     1.0  0.17406  0.90291  0.34822  1.0000
  Fe  Fe111     1.0  0.00224  0.78832  0.33828  1.0000
  S   S231      1.0  0.02823  0.78577  0.31983  1.0000
  H   H1297     1.0  0.04698  0.52757  0.36946  1.0000
  Fe  Fe112     1.0  0.12936  0.79986  0.37042  1.0000
  S   S232      1.0  0.99139  0.59838  0.33658  1.0000
  C   C1598     1.0  0.47868  0.90885  0.37932  1.0000
  Fe  Fe113     1.0  0.10518  0.79586  0.34961  1.0000
  S   S233      1.0  0.10109  0.77008  0.36685  1.0000
  S   S234      1.0  0.09083  0.81098  0.32819  1.0000
  C   C1599     1.0  0.03312  0.59536  0.31385  1.0000
  H   H1298     1.0  0.00269  0.59154  0.19406  1.0000
  Fe  Fe114     1.0  0.12967  0.76436  0.36520  1.0000
  C   C1600     1.0  0.45747  0.97699  0.35065  1.0000
  S   S235      1.0  0.10083  0.80868  0.37148  1.0000
  S   S236      1.0  0.13430  0.78940  0.34647  1.0000
  C   C1601     1.0  0.04383  0.79413  0.32400  1.0000
  C   C1602     1.0  0.05163  0.78594  0.33832  1.0000
  C   C1603     1.0  0.06591  0.79119  0.33991  1.0000
  C   C1604     1.0  0.07218  0.80485  0.32745  1.0000
  C   C1605     1.0  0.06398  0.81335  0.31349  1.0000
  C   C1606     1.0  0.05006  0.80783  0.31162  1.0000
  H   H1299     1.0  0.04712  0.77511  0.34775  1.0000
  H   H1300     1.0  0.07238  0.78442  0.35045  1.0000
  H   H1301     1.0  0.06880  0.82383  0.30373  1.0000
  H   H1302     1.0  0.04428  0.81404  0.30040  1.0000
  H   H1303     1.0  0.07302  0.68555  0.28732  1.0000
  H   H1304     1.0  0.48325  0.80947  0.31948  1.0000
  C   C1607     1.0  0.44115  0.91640  0.21666  1.0000
  Fe  Fe115     1.0  0.00629  0.62195  0.37682  1.0000
  C   C1608     1.0  0.08085  0.84895  0.37752  1.0000
  C   C1609     1.0  0.05932  0.73725  0.32742  1.0000
  H   H1305     1.0  0.99949  0.71567  0.32892  1.0000
  C   C1610     1.0  0.14552  0.49906  0.20511  1.0000
  C   C1611     1.0  0.99150  0.71412  0.34185  1.0000
  H   H1306     1.0  0.11455  0.78863  0.30274  1.0000
  C   C1612     1.0  0.13708  0.69957  0.33891  1.0000
  C   C1613     1.0  0.14491  0.71316  0.32844  1.0000
  C   C1614     1.0  0.14709  0.72573  0.33576  1.0000
  C   C1615     1.0  0.14112  0.72502  0.35358  1.0000
  H   H1307     1.0  0.09424  0.49708  0.22086  1.0000
  C   C1616     1.0  0.13055  0.69922  0.35663  1.0000
  H   H1308     1.0  0.14997  0.71356  0.31474  1.0000
  H   H1309     1.0  0.15400  0.73561  0.32773  1.0000
  H   H1310     1.0  0.17506  0.98399  0.27582  1.0000
  P   P54       1.0  0.45046  0.96398  0.18895  1.0000
  C   C1617     1.0  0.43459  0.86804  0.23241  1.0000
  C   C1618     1.0  0.05906  0.60283  0.19001  1.0000
  H   H1311     1.0  0.00363  0.49201  0.31780  1.0000
  H   H1312     1.0  0.07669  0.49540  0.20278  1.0000
  C   C1619     1.0  0.48855  0.82516  0.33366  1.0000
  H   H1313     1.0  0.32786  0.87862  0.36043  1.0000
  C   C1620     1.0  0.23126  0.92445  0.24184  1.0000
  H   H1314     1.0  0.00926  0.55129  0.18676  1.0000
  H   H1315     1.0  0.00474  0.52154  0.31851  1.0000
  H   H1316     1.0  0.04836  0.62451  0.32439  1.0000
  H   H1317     1.0  0.05225  0.50171  0.35758  1.0000
  C   C1621     1.0  0.07136  0.63516  0.27699  1.0000
  Fe  Fe116     1.0  0.11209  0.52923  0.26118  1.0000
  C   C1622     1.0  0.47306  0.96701  0.20736  1.0000
  C   C1623     1.0  0.44897  0.84135  0.30797  1.0000
  C   C1624     1.0  0.12911  0.58274  0.29151  1.0000
  C   C1625     1.0  0.11209  0.58331  0.30090  1.0000
  C   C1626     1.0  0.10609  0.59077  0.31551  1.0000
  C   C1627     1.0  0.11697  0.59784  0.32078  1.0000
  C   C1628     1.0  0.13407  0.59704  0.31159  1.0000
  C   C1629     1.0  0.14014  0.58937  0.29708  1.0000
  H   H1318     1.0  0.10352  0.57815  0.29680  1.0000
  H   H1319     1.0  0.09288  0.59123  0.32267  1.0000
  H   H1320     1.0  0.14259  0.60230  0.31564  1.0000
  H   H1321     1.0  0.15337  0.58883  0.28995  1.0000
  C   C1630     1.0  0.48748  0.89556  0.19068  1.0000
  C   C1631     1.0  0.48352  0.87425  0.21782  1.0000
  H   H1322     1.0  0.43432  0.86714  0.27412  1.0000
  C   C1632     1.0  0.03748  0.53334  0.23823  1.0000
  H   H1323     1.0  0.07731  0.52825  0.30825  1.0000
  C   C1633     1.0  0.42925  0.86859  0.26278  1.0000
  H   H1324     1.0  0.10358  0.51253  0.23732  1.0000
  S   S237      1.0  0.47801  0.88083  0.29897  1.0000
  S   S238      1.0  0.23700  0.98066  0.33096  1.0000
  C   C1634     1.0  0.04226  0.52175  0.28539  1.0000
  C   C1635     1.0  0.05194  0.53308  0.28595  1.0000
  C   C1636     1.0  0.04372  0.55016  0.28745  1.0000
  H   H1325     1.0  0.34058  0.95940  0.36151  1.0000
  C   C1637     1.0  0.24302  0.90405  0.30186  1.0000
  H   H1326     1.0  0.04857  0.50854  0.28434  1.0000
  H   H1327     1.0  0.06576  0.52863  0.28497  1.0000
  C   C1638     1.0  0.23363  0.92129  0.29775  1.0000
  C   C1639     1.0  0.19170  0.83441  0.35501  1.0000
  C   C1640     1.0  0.18395  0.83459  0.37237  1.0000
  C   C1641     1.0  0.00090  0.52826  0.32901  1.0000
  C   C1642     1.0  0.16093  0.82242  0.37036  1.0000
  C   C1643     1.0  0.16865  0.82226  0.35297  1.0000
  H   H1328     1.0  0.01963  0.67615  0.36048  1.0000
  H   H1329     1.0  0.05272  0.58510  0.21411  1.0000
  C   C1644     1.0  0.43876  0.89571  0.37244  1.0000
  C   C1645     1.0  0.04747  0.59542  0.20413  1.0000
  C   C1646     1.0  0.00817  0.54271  0.34705  1.0000
  C   C1647     1.0  0.20717  0.93778  0.35584  1.0000
  C   C1648     1.0  0.22434  0.93386  0.34687  1.0000
  C   C1649     1.0  0.23369  0.94699  0.33988  1.0000
  C   C1650     1.0  0.22616  0.96389  0.34236  1.0000
  C   C1651     1.0  0.20940  0.96753  0.35241  1.0000
  C   C1652     1.0  0.19980  0.95453  0.35892  1.0000
  S   S239      1.0  0.24094  0.84889  0.37192  1.0000
  H   H1330     1.0  0.24670  0.94411  0.33227  1.0000
  C   C1653     1.0  0.41942  0.97725  0.31816  1.0000
  H   H1331     1.0  0.18655  0.95755  0.36597  1.0000
  C   C1654     1.0  0.29086  0.86998  0.35706  1.0000
  C   C1655     1.0  0.30540  0.87728  0.35254  1.0000
  C   C1656     1.0  0.11430  0.76384  0.32073  1.0000
  H   H1332     1.0  0.30737  0.88706  0.34064  1.0000
  H   H1333     1.0  0.04285  0.51948  0.24156  1.0000
  Fe  Fe117     1.0  0.11913  0.56262  0.26449  1.0000
  C   C1657     1.0  0.17124  0.66004  0.36257  1.0000
  H   H1334     1.0  0.12537  0.76384  0.32547  1.0000
  C   C1658     1.0  0.41753  0.97399  0.30305  1.0000
  H   H1335     1.0  0.30949  0.98277  0.31706  1.0000
  H   H1336     1.0  0.43850  0.93473  0.24257  1.0000
  H   H1337     1.0  0.11007  0.53724  0.21390  1.0000
  H   H1338     1.0  0.00684  0.56210  0.21789  1.0000
  C   C1659     1.0  0.05277  0.62940  0.26181  1.0000
  C   C1660     1.0  0.06504  0.51335  0.33213  1.0000
  C   C1661     1.0  0.00552  0.87478  0.36606  1.0000
  H   H1339     1.0  0.47966  0.84995  0.21608  1.0000
  H   H1340     1.0  0.46716  0.93727  0.24400  1.0000
  S   S240      1.0  0.40598  0.96409  0.36586  1.0000
  S   S241      1.0  0.12047  0.49992  0.26676  1.0000
  C   C1662     1.0  0.45759  0.98297  0.36496  1.0000
  H   H1341     1.0  0.24457  0.92547  0.38155  1.0000
  C   C1663     1.0  0.19556  0.88043  0.31679  1.0000
  C   C1664     1.0  0.05973  0.64119  0.26574  1.0000
  H   H1342     1.0  0.34782  0.95229  0.29830  1.0000
  H   H1343     1.0  0.07450  0.74928  0.35863  1.0000
  C   C1665     1.0  0.31422  0.86028  0.37942  1.0000
  C   C1666     1.0  0.24136  0.93495  0.29651  1.0000
  C   C1667     1.0  0.00112  0.50086  0.19198  1.0000
  C   C1668     1.0  0.01181  0.62937  0.25028  1.0000
  C   C1669     1.0  0.20364  0.89316  0.30483  1.0000
  S   S242      1.0  0.36937  0.91906  0.34231  1.0000
  C   C1670     1.0  0.05651  0.51324  0.34939  1.0000
  H   H1344     1.0  0.05604  0.65491  0.25998  1.0000
  H   H1345     1.0  0.39378  0.87859  0.32000  1.0000
  C   C1671     1.0  0.20097  0.90963  0.30833  1.0000
  H   H1346     1.0  0.29245  0.92203  0.37883  1.0000
  C   C1672     1.0  0.02461  0.52782  0.28533  1.0000
  C   C1673     1.0  0.30004  0.85251  0.38364  1.0000
  H   H1347     1.0  0.41889  0.81284  0.30762  1.0000
  C   C1674     1.0  0.38657  0.92519  0.36357  1.0000
  H   H1348     1.0  0.46313  0.92662  0.20113  1.0000
  C   C1675     1.0  0.47802  0.97489  0.21772  1.0000
  C   C1676     1.0  0.10215  0.55996  0.19456  1.0000
  C   C1677     1.0  0.10997  0.69014  0.29831  1.0000
  S   S243      1.0  0.46350  0.84414  0.28783  1.0000
  H   H1349     1.0  0.03577  0.56842  0.32631  1.0000
  S   S244      1.0  0.14129  0.81586  0.38046  1.0000
  C   C1678     1.0  0.13257  0.71190  0.36396  1.0000
  Fe  Fe118     1.0  0.47290  0.86885  0.28008  1.0000
  H   H1350     1.0  0.01707  0.49222  0.26101  1.0000
  C   C1679     1.0  0.39600  0.85487  0.29941  1.0000
  S   S245      1.0  0.21098  0.84176  0.34516  1.0000
  H   H1351     1.0  0.23011  0.92096  0.34442  1.0000
  H   H1352     1.0  0.47577  0.90995  0.33542  1.0000
  H   H1353     1.0  0.00443  0.88871  0.36305  1.0000
  C   C1680     1.0  0.41273  0.90216  0.28173  1.0000
  C   C1681     1.0  0.41776  0.91339  0.28841  1.0000
  C   C1682     1.0  0.37495  0.88571  0.28105  1.0000
  C   C1683     1.0  0.36460  0.87567  0.27916  1.0000
  C   C1684     1.0  0.34741  0.88314  0.27767  1.0000
  C   C1685     1.0  0.34044  0.90067  0.27804  1.0000
  C   C1686     1.0  0.35069  0.91078  0.27981  1.0000
  C   C1687     1.0  0.36789  0.90336  0.28131  1.0000
  H   H1354     1.0  0.41564  0.90347  0.26780  1.0000
  H   H1355     1.0  0.42479  0.92294  0.27981  1.0000
  H   H1356     1.0  0.39472  0.81101  0.33339  1.0000
  H   H1357     1.0  0.36975  0.86199  0.27912  1.0000
  H   H1358     1.0  0.33941  0.87524  0.27650  1.0000
  H   H1359     1.0  0.32704  0.90635  0.27716  1.0000
  H   H1360     1.0  0.34522  0.92431  0.28032  1.0000
  H   H1361     1.0  0.37548  0.91136  0.28299  1.0000
  P   P55       1.0  0.05498  0.56225  0.35378  1.0000
  C   C1688     1.0  0.07451  0.56372  0.35886  1.0000
  C   C1689     1.0  0.07343  0.57283  0.37140  1.0000
  C   C1690     1.0  0.08846  0.57493  0.37462  1.0000
  C   C1691     1.0  0.10467  0.56805  0.36529  1.0000
  C   C1692     1.0  0.10589  0.55893  0.35283  1.0000
  C   C1693     1.0  0.09089  0.55677  0.34960  1.0000
  C   C1694     1.0  0.04813  0.58136  0.33767  1.0000
  C   C1695     1.0  0.03881  0.58049  0.32602  1.0000
  H   H1362     1.0  0.46048  0.85164  0.34494  1.0000
  H   H1363     1.0  0.44151  0.93804  0.36395  1.0000
  C   C1696     1.0  0.04586  0.61219  0.32473  1.0000
  C   C1697     1.0  0.05158  0.59737  0.33695  1.0000
  H   H1364     1.0  0.07179  0.55442  0.31958  1.0000
  H   H1365     1.0  0.40126  0.92958  0.37933  1.0000
  C   C1698     1.0  0.05179  0.49241  0.20189  1.0000
  H   H1366     1.0  0.11623  0.57060  0.36704  1.0000
  H   H1367     1.0  0.11843  0.55429  0.34505  1.0000
  H   H1368     1.0  0.09221  0.55022  0.33943  1.0000
  H   H1369     1.0  0.44325  0.97997  0.26912  1.0000
  C   C1699     1.0  0.38639  0.95963  0.34557  1.0000
  H   H1370     1.0  0.01697  0.62762  0.22372  1.0000
  H   H1371     1.0  0.05847  0.59856  0.34591  1.0000
  C   C1700     1.0  0.20085  0.92031  0.26656  1.0000
  H   H1372     1.0  0.46948  0.95956  0.25778  1.0000
  C   C1701     1.0  0.40556  0.89946  0.31755  1.0000
  H   H1373     1.0  0.08882  0.78895  0.29243  1.0000
  C   C1702     1.0  0.43712  0.91025  0.34266  1.0000
  C   C1703     1.0  0.10720  0.54204  0.20107  1.0000
  C   C1704     1.0  0.08631  0.69963  0.37802  1.0000
  C   C1705     1.0  0.43912  0.85551  0.31527  1.0000
  C   C1706     1.0  0.17532  0.67432  0.34956  1.0000
  H   H1374     1.0  0.19808  0.86755  0.31433  1.0000
  H   H1375     1.0  0.33396  0.96557  0.33130  1.0000
  C   C1707     1.0  0.41674  0.87203  0.23330  1.0000
  C   C1708     1.0  0.11695  0.70442  0.29621  1.0000
  S   S246      1.0  0.19442  0.92232  0.36177  1.0000
  C   C1709     1.0  0.01641  0.54481  0.28703  1.0000
  C   C1710     1.0  0.20250  0.91880  0.24960  1.0000
  H   H1376     1.0  0.35378  0.93538  0.38314  1.0000
  C   C1711     1.0  0.47854  0.96213  0.29579  1.0000
  H   H1377     1.0  0.07886  0.71578  0.23498  1.0000
  C   C1712     1.0  0.44030  0.92601  0.36203  1.0000
  C   C1713     1.0  0.48179  0.86270  0.20897  1.0000
  H   H1378     1.0  0.17732  0.67404  0.33602  1.0000
  H   H1379     1.0  0.00318  0.59701  0.28541  1.0000
  H   H1380     1.0  0.04711  0.73945  0.35394  1.0000
  H   H1381     1.0  0.05171  0.60242  0.26643  1.0000
  H   H1382     1.0  0.18897  0.91874  0.27599  1.0000
  H   H1383     1.0  0.17905  0.87384  0.34185  1.0000
  H   H1384     1.0  0.45463  0.86294  0.24666  1.0000
  C   C1714     1.0  0.99437  0.86807  0.36090  1.0000
  S   S247      1.0  0.45136  0.92830  0.29546  1.0000
  H   H1385     1.0  0.99482  0.57095  0.32042  1.0000
  C   C1715     1.0  0.05275  0.65183  0.33872  1.0000
  C   C1716     1.0  0.06907  0.64091  0.33519  1.0000
  C   C1717     1.0  0.07759  0.64041  0.31808  1.0000
  C   C1718     1.0  0.07018  0.65127  0.30423  1.0000
  P   P56       1.0  0.08089  0.64977  0.28220  1.0000
  C   C1719     1.0  0.10394  0.64104  0.27997  1.0000
  C   C1720     1.0  0.11284  0.63028  0.26824  1.0000
  C   C1721     1.0  0.13080  0.62428  0.26587  1.0000
  C   C1722     1.0  0.14005  0.62911  0.27504  1.0000
  C   C1723     1.0  0.13131  0.63981  0.28671  1.0000
  C   C1724     1.0  0.11335  0.64582  0.28911  1.0000
  C   C1725     1.0  0.07519  0.70224  0.26190  1.0000
  C   C1726     1.0  0.06829  0.60568  0.28093  1.0000
  C   C1727     1.0  0.07536  0.61738  0.28476  1.0000
  H   H1386     1.0  0.04608  0.65183  0.35209  1.0000
  H   H1387     1.0  0.07509  0.63246  0.34568  1.0000
  H   H1388     1.0  0.08983  0.63125  0.31574  1.0000
  S   S248      1.0  0.45869  0.89391  0.26557  1.0000
  H   H1389     1.0  0.13750  0.61542  0.25732  1.0000
  H   H1390     1.0  0.15391  0.62406  0.27350  1.0000
  H   H1391     1.0  0.13843  0.64315  0.29418  1.0000
  H   H1392     1.0  0.10680  0.65392  0.29832  1.0000
  H   H1393     1.0  0.07149  0.59196  0.28702  1.0000
  H   H1394     1.0  0.08399  0.61254  0.29377  1.0000
  C   C1728     1.0  0.06534  0.50100  0.19708  1.0000
  H   H1395     1.0  0.18219  0.77944  0.34260  1.0000
  S   S249      1.0  0.48837  0.90529  0.21972  1.0000
  C   C1729     1.0  0.44029  0.91110  0.37565  1.0000
  H   H1396     1.0  0.21232  0.88993  0.29309  1.0000
  C   C1730     1.0  0.02040  0.56788  0.37153  1.0000
  C   C1731     1.0  0.21771  0.92083  0.23725  1.0000
  C   C1732     1.0  0.19091  0.95849  0.28352  1.0000
  H   H1397     1.0  0.05366  0.83571  0.35350  1.0000
  C   C1733     1.0  0.01973  0.84541  0.37879  1.0000
  C   C1734     1.0  0.38170  0.83781  0.32602  1.0000
  C   C1735     1.0  0.41381  0.93737  0.22021  1.0000
  C   C1736     1.0  0.08586  0.70097  0.31995  1.0000
  H   H1398     1.0  0.43628  0.90979  0.32989  1.0000
  C   C1737     1.0  0.07891  0.70327  0.24402  1.0000
  C   C1738     1.0  0.06752  0.54298  0.32812  1.0000
  C   C1739     1.0  0.03650  0.61124  0.31330  1.0000
  C   C1740     1.0  0.38219  0.85360  0.31389  1.0000
  C   C1741     1.0  0.19000  0.91309  0.32397  1.0000
  C   C1742     1.0  0.18201  0.90030  0.33594  1.0000
  C   C1743     1.0  0.20047  0.94732  0.29578  1.0000
  C   C1744     1.0  0.40511  0.87426  0.24895  1.0000
  S   S250      1.0  0.09578  0.57926  0.25414  1.0000
  C   C1745     1.0  0.18481  0.88396  0.33237  1.0000
  C   C1746     1.0  0.08334  0.67192  0.24942  1.0000
  H   H1399     1.0  0.01705  0.57475  0.35911  1.0000
  H   H1400     1.0  0.43408  0.80863  0.33932  1.0000
  H   H1401     1.0  0.08706  0.66023  0.24440  1.0000
  H   H1402     1.0  0.02652  0.53179  0.32640  1.0000
  H   H1403     1.0  0.48275  0.87039  0.23169  1.0000
  H   H1404     1.0  0.08629  0.68885  0.22391  1.0000
  H   H1405     1.0  0.15865  0.52016  0.19578  1.0000
  S   S251      1.0  0.13681  0.57435  0.27251  1.0000
  H   H1406     1.0  0.04417  0.63395  0.25280  1.0000
  S   S252      1.0  0.12594  0.65337  0.37598  1.0000
  C   C1747     1.0  0.35698  0.97544  0.28348  1.0000
  H   H1407     1.0  0.42024  0.84054  0.28647  1.0000
  H   H1408     1.0  0.01745  0.74421  0.34991  1.0000
  H   H1409     1.0  0.47133  0.88000  0.34514  1.0000
  H   H1410     1.0  0.01288  0.64280  0.24698  1.0000
  H   H1411     1.0  0.16334  0.76568  0.36881  1.0000
  S   S253      1.0  0.23294  0.88901  0.37733  1.0000
  C   C1748     1.0  0.46471  0.95488  0.29680  1.0000
  C   C1749     1.0  0.39487  0.82311  0.32371  1.0000
  C   C1750     1.0  0.33251  0.95172  0.37166  1.0000
  C   C1751     1.0  0.44312  0.84887  0.36985  1.0000
  C   C1752     1.0  0.49037  0.81894  0.31891  1.0000
  H   H1412     1.0  0.09064  0.69623  0.35223  1.0000
  H   H1413     1.0  0.41925  0.86361  0.33666  1.0000
  H   H1414     1.0  0.40217  0.94844  0.29124  1.0000
  C   C1753     1.0  0.01717  0.55764  0.22495  1.0000
  H   H1415     1.0  0.11691  0.68027  0.29099  1.0000
  C   C1754     1.0  0.18406  0.82819  0.34532  1.0000
  H   H1416     1.0  0.03194  0.62278  0.30398  1.0000
  H   H1417     1.0  0.37192  0.86490  0.31602  1.0000
  H   H1418     1.0  0.40005  0.94032  0.22569  1.0000
  C   C1755     1.0  0.31701  0.87251  0.36374  1.0000
  S   S254      1.0  0.20061  0.87183  0.37907  1.0000
  H   H1419     1.0  0.26317  0.94193  0.30038  1.0000
  H   H1420     1.0  0.00628  0.62735  0.27797  1.0000
  C   C1756     1.0  0.41132  0.87252  0.26384  1.0000
  H   H1421     1.0  0.41712  0.90982  0.23167  1.0000
  C   C1757     1.0  0.26645  0.91411  0.30558  1.0000
  H   H1422     1.0  0.06690  0.73678  0.30011  1.0000
  H   H1423     1.0  0.00692  0.58152  0.26237  1.0000
  C   C1758     1.0  0.42556  0.96837  0.26320  1.0000
  C   C1759     1.0  0.44082  0.86628  0.24718  1.0000
  H   H1424     1.0  0.06094  0.57893  0.37819  1.0000
  C   C1760     1.0  0.25927  0.90050  0.30589  1.0000
  C   C1761     1.0  0.43546  0.82172  0.33266  1.0000
  C   C1762     1.0  0.39479  0.93522  0.36853  1.0000
  H   H1425     1.0  0.18786  0.92545  0.32730  1.0000
  C   C1763     1.0  0.05352  0.66187  0.30779  1.0000
  C   C1764     1.0  0.40922  0.84001  0.29721  1.0000
  C   C1765     1.0  0.42200  0.95071  0.20974  1.0000
  C   C1766     1.0  0.08520  0.76421  0.30912  1.0000
  H   H1426     1.0  0.44053  0.86857  0.30854  1.0000
  Fe  Fe119     1.0  0.14008  0.62627  0.37381  1.0000
  H   H1427     1.0  0.48630  0.91265  0.29941  1.0000
  C   C1767     1.0  0.16868  0.82854  0.38003  1.0000
  H   H1428     1.0  0.42311  0.96114  0.30037  1.0000
  H   H1429     1.0  0.01042  0.82498  0.37463  1.0000
  Fe  Fe120     1.0  0.08244  0.55830  0.27136  1.0000
  C   C1768     1.0  0.02537  0.74345  0.32285  1.0000
  H   H1430     1.0  0.18984  0.83919  0.37997  1.0000
  Fe  Fe121     1.0  0.10220  0.64471  0.37699  1.0000
  H   H1431     1.0  0.10600  0.62632  0.26099  1.0000
  H   H1432     1.0  0.43187  0.85105  0.36446  1.0000
  C   C1769     1.0  0.03642  0.56271  0.23971  1.0000
  C   C1770     1.0  0.99141  0.59427  0.20415  1.0000
  H   H1433     1.0  0.23769  0.89324  0.30245  1.0000
  H   H1434     1.0  0.08294  0.62668  0.37453  1.0000
  S   S255      1.0  0.36736  0.86799  0.35600  1.0000
  C   C1771     1.0  0.42516  0.83580  0.33973  1.0000
  H   H1435     1.0  0.07385  0.69944  0.32914  1.0000
  C   C1772     1.0  0.35899  0.95807  0.29268  1.0000
  H   H1436     1.0  0.23481  0.94841  0.29273  1.0000
  H   H1437     1.0  0.02704  0.86887  0.37839  1.0000
  C   C1773     1.0  0.07919  0.67082  0.26741  1.0000
  H   H1438     1.0  0.03648  0.55413  0.19228  1.0000
  C   C1774     1.0  0.10831  0.77771  0.30781  1.0000
  C   C1775     1.0  0.44706  0.82451  0.31667  1.0000
  C   C1776     1.0  0.02308  0.56930  0.23039  1.0000
  C   C1777     1.0  0.05886  0.54306  0.34539  1.0000
  H   H1439     1.0  0.45218  0.96324  0.29601  1.0000
  C   C1778     1.0  0.03777  0.56110  0.37295  1.0000
  C   C1779     1.0  0.99325  0.59606  0.22004  1.0000
  S   S256      1.0  0.12838  0.54761  0.24322  1.0000
  C   C1780     1.0  0.18233  0.97541  0.28536  1.0000
  C   C1781     1.0  0.09380  0.77788  0.30200  1.0000
  C   C1782     1.0  0.31471  0.95522  0.37253  1.0000
  H   H1440     1.0  0.38602  0.91228  0.37116  1.0000
  H   H1441     1.0  0.41197  0.87326  0.22183  1.0000
  C   C1783     1.0  0.40048  0.88818  0.31096  1.0000
  H   H1442     1.0  0.02594  0.59449  0.30497  1.0000
  H   H1443     1.0  0.37129  0.83704  0.33744  1.0000
  C   C1784     1.0  0.45558  0.94601  0.24926  1.0000
  H   H1444     1.0  0.40280  0.89847  0.33142  1.0000
  C   C1785     1.0  0.48670  0.89908  0.33726  1.0000
  Fe  Fe122     1.0  0.39041  0.85423  0.36811  1.0000
  C   C1786     1.0  0.10587  0.75007  0.32773  1.0000
  C   C1787     1.0  0.44195  0.97000  0.26358  1.0000
  C   C1788     1.0  0.04490  0.66225  0.32500  1.0000
  C   C1789     1.0  0.40850  0.82417  0.30922  1.0000
  C   C1790     1.0  0.40409  0.88939  0.29298  1.0000
  C   C1791     1.0  0.38788  0.97317  0.27896  1.0000
  H   H1445     1.0  0.37353  0.95430  0.32854  1.0000
  H   H1446     1.0  0.27874  0.91121  0.30942  1.0000
  H   H1447     1.0  0.06464  0.77162  0.38027  1.0000
  C   C1792     1.0  0.45688  0.95863  0.25693  1.0000
  H   H1448     1.0  0.41737  0.92128  0.31140  1.0000
  H   H1449     1.0  0.01767  0.54730  0.35037  1.0000
  C   C1793     1.0  0.01319  0.53392  0.33356  1.0000
  C   C1794     1.0  0.46753  0.93708  0.29761  1.0000
  H   H1450     1.0  0.99646  0.72205  0.29361  1.0000
  P   P57       1.0  0.21230  0.92566  0.29323  1.0000
  C   C1795     1.0  0.37535  0.94831  0.29523  1.0000
  S   S257      1.0  0.08807  0.54320  0.25095  1.0000
  C   C1796     1.0  0.17635  0.68915  0.35403  1.0000
  H   H1451     1.0  0.03200  0.67034  0.32774  1.0000
  H   H1452     1.0  0.12930  0.70545  0.28744  1.0000
  C   C1797     1.0  0.07785  0.73538  0.36394  1.0000
  C   C1798     1.0  0.07791  0.72930  0.38167  1.0000
  C   C1799     1.0  0.38970  0.95588  0.28852  1.0000
  H   H1453     1.0  0.47651  0.97601  0.29435  1.0000
  H   H1454     1.0  0.17038  0.64852  0.35916  1.0000
  H   H1455     1.0  0.07371  0.76489  0.30477  1.0000
  H   H1456     1.0  0.45413  0.97538  0.37799  1.0000
  C   C1800     1.0  0.41393  0.91222  0.30628  1.0000
  C   C1801     1.0  0.02342  0.61534  0.19229  1.0000
  Fe  Fe123     1.0  0.10363  0.56264  0.23455  1.0000
  H   H1457     1.0  0.03697  0.74269  0.29614  1.0000
  C   C1802     1.0  0.39455  0.95251  0.35972  1.0000
  P   P58       1.0  0.40636  0.98297  0.27197  1.0000
  C   C1803     1.0  0.10543  0.49857  0.24110  1.0000
  C   C1804     1.0  0.04520  0.73970  0.34135  1.0000
  C   C1805     1.0  0.19265  0.97026  0.31170  1.0000
  P   P59       1.0  0.39672  0.87559  0.28421  1.0000
  C   C1806     1.0  0.20111  0.95333  0.30994  1.0000
  H   H1458     1.0  0.04709  0.66965  0.29733  1.0000
  H   H1459     1.0  0.11455  0.72752  0.30459  1.0000
  C   C1807     1.0  0.07558  0.84618  0.35090  1.0000
  C   C1808     1.0  0.08541  0.85102  0.35946  1.0000
  C   C1809     1.0  0.03931  0.74146  0.30883  1.0000
  H   H1460     1.0  0.41190  0.95463  0.25432  1.0000
  C   C1810     1.0  0.10018  0.48976  0.23175  1.0000
  C   C1811     1.0  0.06105  0.83953  0.36033  1.0000
  H   H1461     1.0  0.45390  0.96478  0.35251  1.0000
  P   P60       1.0  0.08135  0.73168  0.33036  1.0000
  C   C1812     1.0  0.05622  0.73828  0.31111  1.0000
  C   C1813     1.0  0.42703  0.85273  0.33109  1.0000
  C   C1814     1.0  0.10857  0.71688  0.30613  1.0000
  H   H1462     1.0  0.01227  0.74629  0.32096  1.0000
  C   C1815     1.0  0.47408  0.84594  0.36587  1.0000
  C   C1816     1.0  0.16790  0.66069  0.38003  1.0000
  C   C1817     1.0  0.09295  0.71524  0.31811  1.0000
  C   C1818     1.0  0.25762  0.93134  0.30062  1.0000
  H   H1463     1.0  0.19012  0.95427  0.27247  1.0000
  C   C1819     1.0  0.04371  0.54484  0.24337  1.0000
  H   H1464     1.0  0.07287  0.59815  0.18939  1.0000
  S   S258      1.0  0.01268  0.51422  0.28330  1.0000
  C   C1820     1.0  0.00892  0.83881  0.37292  1.0000
  H   H1465     1.0  0.41450  0.96397  0.20732  1.0000
  H   H1466     1.0  0.02654  0.49962  0.22934  1.0000
  C   C1821     1.0  0.02587  0.55577  0.28864  1.0000
  H   H1467     1.0  0.42648  0.96711  0.32698  1.0000
  H   H1468     1.0  0.07951  0.84708  0.33700  1.0000
  H   H1469     1.0  0.09695  0.85569  0.35219  1.0000
  H   H1470     1.0  0.47606  0.90174  0.37142  1.0000
  C   C1822     1.0  0.09128  0.75014  0.32196  1.0000
  S   S259      1.0  0.99811  0.77434  0.36629  1.0000
  Fe  Fe124     1.0  0.35250  0.86480  0.38365  1.0000
  H   H1471     1.0  0.12427  0.68902  0.36476  1.0000
  H   H1472     1.0  0.24305  0.92602  0.23226  1.0000
  H   H1473     1.0  0.38628  0.97294  0.33861  1.0000
  C   C1823     1.0  0.37907  0.94916  0.33996  1.0000
  H   H1474     1.0  0.04132  0.57130  0.24410  1.0000
  H   H1475     1.0  0.11078  0.73932  0.33761  1.0000
  P   P61       1.0  0.01462  0.59254  0.22420  1.0000
  Fe  Fe125     1.0  0.21850  0.85842  0.35842  1.0000
  C   C1824     1.0  0.15801  0.50781  0.19394  1.0000
  Fe  Fe126     1.0  0.21122  0.89526  0.36371  1.0000
  H   H1476     1.0  0.08921  0.67709  0.31228  1.0000
  H   H1477     1.0  0.01947  0.56876  0.29031  1.0000
  C   C1825     1.0  0.06965  0.62852  0.38126  1.0000
  C   C1826     1.0  0.02417  0.53976  0.22905  1.0000
  H   H1478     1.0  0.39137  0.87728  0.24933  1.0000
  H   H1479     1.0  0.37683  0.93506  0.30298  1.0000
  C   C1827     1.0  0.37899  0.93197  0.34905  1.0000
  H   H1480     1.0  0.44871  0.90315  0.21944  1.0000
  H   H1481     1.0  0.45454  0.81357  0.31102  1.0000
  C   C1828     1.0  0.17289  0.68991  0.37149  1.0000
  H   H1482     1.0  0.05408  0.53985  0.25039  1.0000
  C   C1829     1.0  0.08224  0.72360  0.35308  1.0000
  C   C1830     1.0  0.42435  0.95586  0.25520  1.0000
  H   H1483     1.0  0.30890  0.96577  0.36304  1.0000
  C   C1831     1.0  0.04280  0.70028  0.36842  1.0000
  C   C1832     1.0  0.03723  0.69170  0.35922  1.0000
  C   C1833     1.0  0.02403  0.68281  0.36754  1.0000
  C   C1834     1.0  0.28841  0.85729  0.37245  1.0000
  S   S260      1.0  0.10058  0.57493  0.20691  1.0000
  H   H1484     1.0  0.43907  0.93695  0.33505  1.0000
  H   H1485     1.0  0.21058  0.78883  0.37441  1.0000
  C   C1835     1.0  0.05353  0.52798  0.35606  1.0000
  C   C1836     1.0  0.43884  0.92553  0.34560  1.0000
  H   H1486     1.0  0.17927  0.70033  0.34392  1.0000
  H   H1487     1.0  0.43526  0.88376  0.35370  1.0000
  C   C1837     1.0  0.22966  0.92596  0.25880  1.0000
  Fe  Fe127     1.0  0.46641  0.90608  0.28278  1.0000
  C   C1838     1.0  0.44932  0.92971  0.20622  1.0000
  H   H1488     1.0  0.21900  0.91959  0.22413  1.0000
  Fe  Fe128     1.0  0.37195  0.89225  0.35999  1.0000
  C   C1839     1.0  0.02831  0.74244  0.33912  1.0000
  C   C1840     1.0  0.07544  0.68608  0.27357  1.0000
  H   H1489     1.0  0.26610  0.88713  0.30982  1.0000
  H   H1490     1.0  0.44361  0.86617  0.22032  1.0000
  C   C1841     1.0  0.33311  0.97930  0.32540  1.0000
  H   H1491     1.0  0.05313  0.70697  0.36202  1.0000
  H   H1492     1.0  0.04311  0.69194  0.34566  1.0000
  C   C1842     1.0  0.46178  0.98693  0.33387  1.0000
  C   C1843     1.0  0.08304  0.68811  0.23778  1.0000
  H   H1493     1.0  0.20834  0.94494  0.31956  1.0000
  C   C1844     1.0  0.42338  0.92019  0.22360  1.0000
  H   H1494     1.0  0.17352  0.70169  0.37448  1.0000
  C   C1845     1.0  0.10893  0.53033  0.19080  1.0000
  C   C1846     1.0  0.45941  0.84908  0.35887  1.0000
  H   H1495     1.0  0.43923  0.88378  0.38228  1.0000
  C   C1847     1.0  0.44483  0.98674  0.21050  1.0000
  S   S261      1.0  0.39656  0.87856  0.36941  1.0000
  C   C1848     1.0  0.11342  0.48923  0.25503  1.0000
  C   C1849     1.0  0.05706  0.61164  0.26940  1.0000
  H   H1496     1.0  0.01910  0.53096  0.22516  1.0000
  C   C1850     1.0  0.21448  0.92379  0.27130  1.0000
  C   C1851     1.0  0.09444  0.68838  0.31023  1.0000
  C   C1852     1.0  0.17358  0.77076  0.37017  1.0000
  C   C1853     1.0  0.18433  0.77836  0.35536  1.0000
  C   C1854     1.0  0.19763  0.78483  0.35703  1.0000
  C   C1855     1.0  0.20023  0.78366  0.37351  1.0000
  C   C1856     1.0  0.43978  0.94688  0.20240  1.0000
  C   C1857     1.0  0.00804  0.62074  0.26770  1.0000
  H   H1497     1.0  0.00275  0.54939  0.28727  1.0000
  H   H1498     1.0  0.07236  0.71395  0.26673  1.0000
  C   C1858     1.0  0.99615  0.85009  0.36426  1.0000
  C   C1859     1.0  0.02952  0.60148  0.20532  1.0000
  H   H1499     1.0  0.20576  0.79106  0.34555  1.0000
  H   H1500     1.0  0.48213  0.95620  0.20243  1.0000
  H   H1501     1.0  0.11301  0.51649  0.19578  1.0000
  H   H1502     1.0  0.19003  0.82801  0.33187  1.0000
  H   H1503     1.0  0.08756  0.58269  0.38367  1.0000
  C   C1860     1.0  0.08676  0.70567  0.36023  1.0000
  S   S262      1.0  0.41028  0.83158  0.35947  1.0000
  C   C1861     1.0  0.00637  0.60352  0.27192  1.0000
  C   C1862     1.0  0.01267  0.60327  0.24129  1.0000
  C   C1863     1.0  0.05945  0.61825  0.37979  1.0000
  H   H1504     1.0  0.19355  0.97478  0.32255  1.0000
  C   C1864     1.0  0.01824  0.86350  0.37483  1.0000
  C   C1865     1.0  0.45664  0.97335  0.20314  1.0000
  H   H1505     1.0  0.06422  0.49408  0.26110  1.0000
  H   H1506     1.0  0.06509  0.60857  0.37208  1.0000
  S   S263      1.0  0.99379  0.68106  0.33917  1.0000
  H   H1507     1.0  0.27706  0.90700  0.36804  1.0000
  C   C1866     1.0  0.05621  0.83772  0.37842  1.0000
  P   P62       1.0  0.01962  0.48808  0.20119  1.0000
  C   C1867     1.0  0.01823  0.49050  0.23503  1.0000
  C   C1868     1.0  0.27868  0.90277  0.38140  1.0000
  C   C1869     1.0  0.33998  0.93817  0.38388  1.0000
  H   H1508     1.0  0.14018  0.86563  0.38113  1.0000
  Fe  Fe129     1.0  0.48497  0.89518  0.24866  1.0000
  H   H1509     1.0  0.06385  0.80264  0.37676  1.0000
  C   C1870     1.0  0.18327  0.98132  0.29940  1.0000
  H   H1510     1.0  0.46168  0.98232  0.32276  1.0000
  H   H1511     1.0  0.12811  0.71111  0.37777  1.0000
  C   C1871     1.0  0.37135  0.98304  0.27678  1.0000
  C   C1872     1.0  0.48423  0.88206  0.34282  1.0000
  C   C1873     1.0  0.05241  0.79765  0.38367  1.0000
  H   H1512     1.0  0.08947  0.68575  0.38335  1.0000
  H   H1513     1.0  0.49091  0.97048  0.22046  1.0000
  C   C1874     1.0  0.05089  0.58461  0.42069  1.0000
  C   C1875     1.0  0.15914  0.55685  0.52340  1.0000
  C   C1876     1.0  0.39858  0.97538  0.48564  1.0000
  Fe  Fe130     1.0  0.19421  0.89838  0.52282  1.0000
  S   S264      1.0  0.19860  0.87003  0.53692  1.0000
  S   S265      1.0  0.17389  0.91999  0.53335  1.0000
  Fe  Fe131     1.0  0.22076  0.89086  0.49108  1.0000
  S   S266      1.0  0.22789  0.86243  0.50252  1.0000
  S   S267      1.0  0.23187  0.90128  0.46321  1.0000
  Fe  Fe132     1.0  0.19918  0.86451  0.51135  1.0000
  S   S268      1.0  0.19100  0.84469  0.50266  1.0000
  Fe  Fe133     1.0  0.22695  0.87033  0.52671  1.0000
  S   S269      1.0  0.24692  0.85439  0.54281  1.0000
  S   S270      1.0  0.19227  0.89272  0.49834  1.0000
  S   S271      1.0  0.22228  0.89892  0.51447  1.0000
  H   H1514     1.0  0.02180  0.83434  0.46121  1.0000
  C   C1877     1.0  0.16902  0.72573  0.41943  1.0000
  C   C1878     1.0  0.03842  0.77318  0.39457  1.0000
  C   C1879     1.0  0.10462  0.67966  0.42978  1.0000
  H   H1515     1.0  0.04005  0.52223  0.54947  1.0000
  S   S272      1.0  0.33712  0.88723  0.51240  1.0000
  Fe  Fe134     1.0  0.36139  0.86620  0.51245  1.0000
  S   S273      1.0  0.36810  0.84745  0.49496  1.0000
  H   H1516     1.0  0.27133  0.96028  0.48167  1.0000
  H   H1517     1.0  0.19878  0.83018  0.41331  1.0000
  H   H1518     1.0  0.99304  0.75726  0.43233  1.0000
  Fe  Fe135     1.0  0.37905  0.87543  0.39578  1.0000
  H   H1519     1.0  0.23507  0.70397  0.42777  1.0000
  S   S274      1.0  0.38468  0.88538  0.41599  1.0000
  H   H1520     1.0  0.19672  0.65407  0.39598  1.0000
  C   C1880     1.0  0.14633  0.54851  0.49711  1.0000
  C   C1881     1.0  0.48611  0.92654  0.39999  1.0000
  H   H1521     1.0  0.05647  0.68249  0.45604  1.0000
  S   S275      1.0  0.37528  0.84955  0.39565  1.0000
  H   H1522     1.0  0.04077  0.80809  0.45134  1.0000
  P   P63       1.0  0.09425  0.58204  0.43785  1.0000
  S   S276      1.0  0.22021  0.85402  0.42019  1.0000
  C   C1882     1.0  0.15984  0.78814  0.42181  1.0000
  H   H1523     1.0  0.46823  0.88668  0.41773  1.0000
  C   C1883     1.0  0.04339  0.53471  0.54331  1.0000
  C   C1884     1.0  0.13951  0.86484  0.39471  1.0000
  Fe  Fe136     1.0  0.01125  0.61738  0.49144  1.0000
  S   S277      1.0  0.03950  0.60509  0.48350  1.0000
  H   H1524     1.0  0.32989  0.97234  0.54079  1.0000
  H   H1525     1.0  0.00286  0.66507  0.54332  1.0000
  Fe  Fe137     1.0  0.13263  0.65724  0.48959  1.0000
  S   S278      1.0  0.15661  0.63613  0.49165  1.0000
  S   S279      1.0  0.13143  0.68499  0.47471  1.0000
  Fe  Fe138     1.0  0.10880  0.63269  0.50819  1.0000
  S   S280      1.0  0.13052  0.60917  0.51187  1.0000
  S   S281      1.0  0.08069  0.63311  0.52013  1.0000
  Fe  Fe139     1.0  0.14275  0.62658  0.51894  1.0000
  S   S282      1.0  0.15743  0.61927  0.54034  1.0000
  Fe  Fe140     1.0  0.14268  0.62034  0.48432  1.0000
  C   C1885     1.0  0.35565  0.92642  0.42437  1.0000
  S   S283      1.0  0.12008  0.64933  0.51752  1.0000
  S   S284      1.0  0.11974  0.64214  0.47992  1.0000
  S   S285      1.0  0.00058  0.80077  0.48893  1.0000
  Fe  Fe141     1.0  0.11318  0.80103  0.51878  1.0000
  S   S286      1.0  0.08873  0.81132  0.50840  1.0000
  S   S287      1.0  0.12139  0.81739  0.53197  1.0000
  Fe  Fe142     1.0  0.12058  0.76653  0.50797  1.0000
  S   S288      1.0  0.09731  0.77407  0.49604  1.0000
  S   S289      1.0  0.13922  0.74038  0.51054  1.0000
  Fe  Fe143     1.0  0.10443  0.80011  0.48560  1.0000
  S   S290      1.0  0.10466  0.81656  0.45859  1.0000
  Fe  Fe144     1.0  0.08344  0.78466  0.51981  1.0000
  S   S291      1.0  0.05725  0.77967  0.53475  1.0000
  S   S292      1.0  0.12928  0.79153  0.49513  1.0000
  S   S293      1.0  0.10630  0.77526  0.53262  1.0000
  C   C1886     1.0  0.09523  0.80890  0.44634  1.0000
  C   C1887     1.0  0.10075  0.81245  0.42830  1.0000
  H   H1526     1.0  0.35498  0.91291  0.42682  1.0000
  C   C1888     1.0  0.03518  0.73857  0.47316  1.0000
  C   C1889     1.0  0.07740  0.79089  0.44420  1.0000
  C   C1890     1.0  0.08319  0.79844  0.45430  1.0000
  H   H1527     1.0  0.10970  0.82089  0.42198  1.0000
  H   H1528     1.0  0.16741  0.87997  0.48613  1.0000
  H   H1529     1.0  0.06820  0.78276  0.45046  1.0000
  H   H1530     1.0  0.07846  0.79607  0.46822  1.0000
  C   C1891     1.0  0.01629  0.79456  0.50179  1.0000
  C   C1892     1.0  0.03248  0.79882  0.49453  1.0000
  C   C1893     1.0  0.04515  0.79421  0.50452  1.0000
  C   C1894     1.0  0.04156  0.78560  0.52198  1.0000
  C   C1895     1.0  0.02531  0.78149  0.52933  1.0000
  C   C1896     1.0  0.01278  0.78576  0.51920  1.0000
  H   H1531     1.0  0.03528  0.80569  0.48115  1.0000
  H   H1532     1.0  0.05763  0.79745  0.49877  1.0000
  H   H1533     1.0  0.02247  0.77488  0.54285  1.0000
  C   C1897     1.0  0.02208  0.69090  0.39448  1.0000
  C   C1898     1.0  0.13375  0.70011  0.48489  1.0000
  C   C1899     1.0  0.13800  0.69494  0.50123  1.0000
  C   C1900     1.0  0.13965  0.70743  0.50902  1.0000
  C   C1901     1.0  0.13644  0.72514  0.50079  1.0000
  C   C1902     1.0  0.13194  0.73032  0.48455  1.0000
  C   C1903     1.0  0.13107  0.71775  0.47643  1.0000
  H   H1534     1.0  0.14024  0.68133  0.50777  1.0000
  H   H1535     1.0  0.14327  0.70336  0.52153  1.0000
  H   H1536     1.0  0.12938  0.74394  0.47813  1.0000
  H   H1537     1.0  0.12790  0.72170  0.46374  1.0000
  C   C1904     1.0  0.05154  0.61184  0.49393  1.0000
  C   C1905     1.0  0.06844  0.61377  0.48587  1.0000
  C   C1906     1.0  0.07762  0.62027  0.49382  1.0000
  C   C1907     1.0  0.06992  0.62462  0.50991  1.0000
  C   C1908     1.0  0.05330  0.62207  0.51819  1.0000
  C   C1909     1.0  0.04415  0.61567  0.51025  1.0000
  H   H1538     1.0  0.07421  0.61067  0.47331  1.0000
  H   H1539     1.0  0.09053  0.62205  0.48753  1.0000
  H   H1540     1.0  0.04744  0.62512  0.53076  1.0000
  H   H1541     1.0  0.03148  0.61339  0.51696  1.0000
  H   H1542     1.0  0.01147  0.80948  0.40650  1.0000
  H   H1543     1.0  0.12877  0.83889  0.43446  1.0000
  H   H1544     1.0  0.08918  0.50491  0.51595  1.0000
  H   H1545     1.0  0.10457  0.86302  0.44711  1.0000
  C   C1910     1.0  0.15685  0.76535  0.45450  1.0000
  C   C1911     1.0  0.28096  0.86104  0.47241  1.0000
  C   C1912     1.0  0.12204  0.56459  0.52577  1.0000
  H   H1546     1.0  0.33163  0.93317  0.44171  1.0000
  C   C1913     1.0  0.05518  0.73961  0.50407  1.0000
  H   H1547     1.0  0.28576  0.93332  0.49995  1.0000
  C   C1914     1.0  0.04497  0.64402  0.39891  1.0000
  C   C1915     1.0  0.15527  0.51498  0.53594  1.0000
  C   C1916     1.0  0.46914  0.94224  0.47261  1.0000
  C   C1917     1.0  0.45348  0.97507  0.57115  1.0000
  H   H1548     1.0  0.00643  0.74343  0.54533  1.0000
  H   H1549     1.0  0.99569  0.75426  0.40248  1.0000
  H   H1550     1.0  0.47215  0.95934  0.51085  1.0000
  H   H1551     1.0  0.04725  0.57848  0.41254  1.0000
  H   H1552     1.0  0.21940  0.71149  0.40381  1.0000
  H   H1553     1.0  0.38066  0.95449  0.39888  1.0000
  H   H1554     1.0  0.34617  0.96831  0.49305  1.0000
  C   C1918     1.0  0.37242  0.85787  0.47296  1.0000
  C   C1919     1.0  0.37530  0.84864  0.46006  1.0000
  C   C1920     1.0  0.37858  0.85709  0.44241  1.0000
  C   C1921     1.0  0.37932  0.87466  0.43775  1.0000
  C   C1922     1.0  0.37653  0.88380  0.45066  1.0000
  C   C1923     1.0  0.37281  0.87549  0.46823  1.0000
  H   H1555     1.0  0.37485  0.83502  0.46372  1.0000
  H   H1556     1.0  0.38081  0.84997  0.43246  1.0000
  H   H1557     1.0  0.37713  0.89737  0.44707  1.0000
  H   H1558     1.0  0.37029  0.88266  0.47817  1.0000
  C   C1924     1.0  0.05153  0.65167  0.44997  1.0000
  C   C1925     1.0  0.17112  0.83811  0.51037  1.0000
  C   C1926     1.0  0.16797  0.82635  0.50267  1.0000
  C   C1927     1.0  0.15259  0.82024  0.50883  1.0000
  C   C1928     1.0  0.14027  0.82576  0.52286  1.0000
  C   C1929     1.0  0.14329  0.83779  0.53032  1.0000
  C   C1930     1.0  0.15862  0.84402  0.52406  1.0000
  H   H1559     1.0  0.17758  0.82180  0.49202  1.0000
  H   H1560     1.0  0.15044  0.81099  0.50300  1.0000
  H   H1561     1.0  0.13382  0.84210  0.54118  1.0000
  H   H1562     1.0  0.16092  0.85309  0.53005  1.0000
  C   C1931     1.0  0.22836  0.88853  0.45104  1.0000
  C   C1932     1.0  0.21976  0.87497  0.45932  1.0000
  C   C1933     1.0  0.21766  0.86428  0.44979  1.0000
  C   C1934     1.0  0.22374  0.86730  0.43181  1.0000
  C   C1935     1.0  0.23205  0.88105  0.42348  1.0000
  C   C1936     1.0  0.23434  0.89168  0.43303  1.0000
  H   H1563     1.0  0.21444  0.87274  0.47305  1.0000
  H   H1564     1.0  0.21066  0.85409  0.45632  1.0000
  H   H1565     1.0  0.23702  0.88337  0.40974  1.0000
  H   H1566     1.0  0.24082  0.90224  0.42643  1.0000
  H   H1567     1.0  0.13052  0.84857  0.49000  1.0000
  C   C1937     1.0  0.27501  0.87040  0.53253  1.0000
  C   C1938     1.0  0.28898  0.87489  0.53593  1.0000
  H   H1568     1.0  0.27313  0.87327  0.51940  1.0000
  H   H1569     1.0  0.29762  0.88158  0.52544  1.0000
  C   C1939     1.0  0.17700  0.94101  0.53107  1.0000
  C   C1940     1.0  0.16354  0.95250  0.53947  1.0000
  C   C1941     1.0  0.16508  0.96932  0.53838  1.0000
  H   H1570     1.0  0.39255  0.93797  0.43624  1.0000
  C   C1942     1.0  0.19356  0.96375  0.52000  1.0000
  C   C1943     1.0  0.19207  0.94667  0.52119  1.0000
  C   C1944     1.0  0.20579  0.96561  0.55809  1.0000
  C   C1945     1.0  0.99932  0.54230  0.54115  1.0000
  H   H1571     1.0  0.20502  0.96823  0.51233  1.0000
  H   H1572     1.0  0.20250  0.93792  0.51454  1.0000
  H   H1573     1.0  0.31703  0.92044  0.53297  1.0000
  C   C1946     1.0  0.45569  0.84299  0.39485  1.0000
  H   H1574     1.0  0.99372  0.57099  0.38498  1.0000
  C   C1947     1.0  0.17261  0.59386  0.56425  1.0000
  C   C1948     1.0  0.15890  0.59918  0.55560  1.0000
  C   C1949     1.0  0.14694  0.58865  0.55954  1.0000
  C   C1950     1.0  0.14891  0.57272  0.57209  1.0000
  H   H1575     1.0  0.05308  0.51804  0.51545  1.0000
  H   H1576     1.0  0.18180  0.60197  0.56138  1.0000
  C   C1951     1.0  0.45656  0.96513  0.45063  1.0000
  C   C1952     1.0  0.02478  0.83406  0.44756  1.0000
  H   H1577     1.0  0.15550  0.91117  0.47436  1.0000
  P   P64       1.0  0.03635  0.83099  0.39003  1.0000
  H   H1578     1.0  0.99819  0.82496  0.43352  1.0000
  C   C1953     1.0  0.45902  0.96686  0.51375  1.0000
  H   H1579     1.0  0.42413  0.95537  0.50941  1.0000
  C   C1954     1.0  0.00648  0.71123  0.42205  1.0000
  H   H1580     1.0  0.00680  0.59703  0.54077  1.0000
  C   C1955     1.0  0.22716  0.97829  0.56214  1.0000
  C   C1956     1.0  0.36945  0.93234  0.41220  1.0000
  H   H1581     1.0  0.16032  0.53977  0.54892  1.0000
  C   C1957     1.0  0.08432  0.79305  0.42630  1.0000
  C   C1958     1.0  0.15462  0.53285  0.49174  1.0000
  C   C1959     1.0  0.27418  0.87830  0.46498  1.0000
  C   C1960     1.0  0.09066  0.58735  0.53628  1.0000
  H   H1582     1.0  0.15557  0.75646  0.46716  1.0000
  C   C1961     1.0  0.40593  0.95728  0.41858  1.0000
  P   P65       1.0  0.14204  0.54933  0.51977  1.0000
  C   C1962     1.0  0.99958  0.69612  0.56142  1.0000
  C   C1963     1.0  0.45548  0.86613  0.43261  1.0000
  C   C1964     1.0  0.22859  0.82058  0.47330  1.0000
  C   C1965     1.0  0.23239  0.81525  0.45771  1.0000
  C   C1966     1.0  0.22953  0.79927  0.45772  1.0000
  C   C1967     1.0  0.22288  0.78863  0.47334  1.0000
  C   C1968     1.0  0.21882  0.79401  0.48909  1.0000
  C   C1969     1.0  0.22180  0.81007  0.48887  1.0000
  P   P66       1.0  0.21217  0.77931  0.50945  1.0000
  C   C1970     1.0  0.20081  0.76548  0.50534  1.0000
  C   C1971     1.0  0.23136  0.76624  0.51724  1.0000
  C   C1972     1.0  0.23058  0.75968  0.53514  1.0000
  H   H1583     1.0  0.14853  0.71327  0.39583  1.0000
  H   H1584     1.0  0.19237  0.96572  0.55910  1.0000
  C   C1973     1.0  0.26191  0.75205  0.51165  1.0000
  C   C1974     1.0  0.24710  0.76218  0.50552  1.0000
  C   C1975     1.0  0.18666  0.77297  0.49716  1.0000
  C   C1976     1.0  0.17764  0.76236  0.49417  1.0000
  C   C1977     1.0  0.18286  0.74426  0.49901  1.0000
  C   C1978     1.0  0.19699  0.73672  0.50702  1.0000
  C   C1979     1.0  0.20593  0.74726  0.51024  1.0000
  C   C1980     1.0  0.19844  0.79089  0.52591  1.0000
  C   C1981     1.0  0.20549  0.80023  0.53317  1.0000
  C   C1982     1.0  0.19507  0.80921  0.54586  1.0000
  C   C1983     1.0  0.17764  0.80853  0.55182  1.0000
  C   C1984     1.0  0.17066  0.79873  0.54521  1.0000
  C   C1985     1.0  0.18097  0.78996  0.53232  1.0000
  H   H1585     1.0  0.23069  0.83300  0.47339  1.0000
  H   H1586     1.0  0.23733  0.82365  0.44560  1.0000
  H   H1587     1.0  0.23241  0.79523  0.44556  1.0000
  H   H1588     1.0  0.22106  0.77616  0.47311  1.0000
  H   H1589     1.0  0.21886  0.81473  0.50060  1.0000
  H   H1590     1.0  0.21850  0.76229  0.54443  1.0000
  C   C1986     1.0  0.04156  0.55244  0.38935  1.0000
  C   C1987     1.0  0.03453  0.63407  0.39697  1.0000
  H   H1591     1.0  0.27404  0.74899  0.50256  1.0000
  H   H1592     1.0  0.24802  0.76683  0.49165  1.0000
  H   H1593     1.0  0.18227  0.78700  0.49364  1.0000
  H   H1594     1.0  0.16624  0.76808  0.48862  1.0000
  H   H1595     1.0  0.17567  0.73607  0.49694  1.0000
  H   H1596     1.0  0.13381  0.80106  0.43121  1.0000
  H   H1597     1.0  0.21665  0.74111  0.51673  1.0000
  H   H1598     1.0  0.21902  0.80071  0.52897  1.0000
  H   H1599     1.0  0.20043  0.81694  0.55089  1.0000
  H   H1600     1.0  0.16943  0.81580  0.56136  1.0000
  H   H1601     1.0  0.15706  0.79838  0.54968  1.0000
  H   H1602     1.0  0.17502  0.78269  0.52743  1.0000
  C   C1988     1.0  0.46943  0.92380  0.40298  1.0000
  C   C1989     1.0  0.34253  0.93795  0.43300  1.0000
  H   H1603     1.0  0.09526  0.53606  0.50426  1.0000
  H   H1604     1.0  0.08328  0.58475  0.51407  1.0000
  H   H1605     1.0  0.27704  0.85079  0.46956  1.0000
  C   C1990     1.0  0.12413  0.52517  0.54336  1.0000
  H   H1606     1.0  0.02121  0.56761  0.55504  1.0000
  C   C1991     1.0  0.04348  0.51065  0.51724  1.0000
  C   C1992     1.0  0.02344  0.78388  0.40199  1.0000
  H   H1607     1.0  0.11238  0.53509  0.54222  1.0000
  C   C1993     1.0  0.32130  0.94444  0.47089  1.0000
  H   H1608     1.0  0.19201  0.79579  0.45745  1.0000
  C   C1994     1.0  0.14037  0.52827  0.53390  1.0000
  C   C1995     1.0  0.11920  0.57103  0.54067  1.0000
  C   C1996     1.0  0.13867  0.86199  0.42987  1.0000
  C   C1997     1.0  0.32553  0.89545  0.45341  1.0000
  C   C1998     1.0  0.33440  0.87931  0.44969  1.0000
  C   C1999     1.0  0.33275  0.87492  0.43508  1.0000
  C   C2000     1.0  0.32170  0.88639  0.42453  1.0000
  C   C2001     1.0  0.31206  0.90232  0.42862  1.0000
  C   C2002     1.0  0.31430  0.90691  0.44298  1.0000
  P   P67       1.0  0.29880  0.91757  0.41415  1.0000
  C   C2003     1.0  0.28127  0.93117  0.42634  1.0000
  C   C2004     1.0  0.31191  0.93119  0.39771  1.0000
  H   H1609     1.0  0.45786  0.97568  0.43923  1.0000
  P   P68       1.0  0.19408  0.77243  0.40969  1.0000
  H   H1610     1.0  0.00971  0.85988  0.43977  1.0000
  C   C2005     1.0  0.15867  0.72707  0.40795  1.0000
  H   H1611     1.0  0.48028  0.93496  0.47821  1.0000
  C   C2006     1.0  0.26467  0.92759  0.43226  1.0000
  C   C2007     1.0  0.25140  0.93818  0.44188  1.0000
  C   C2008     1.0  0.25447  0.95249  0.44552  1.0000
  C   C2009     1.0  0.27092  0.95610  0.43972  1.0000
  C   C2010     1.0  0.28427  0.94547  0.43025  1.0000
  C   C2011     1.0  0.28960  0.90561  0.40490  1.0000
  C   C2012     1.0  0.28369  0.89082  0.41545  1.0000
  C   C2013     1.0  0.27505  0.88234  0.40915  1.0000
  H   H1612     1.0  0.18570  0.57390  0.58262  1.0000
  H   H1613     1.0  0.99990  0.63468  0.55526  1.0000
  C   C2014     1.0  0.29953  0.98463  0.40156  1.0000
  H   H1614     1.0  0.32724  0.89893  0.46454  1.0000
  H   H1615     1.0  0.34268  0.87025  0.45805  1.0000
  H   H1616     1.0  0.34025  0.86273  0.43173  1.0000
  H   H1617     1.0  0.32083  0.88286  0.41307  1.0000
  H   H1618     1.0  0.30737  0.91923  0.44626  1.0000
  H   H1619     1.0  0.33603  0.91724  0.40580  1.0000
  H   H1620     1.0  0.28861  0.97681  0.45658  1.0000
  H   H1621     1.0  0.09887  0.64332  0.41838  1.0000
  H   H1622     1.0  0.10129  0.80594  0.40476  1.0000
  H   H1623     1.0  0.99799  0.73087  0.45588  1.0000
  H   H1624     1.0  0.26179  0.91665  0.42963  1.0000
  H   H1625     1.0  0.23867  0.93533  0.44637  1.0000
  H   H1626     1.0  0.24410  0.96085  0.45276  1.0000
  H   H1627     1.0  0.27326  0.96721  0.44251  1.0000
  H   H1628     1.0  0.29700  0.94823  0.42614  1.0000
  H   H1629     1.0  0.28558  0.88595  0.42864  1.0000
  H   H1630     1.0  0.27050  0.87093  0.41732  1.0000
  H   H1631     1.0  0.39726  0.92020  0.58218  1.0000
  C   C2015     1.0  0.40144  0.96163  0.47750  1.0000
  H   H1632     1.0  0.15473  0.97786  0.54533  1.0000
  C   C2016     1.0  0.11102  0.61557  0.45465  1.0000
  H   H1633     1.0  0.07016  0.69938  0.56445  1.0000
  C   C2017     1.0  0.02208  0.66588  0.44710  1.0000
  H   H1634     1.0  0.19566  0.97526  0.39829  1.0000
  H   H1635     1.0  0.02556  0.60130  0.42587  1.0000
  C   C2018     1.0  0.14951  0.62062  0.43558  1.0000
  H   H1636     1.0  0.20074  0.72268  0.51108  1.0000
  H   H1637     1.0  0.14987  0.95026  0.47819  1.0000
  H   H1638     1.0  0.41780  0.89071  0.40891  1.0000
  C   C2019     1.0  0.17943  0.90407  0.40533  1.0000
  H   H1639     1.0  0.03393  0.61637  0.44358  1.0000
  H   H1640     1.0  0.46598  0.85919  0.43927  1.0000
  C   C2020     1.0  0.18210  0.80770  0.45699  1.0000
  H   H1641     1.0  0.14650  0.57993  0.39031  1.0000
  C   C2021     1.0  0.34345  0.95540  0.43012  1.0000
  H   H1642     1.0  0.36927  0.87939  0.58162  1.0000
  H   H1643     1.0  0.01528  0.50202  0.58327  1.0000
  H   H1644     1.0  0.03121  0.54463  0.41676  1.0000
  H   H1645     1.0  0.02898  0.64557  0.46895  1.0000
  C   C2022     1.0  0.29285  0.85711  0.48315  1.0000
  C   C2023     1.0  0.44298  0.89096  0.41182  1.0000
  H   H1646     1.0  0.16747  0.76388  0.39799  1.0000
  H   H1647     1.0  0.23077  0.82330  0.40571  1.0000
  Fe  Fe145     1.0  0.22377  0.86451  0.39122  1.0000
  H   H1648     1.0  0.40478  0.97413  0.49602  1.0000
  H   H1649     1.0  0.00936  0.77036  0.44868  1.0000
  C   C2024     1.0  0.03861  0.59755  0.42817  1.0000
  H   H1650     1.0  0.00907  0.65403  0.42569  1.0000
  C   C2025     1.0  0.01416  0.55370  0.50320  1.0000
  H   H1651     1.0  0.13088  0.78087  0.46010  1.0000
  H   H1652     1.0  0.20369  0.61462  0.44213  1.0000
  C   C2026     1.0  0.37013  0.94982  0.40865  1.0000
  C   C2027     1.0  0.00055  0.59048  0.55333  1.0000
  C   C2028     1.0  0.03711  0.76628  0.44415  1.0000
  S   S294      1.0  0.99506  0.63227  0.47164  1.0000
  C   C2029     1.0  0.09658  0.61670  0.42713  1.0000
  C   C2030     1.0  0.18005  0.97502  0.52877  1.0000
  C   C2031     1.0  0.99634  0.66253  0.42569  1.0000
  C   C2032     1.0  0.99739  0.55827  0.49992  1.0000
  H   H1653     1.0  0.04754  0.80702  0.42063  1.0000
  H   H1654     1.0  0.05338  0.58054  0.52424  1.0000
  H   H1655     1.0  0.14954  0.88485  0.42039  1.0000
  H   H1656     1.0  0.11031  0.56404  0.50530  1.0000
  H   H1657     1.0  0.24263  0.96392  0.40874  1.0000
  H   H1658     1.0  0.10172  0.58772  0.55710  1.0000
  C   C2033     1.0  0.15721  0.71208  0.40414  1.0000
  C   C2034     1.0  0.02820  0.55094  0.40411  1.0000
  H   H1659     1.0  0.25359  0.96482  0.55589  1.0000
  H   H1660     1.0  0.14313  0.57527  0.45733  1.0000
  H   H1661     1.0  0.11960  0.97747  0.55754  1.0000
  C   C2035     1.0  0.01360  0.50870  0.52246  1.0000
  C   C2036     1.0  0.01095  0.63858  0.55657  1.0000
  H   H1662     1.0  0.21552  0.94272  0.54761  1.0000
  H   H1663     1.0  0.17640  0.62952  0.45846  1.0000
  C   C2037     1.0  0.17068  0.65020  0.43647  1.0000
  H   H1664     1.0  0.06783  0.57780  0.47016  1.0000
  H   H1665     1.0  0.04305  0.74431  0.49984  1.0000
  H   H1666     1.0  0.13538  0.97297  0.40116  1.0000
  S   S295      1.0  0.00270  0.63785  0.50711  1.0000
  H   H1667     1.0  0.42176  0.94444  0.54094  1.0000
  C   C2038     1.0  0.17611  0.65712  0.41868  1.0000
  H   H1668     1.0  0.45961  0.92838  0.41352  1.0000
  C   C2039     1.0  0.25812  0.91595  0.51791  1.0000
  C   C2040     1.0  0.25661  0.91336  0.50235  1.0000
  C   C2041     1.0  0.24733  0.92669  0.49127  1.0000
  C   C2042     1.0  0.23937  0.94262  0.49593  1.0000
  C   C2043     1.0  0.24065  0.94509  0.51168  1.0000
  H   H1669     1.0  0.26542  0.90558  0.52630  1.0000
  H   H1670     1.0  0.26176  0.90065  0.49944  1.0000
  H   H1671     1.0  0.24577  0.92440  0.47947  1.0000
  H   H1672     1.0  0.23193  0.95295  0.48755  1.0000
  C   C2044     1.0  0.33456  0.82810  0.44517  1.0000
  C   C2045     1.0  0.34902  0.81590  0.45018  1.0000
  C   C2046     1.0  0.34918  0.80913  0.46781  1.0000
  C   C2047     1.0  0.33495  0.81465  0.48046  1.0000
  C   C2048     1.0  0.32062  0.82740  0.47555  1.0000
  C   C2049     1.0  0.32043  0.83386  0.45777  1.0000
  P   P69       1.0  0.30223  0.83470  0.49186  1.0000
  C   C2050     1.0  0.28610  0.82207  0.49650  1.0000
  C   C2051     1.0  0.30881  0.83341  0.51159  1.0000
  C   C2052     1.0  0.32476  0.83702  0.51071  1.0000
  C   C2053     1.0  0.32973  0.83641  0.52588  1.0000
  H   H1673     1.0  0.18585  0.88031  0.44509  1.0000
  H   H1674     1.0  0.37946  0.92340  0.40535  1.0000
  C   C2054     1.0  0.45754  0.90659  0.54079  1.0000
  C   C2055     1.0  0.32802  0.96305  0.55313  1.0000
  C   C2056     1.0  0.27779  0.79618  0.49582  1.0000
  C   C2057     1.0  0.26083  0.80264  0.50399  1.0000
  C   C2058     1.0  0.25643  0.81879  0.50839  1.0000
  C   C2059     1.0  0.26898  0.82852  0.50460  1.0000
  H   H1675     1.0  0.33434  0.83322  0.43146  1.0000
  H   H1676     1.0  0.36005  0.81168  0.44036  1.0000
  H   H1677     1.0  0.36039  0.79964  0.47169  1.0000
  H   H1678     1.0  0.33527  0.80910  0.49404  1.0000
  H   H1679     1.0  0.30948  0.84338  0.45348  1.0000
  H   H1680     1.0  0.33332  0.84052  0.49829  1.0000
  H   H1681     1.0  0.17858  0.97592  0.46229  1.0000
  C   C2060     1.0  0.18140  0.88966  0.41914  1.0000
  P   P70       1.0  0.32604  0.97053  0.44075  1.0000
  H   H1682     1.0  0.21389  0.62705  0.41083  1.0000
  H   H1683     1.0  0.25107  0.79517  0.50695  1.0000
  H   H1684     1.0  0.24330  0.82381  0.51481  1.0000
  H   H1685     1.0  0.26536  0.84100  0.50822  1.0000
  C   C2061     1.0  0.07039  0.73201  0.49355  1.0000
  C   C2062     1.0  0.08948  0.73636  0.45732  1.0000
  C   C2063     1.0  0.09510  0.75015  0.45936  1.0000
  C   C2064     1.0  0.10923  0.75590  0.44758  1.0000
  C   C2065     1.0  0.11784  0.74797  0.43368  1.0000
  C   C2066     1.0  0.11232  0.73425  0.43150  1.0000
  C   C2067     1.0  0.10875  0.56920  0.51650  1.0000
  C   C2068     1.0  0.05561  0.74188  0.52019  1.0000
  C   C2069     1.0  0.07122  0.73715  0.52575  1.0000
  C   C2070     1.0  0.08641  0.72971  0.51536  1.0000
  C   C2071     1.0  0.08595  0.72700  0.49946  1.0000
  H   H1686     1.0  0.08837  0.75674  0.46984  1.0000
  H   H1687     1.0  0.11319  0.76683  0.44899  1.0000
  H   H1688     1.0  0.12862  0.75267  0.42452  1.0000
  H   H1689     1.0  0.11890  0.72824  0.42060  1.0000
  C   C2072     1.0  0.42834  0.88398  0.41554  1.0000
  H   H1690     1.0  0.06323  0.84053  0.40100  1.0000
  H   H1691     1.0  0.07160  0.73972  0.53788  1.0000
  H   H1692     1.0  0.09863  0.72636  0.51946  1.0000
  H   H1693     1.0  0.09785  0.72138  0.49154  1.0000
  C   C2073     1.0  0.45893  0.90162  0.57090  1.0000
  H   H1694     1.0  0.14196  0.63093  0.44208  1.0000
  H   H1695     1.0  0.07381  0.65872  0.47508  1.0000
  C   C2074     1.0  0.29075  0.88800  0.47913  1.0000
  H   H1696     1.0  0.05115  0.68146  0.41181  1.0000
  H   H1697     1.0  0.19005  0.90804  0.44705  1.0000
  C   C2075     1.0  0.09966  0.60114  0.43964  1.0000
  C   C2076     1.0  0.10361  0.58242  0.54585  1.0000
  C   C2077     1.0  0.15895  0.60551  0.44482  1.0000
  H   H1698     1.0  0.06057  0.64200  0.45714  1.0000
  C   C2078     1.0  0.11974  0.85583  0.46698  1.0000
  C   C2079     1.0  0.13838  0.89292  0.45227  1.0000
  C   C2080     1.0  0.14206  0.90585  0.45786  1.0000
  C   C2081     1.0  0.10446  0.85942  0.46085  1.0000
  C   C2082     1.0  0.40340  0.94036  0.42561  1.0000
  C   C2083     1.0  0.08804  0.85372  0.49043  1.0000
  C   C2084     1.0  0.10314  0.85036  0.49661  1.0000
  C   C2085     1.0  0.11895  0.85131  0.48495  1.0000
  H   H1699     1.0  0.12961  0.89664  0.44347  1.0000
  H   H1700     1.0  0.13654  0.91943  0.45299  1.0000
  H   H1701     1.0  0.99985  0.51455  0.52491  1.0000
  C   C2086     1.0  0.01096  0.55765  0.40254  1.0000
  H   H1702     1.0  0.07875  0.59651  0.54009  1.0000
  H   H1703     1.0  0.10266  0.84668  0.51048  1.0000
  H   H1704     1.0  0.41577  0.86312  0.43056  1.0000
  H   H1705     1.0  0.43962  0.84747  0.44604  1.0000
  C   C2087     1.0  0.09813  0.72850  0.44325  1.0000
  C   C2088     1.0  0.01730  0.69949  0.49201  1.0000
  C   C2089     1.0  0.02374  0.68456  0.48526  1.0000
  C   C2090     1.0  0.03326  0.66959  0.49446  1.0000
  C   C2091     1.0  0.03615  0.66951  0.51046  1.0000
  C   C2092     1.0  0.02897  0.68416  0.51778  1.0000
  C   C2093     1.0  0.01971  0.69929  0.50830  1.0000
  P   P71       1.0  0.03039  0.68249  0.53982  1.0000
  C   C2094     1.0  0.02706  0.66095  0.55117  1.0000
  C   C2095     1.0  0.05130  0.68489  0.54062  1.0000
  H   H1706     1.0  0.14018  0.68466  0.43951  1.0000
  C   C2096     1.0  0.24568  0.94455  0.39442  1.0000
  C   C2097     1.0  0.08348  0.68974  0.54142  1.0000
  C   C2098     1.0  0.08196  0.68289  0.52829  1.0000
  C   C2099     1.0  0.06599  0.68031  0.52796  1.0000
  H   H1707     1.0  0.18426  0.68191  0.42856  1.0000
  C   C2100     1.0  0.03998  0.64843  0.55891  1.0000
  C   C2101     1.0  0.01427  0.69961  0.54872  1.0000
  C   C2102     1.0  0.01676  0.71674  0.54316  1.0000
  C   C2103     1.0  0.13773  0.49633  0.55740  1.0000
  C   C2104     1.0  0.00466  0.73018  0.55001  1.0000
  C   C2105     1.0  0.06262  0.64116  0.39111  1.0000
  C   C2106     1.0  0.16304  0.56731  0.58032  1.0000
  H   H1708     1.0  0.00966  0.71098  0.48503  1.0000
  H   H1709     1.0  0.02109  0.68451  0.47308  1.0000
  H   H1710     1.0  0.03826  0.65793  0.48935  1.0000
  H   H1711     1.0  0.04352  0.65778  0.51742  1.0000
  H   H1712     1.0  0.01363  0.71070  0.51365  1.0000
  C   C2107     1.0  0.22628  0.72963  0.43313  1.0000
  H   H1713     1.0  0.31984  0.96345  0.40975  1.0000
  H   H1714     1.0  0.09322  0.67964  0.51835  1.0000
  H   H1715     1.0  0.06516  0.67469  0.51788  1.0000
  H   H1716     1.0  0.15190  0.94825  0.54712  1.0000
  H   H1717     1.0  0.05169  0.65177  0.55925  1.0000
  H   H1718     1.0  0.02799  0.71973  0.53335  1.0000
  C   C2108     1.0  0.03192  0.83272  0.41240  1.0000
  H   H1719     1.0  0.41199  0.91370  0.42419  1.0000
  C   C2109     1.0  0.03830  0.56315  0.52391  1.0000
  C   C2110     1.0  0.05293  0.78002  0.38560  1.0000
  C   C2111     1.0  0.45103  0.97719  0.50007  1.0000
  C   C2112     1.0  0.05999  0.55554  0.54132  1.0000
  H   H1720     1.0  0.06445  0.75923  0.44271  1.0000
  H   H1721     1.0  0.12472  0.59311  0.41262  1.0000
  H   H1722     1.0  0.15864  0.65624  0.44394  1.0000
  C   C2113     1.0  0.14849  0.97348  0.40074  1.0000
  P   P72       1.0  0.41770  0.94194  0.48250  1.0000
  C   C2114     1.0  0.41629  0.93385  0.50571  1.0000
  H   H1723     1.0  0.20185  0.74094  0.39569  1.0000
  C   C2115     1.0  0.11022  0.55629  0.41884  1.0000
  C   C2116     1.0  0.35969  0.97238  0.51011  1.0000
  C   C2117     1.0  0.19201  0.64888  0.40962  1.0000
  C   C2118     1.0  0.12288  0.50934  0.55509  1.0000
  C   C2119     1.0  0.17830  0.70942  0.42670  1.0000
  C   C2120     1.0  0.41243  0.91750  0.51403  1.0000
  C   C2121     1.0  0.41227  0.91090  0.53171  1.0000
  C   C2122     1.0  0.41560  0.92057  0.54142  1.0000
  C   C2123     1.0  0.02305  0.80134  0.40051  1.0000
  H   H1724     1.0  0.30295  0.96111  0.55161  1.0000
  C   C2124     1.0  0.41520  0.92535  0.47346  1.0000
  C   C2125     1.0  0.42946  0.91547  0.46393  1.0000
  C   C2126     1.0  0.42726  0.90218  0.45773  1.0000
  C   C2127     1.0  0.41083  0.89878  0.46087  1.0000
  C   C2128     1.0  0.39658  0.90874  0.47016  1.0000
  C   C2129     1.0  0.39878  0.92181  0.47659  1.0000
  H   H1725     1.0  0.16098  0.79460  0.46596  1.0000
  H   H1726     1.0  0.03882  0.75960  0.39582  1.0000
  H   H1727     1.0  0.33529  0.94020  0.46844  1.0000
  C   C2130     1.0  0.05126  0.74265  0.46469  1.0000
  C   C2131     1.0  0.31293  0.95665  0.55916  1.0000
  H   H1728     1.0  0.27257  0.73797  0.53426  1.0000
  C   C2132     1.0  0.14571  0.87530  0.45834  1.0000
  H   H1729     1.0  0.28820  0.91362  0.54390  1.0000
  H   H1730     1.0  0.15805  0.54769  0.44798  1.0000
  S   S296      1.0  0.07951  0.78133  0.41392  1.0000
  H   H1731     1.0  0.40957  0.90961  0.50709  1.0000
  C   C2133     1.0  0.43849  0.94745  0.47295  1.0000
  H   H1732     1.0  0.23102  0.77257  0.40103  1.0000
  H   H1733     1.0  0.44228  0.91781  0.46148  1.0000
  H   H1734     1.0  0.43828  0.89439  0.45064  1.0000
  H   H1735     1.0  0.40912  0.88841  0.45619  1.0000
  H   H1736     1.0  0.38380  0.90622  0.47268  1.0000
  H   H1737     1.0  0.38767  0.92908  0.48418  1.0000
  C   C2134     1.0  0.16555  0.54975  0.53876  1.0000
  C   C2135     1.0  0.17850  0.55597  0.54151  1.0000
  C   C2136     1.0  0.18458  0.56986  0.52942  1.0000
  C   C2137     1.0  0.17803  0.57726  0.51432  1.0000
  C   C2138     1.0  0.16550  0.57068  0.51124  1.0000
  H   H1738     1.0  0.18329  0.55052  0.55344  1.0000
  H   H1739     1.0  0.19396  0.57525  0.53203  1.0000
  H   H1740     1.0  0.18238  0.58835  0.50514  1.0000
  H   H1741     1.0  0.16051  0.57680  0.49957  1.0000
  C   C2139     1.0  0.35385  0.96217  0.50279  1.0000
  C   C2140     1.0  0.01259  0.65584  0.54997  1.0000
  C   C2141     1.0  0.99845  0.74274  0.41260  1.0000
  H   H1742     1.0  0.15829  0.52094  0.50103  1.0000
  C   C2142     1.0  0.41263  0.87640  0.57334  1.0000
  C   C2143     1.0  0.35808  0.94402  0.50797  1.0000
  C   C2144     1.0  0.37017  0.96447  0.52230  1.0000
  C   C2145     1.0  0.24999  0.93177  0.52278  1.0000
  H   H1743     1.0  0.24682  0.79462  0.39938  1.0000
  C   C2146     1.0  0.15264  0.90124  0.46995  1.0000
  C   C2147     1.0  0.23664  0.95483  0.40643  1.0000
  C   C2148     1.0  0.12377  0.58083  0.41094  1.0000
  S   S297      1.0  0.37824  0.88377  0.51144  1.0000
  S   S298      1.0  0.35086  0.93141  0.49856  1.0000
  C   C2149     1.0  0.14977  0.62224  0.41791  1.0000
  C   C2150     1.0  0.26374  0.86175  0.54616  1.0000
  C   C2151     1.0  0.00440  0.71304  0.43906  1.0000
  C   C2152     1.0  0.48808  0.96920  0.53425  1.0000
  C   C2153     1.0  0.41935  0.93686  0.53336  1.0000
  C   C2154     1.0  0.22379  0.81355  0.40674  1.0000
  C   C2155     1.0  0.37418  0.94630  0.52760  1.0000
  H   H1744     1.0  0.23426  0.95728  0.51528  1.0000
  H   H1745     1.0  0.03428  0.72786  0.48439  1.0000
  H   H1746     1.0  0.35249  0.96227  0.55822  1.0000
  C   C2156     1.0  0.04336  0.60615  0.43796  1.0000
  H   H1747     1.0  0.16552  0.52050  0.46998  1.0000
  Fe  Fe146     1.0  0.35356  0.90396  0.51424  1.0000
  C   C2157     1.0  0.36814  0.93608  0.52049  1.0000
  C   C2158     1.0  0.00870  0.57384  0.56128  1.0000
  H   H1748     1.0  0.06358  0.60836  0.44834  1.0000
  C   C2159     1.0  0.18078  0.63506  0.44486  1.0000
  C   C2160     1.0  0.03375  0.65368  0.45658  1.0000
  C   C2161     1.0  0.03736  0.80847  0.39104  1.0000
  C   C2162     1.0  0.30292  0.82887  0.54307  1.0000
  C   C2163     1.0  0.14449  0.79040  0.43425  1.0000
  C   C2164     1.0  0.42719  0.86835  0.42777  1.0000
  C   C2165     1.0  0.42022  0.94324  0.51550  1.0000
  H   H1749     1.0  0.32572  0.97718  0.47438  1.0000
  H   H1750     1.0  0.37162  0.92205  0.52445  1.0000
  C   C2166     1.0  0.20191  0.63360  0.41803  1.0000
  C   C2167     1.0  0.00311  0.72621  0.40889  1.0000
  H   H1751     1.0  0.23355  0.90815  0.55069  1.0000
  C   C2168     1.0  0.43086  0.94652  0.39767  1.0000
  C   C2169     1.0  0.02107  0.76243  0.45293  1.0000
  C   C2170     1.0  0.19351  0.93558  0.47223  1.0000
  P   P73       1.0  0.14005  0.85840  0.45227  1.0000
  H   H1752     1.0  0.16061  0.79701  0.40915  1.0000
  C   C2171     1.0  0.14524  0.87695  0.39951  1.0000
  C   C2172     1.0  0.26078  0.91272  0.57309  1.0000
  C   C2173     1.0  0.44067  0.85950  0.43643  1.0000
  C   C2174     1.0  0.05297  0.69150  0.55398  1.0000
  H   H1753     1.0  0.42852  0.84570  0.39618  1.0000
  C   C2175     1.0  0.16013  0.60905  0.40940  1.0000
  C   C2176     1.0  0.02573  0.51832  0.52111  1.0000
  C   C2177     1.0  0.22380  0.78485  0.40433  1.0000
  H   H1754     1.0  0.21065  0.93203  0.44802  1.0000
  H   H1755     1.0  0.20371  0.93023  0.47955  1.0000
  C   C2178     1.0  0.01647  0.68240  0.38505  1.0000
  Fe  Fe147     1.0  0.09890  0.78264  0.38861  1.0000
  C   C2179     1.0  0.17241  0.76324  0.44220  1.0000
  H   H1756     1.0  0.00784  0.74520  0.47403  1.0000
  H   H1757     1.0  0.17833  0.58432  0.41198  1.0000
  C   C2180     1.0  0.06030  0.60161  0.44053  1.0000
  P   P74       1.0  0.25315  0.93526  0.54229  1.0000
  C   C2181     1.0  0.24542  0.74958  0.54123  1.0000
  H   H1758     1.0  0.17706  0.90270  0.39349  1.0000
  H   H1759     1.0  0.04394  0.74795  0.52816  1.0000
  C   C2182     1.0  0.05609  0.53916  0.54852  1.0000
  C   C2183     1.0  0.15944  0.88371  0.47652  1.0000
  C   C2184     1.0  0.27903  0.89179  0.46834  1.0000
  H   H1760     1.0  0.13827  0.82163  0.46453  1.0000
  H   H1761     1.0  0.17697  0.58101  0.44313  1.0000
  H   H1762     1.0  0.29786  0.84301  0.39573  1.0000
  C   C2185     1.0  0.31154  0.97576  0.41204  1.0000
  C   C2186     1.0  0.29338  0.94053  0.48882  1.0000
  C   C2187     1.0  0.46003  0.91889  0.56828  1.0000
  C   C2188     1.0  0.11037  0.57256  0.42112  1.0000
  C   C2189     1.0  0.03514  0.70011  0.38589  1.0000
  H   H1763     1.0  0.00605  0.70168  0.44958  1.0000
  H   H1764     1.0  0.10998  0.58875  0.46296  1.0000
  H   H1765     1.0  0.07490  0.73846  0.38990  1.0000
  H   H1766     1.0  0.39713  0.96810  0.42370  1.0000
  H   H1767     1.0  0.07197  0.55135  0.57570  1.0000
  H   H1768     1.0  0.07135  0.66049  0.42875  1.0000
  H   H1769     1.0  0.45645  0.90181  0.53020  1.0000
  H   H1770     1.0  0.17785  0.85148  0.44515  1.0000
  C   C2190     1.0  0.15592  0.87081  0.47085  1.0000
  C   C2191     1.0  0.29790  0.82937  0.52795  1.0000
  H   H1771     1.0  0.15342  0.94873  0.41856  1.0000
  C   C2192     1.0  0.21974  0.95368  0.41524  1.0000
  H   H1772     1.0  0.11092  0.64262  0.44331  1.0000
  C   C2193     1.0  0.29517  0.96499  0.46417  1.0000
  C   C2194     1.0  0.17394  0.83916  0.45020  1.0000
  C   C2195     1.0  0.31321  0.95904  0.45981  1.0000
  H   H1773     1.0  0.21504  0.92329  0.39681  1.0000
  H   H1774     1.0  0.09590  0.69177  0.54154  1.0000
  C   C2196     1.0  0.07350  0.67224  0.47413  1.0000
  C   C2197     1.0  0.15874  0.95978  0.41064  1.0000
  H   H1775     1.0  0.21279  0.96212  0.42413  1.0000
  H   H1776     1.0  0.18607  0.70834  0.43585  1.0000
  C   C2198     1.0  0.12972  0.67484  0.40663  1.0000
  C   C2199     1.0  0.14477  0.87557  0.41703  1.0000
  C   C2200     1.0  0.14020  0.67748  0.41612  1.0000
  C   C2201     1.0  0.18673  0.82380  0.45126  1.0000
  C   C2202     1.0  0.11206  0.67572  0.41351  1.0000
  C   C2203     1.0  0.23638  0.95252  0.55007  1.0000
  C   C2204     1.0  0.28918  0.92695  0.53775  1.0000
  H   H1777     1.0  0.05548  0.71304  0.45424  1.0000
  C   C2205     1.0  0.31139  0.93507  0.48516  1.0000
  H   H1778     1.0  0.06251  0.53012  0.55853  1.0000
  C   C2206     1.0  0.15636  0.83857  0.45549  1.0000
  C   C2207     1.0  0.19747  0.93679  0.45429  1.0000
  H   H1779     1.0  0.09382  0.71811  0.44120  1.0000
  H   H1780     1.0  0.13505  0.67240  0.39381  1.0000
  C   C2208     1.0  0.18251  0.97450  0.39928  1.0000
  C   C2209     1.0  0.27430  0.94022  0.53567  1.0000
  H   H1781     1.0  0.26907  0.92100  0.57277  1.0000
  C   C2210     1.0  0.13332  0.85135  0.40741  1.0000
  H   H1782     1.0  0.13630  0.57616  0.48816  1.0000
  C   C2211     1.0  0.15176  0.82239  0.46107  1.0000
  H   H1783     1.0  0.07590  0.85248  0.49951  1.0000
  H   H1784     1.0  0.10042  0.54935  0.42697  1.0000
  P   P75       1.0  0.46027  0.95281  0.54883  1.0000
  H   H1785     1.0  0.09007  0.66614  0.49228  1.0000
  C   C2212     1.0  0.20573  0.81737  0.41113  1.0000
  C   C2213     1.0  0.06788  0.58009  0.42317  1.0000
  H   H1786     1.0  0.04189  0.69489  0.56409  1.0000
  C   C2214     1.0  0.30559  0.93071  0.53141  1.0000
  C   C2215     1.0  0.45301  0.93798  0.48005  1.0000
  C   C2216     1.0  0.18128  0.92009  0.40644  1.0000
  C   C2217     1.0  0.15454  0.54779  0.46169  1.0000
  C   C2218     1.0  0.06898  0.69400  0.55430  1.0000
  C   C2219     1.0  0.30435  0.94530  0.38578  1.0000
  H   H1787     1.0  0.15034  0.88721  0.38961  1.0000
  C   C2220     1.0  0.21171  0.94224  0.41203  1.0000
  H   H1788     1.0  0.29849  0.97931  0.39137  1.0000
  C   C2221     1.0  0.09579  0.80408  0.41842  1.0000
  C   C2222     1.0  0.05760  0.66209  0.43401  1.0000
  C   C2223     1.0  0.11485  0.68275  0.43914  1.0000
  H   H1789     1.0  0.30692  0.86813  0.49461  1.0000
  H   H1790     1.0  0.08989  0.69658  0.49004  1.0000
  C   C2224     1.0  0.09324  0.58073  0.52162  1.0000
  C   C2225     1.0  0.01797  0.84840  0.43547  1.0000
  H   H1791     1.0  0.38209  0.94001  0.53710  1.0000
  C   C2226     1.0  0.16667  0.69567  0.41114  1.0000
  H   H1792     1.0  0.28214  0.85897  0.57963  1.0000
  C   C2227     1.0  0.03835  0.63113  0.56541  1.0000
  H   H1793     1.0  0.17329  0.93897  0.49484  1.0000
  C   C2228     1.0  0.22089  0.93200  0.39988  1.0000
  C   C2229     1.0  0.17636  0.94041  0.48083  1.0000
  Fe  Fe148     1.0  0.33364  0.87938  0.54129  1.0000
  H   H1794     1.0  0.07709  0.57028  0.41696  1.0000
  H   H1795     1.0  0.16102  0.85733  0.47651  1.0000
  C   C2230     1.0  0.00057  0.56497  0.57721  1.0000
  C   C2231     1.0  0.03475  0.54648  0.53059  1.0000
  C   C2232     1.0  0.14612  0.56334  0.46694  1.0000
  H   H1796     1.0  0.00836  0.66709  0.45241  1.0000
  C   C2233     1.0  0.07946  0.56789  0.47200  1.0000
  C   C2234     1.0  0.10075  0.63156  0.42840  1.0000
  C   C2235     1.0  0.02385  0.62621  0.56425  1.0000
  C   C2236     1.0  0.32978  0.92790  0.39679  1.0000
  C   C2237     1.0  0.06306  0.70296  0.46266  1.0000
  C   C2238     1.0  0.02146  0.84774  0.41794  1.0000
  C   C2239     1.0  0.12276  0.54884  0.40604  1.0000
  H   H1797     1.0  0.43069  0.94430  0.57688  1.0000
  C   C2240     1.0  0.18438  0.94321  0.44469  1.0000
  C   C2241     1.0  0.17585  0.96016  0.40999  1.0000
  C   C2242     1.0  0.39653  0.87603  0.57078  1.0000
  H   H1798     1.0  0.08205  0.70671  0.40246  1.0000
  H   H1799     1.0  0.10420  0.67334  0.40619  1.0000
  C   C2243     1.0  0.21858  0.72126  0.41071  1.0000
  C   C2244     1.0  0.16463  0.80702  0.46182  1.0000
  C   C2245     1.0  0.06377  0.68557  0.46345  1.0000
  C   C2246     1.0  0.34079  0.95736  0.56298  1.0000
  S   S299      1.0  0.15768  0.60149  0.46734  1.0000
  P   P76       1.0  0.18929  0.94198  0.42214  1.0000
  C   C2247     1.0  0.99976  0.72959  0.44270  1.0000
  C   C2248     1.0  0.14292  0.77902  0.45055  1.0000
  C   C2249     1.0  0.29042  0.80583  0.49212  1.0000
  C   C2250     1.0  0.07191  0.70719  0.47276  1.0000
  H   H1800     1.0  0.12908  0.56733  0.54826  1.0000
  C   C2251     1.0  0.16715  0.94809  0.45343  1.0000
  C   C2252     1.0  0.16318  0.94671  0.47143  1.0000
  C   C2253     1.0  0.18451  0.89145  0.43434  1.0000
  H   H1801     1.0  0.27350  0.90517  0.46277  1.0000
  H   H1802     1.0  0.02274  0.61274  0.56890  1.0000
  C   C2254     1.0  0.05215  0.75629  0.44988  1.0000
  H   H1803     1.0  0.03097  0.57300  0.51507  1.0000
  C   C2255     1.0  0.05093  0.56759  0.52923  1.0000
  H   H1804     1.0  0.28532  0.82698  0.52920  1.0000
  H   H1805     1.0  0.39531  0.95423  0.45687  1.0000
  H   H1806     1.0  0.45187  0.92732  0.49135  1.0000
  C   C2256     1.0  0.13251  0.68185  0.43226  1.0000
  H   H1807     1.0  0.40940  0.89829  0.53790  1.0000
  C   C2257     1.0  0.27617  0.95704  0.52644  1.0000
  C   C2258     1.0  0.30731  0.94761  0.52273  1.0000
  C   C2259     1.0  0.29776  0.87072  0.48643  1.0000
  H   H1808     1.0  0.15673  0.95256  0.44648  1.0000
  C   C2260     1.0  0.45668  0.88178  0.42034  1.0000
  C   C2261     1.0  0.29145  0.87097  0.55303  1.0000
  C   C2262     1.0  0.29259  0.96076  0.52021  1.0000
  H   H1809     1.0  0.26496  0.96729  0.52389  1.0000
  H   H1810     1.0  0.32004  0.95046  0.51782  1.0000
  H   H1811     1.0  0.12240  0.53645  0.40408  1.0000
  H   H1812     1.0  0.28117  0.78368  0.49236  1.0000
  C   C2263     1.0  0.18669  0.90733  0.43544  1.0000
  P   P77       1.0  0.16307  0.67644  0.40742  1.0000
  C   C2264     1.0  0.17725  0.69442  0.42250  1.0000
  H   H1813     1.0  0.00589  0.51569  0.55555  1.0000
  H   H1814     1.0  0.29436  0.89848  0.48192  1.0000
  H   H1815     1.0  0.03801  0.77705  0.43293  1.0000
  C   C2265     1.0  0.19624  0.62664  0.43563  1.0000
  C   C2266     1.0  0.46553  0.91520  0.39244  1.0000
  H   H1816     1.0  0.30351  0.80058  0.48585  1.0000
  C   C2267     1.0  0.08272  0.67638  0.48379  1.0000
  C   C2268     1.0  0.08222  0.69375  0.48285  1.0000
  C   C2269     1.0  0.13578  0.55738  0.39570  1.0000
  S   S300      1.0  0.34830  0.89792  0.54332  1.0000
  C   C2270     1.0  0.23282  0.79733  0.40328  1.0000
  S   S301      1.0  0.35684  0.85689  0.54149  1.0000
  H   H1817     1.0  0.99728  0.68312  0.56599  1.0000
  P   P78       1.0  0.07067  0.72966  0.47214  1.0000
  C   C2271     1.0  0.18513  0.92179  0.42144  1.0000
  C   C2272     1.0  0.03539  0.81922  0.44207  1.0000
  C   C2273     1.0  0.07270  0.58841  0.43331  1.0000
  Fe  Fe149     1.0  0.37193  0.87619  0.54066  1.0000
  H   H1818     1.0  0.29386  0.97383  0.51331  1.0000
  H   H1819     1.0  0.42420  0.87342  0.56361  1.0000
  C   C2274     1.0  0.45950  0.93030  0.55196  1.0000
  H   H1820     1.0  0.41539  0.91532  0.55514  1.0000
  S   S302      1.0  0.30742  0.87762  0.55877  1.0000
  C   C2275     1.0  0.99403  0.56912  0.48410  1.0000
  H   H1821     1.0  0.18295  0.75259  0.44565  1.0000
  C   C2276     1.0  0.45861  0.92389  0.53813  1.0000
  H   H1822     1.0  0.34207  0.83913  0.52506  1.0000
  C   C2277     1.0  0.17013  0.59442  0.41853  1.0000
  C   C2278     1.0  0.31879  0.83248  0.54205  1.0000
  C   C2279     1.0  0.26680  0.85727  0.56298  1.0000
  H   H1823     1.0  0.29424  0.82617  0.55558  1.0000
  H   H1824     1.0  0.48338  0.95919  0.45220  1.0000
  C   C2280     1.0  0.28528  0.95566  0.47851  1.0000
  H   H1825     1.0  0.45930  0.89294  0.58358  1.0000
  C   C2281     1.0  0.44897  0.96114  0.56800  1.0000
  H   H1826     1.0  0.06266  0.48742  0.51271  1.0000
  S   S303      1.0  0.39576  0.86975  0.55214  1.0000
  H   H1827     1.0  0.14220  0.63373  0.41086  1.0000
  H   H1828     1.0  0.31777  0.92377  0.49359  1.0000
  C   C2282     1.0  0.45011  0.96633  0.53107  1.0000
  H   H1829     1.0  0.26510  0.88115  0.45664  1.0000
  H   H1830     1.0  0.32249  0.83253  0.55374  1.0000
  H   H1831     1.0  0.20022  0.82452  0.44723  1.0000
  H   H1832     1.0  0.23085  0.88288  0.57512  1.0000
  H   H1833     1.0  0.11711  0.61495  0.46503  1.0000
  H   H1834     1.0  0.45843  0.93223  0.52535  1.0000
  H   H1835     1.0  0.09096  0.68035  0.43508  1.0000
  C   C2283     1.0  0.10761  0.63112  0.44235  1.0000
  C   C2284     1.0  0.10715  0.60060  0.45329  1.0000
  H   H1836     1.0  0.12129  0.53339  0.48037  1.0000
  H   H1837     1.0  0.16796  0.51712  0.52887  1.0000
  H   H1838     1.0  0.00633  0.67531  0.39101  1.0000
  C   C2285     1.0  0.39298  0.96422  0.46389  1.0000
  C   C2286     1.0  0.09489  0.54432  0.49142  1.0000
  C   C2287     1.0  0.10952  0.54284  0.47799  1.0000
  H   H1839     1.0  0.06862  0.55821  0.49877  1.0000
  H   H1840     1.0  0.12081  0.55296  0.45146  1.0000
  C   C2288     1.0  0.24083  0.90555  0.56069  1.0000
  C   C2289     1.0  0.02017  0.74839  0.46728  1.0000
  C   C2290     1.0  0.09405  0.56641  0.45839  1.0000
  C   C2291     1.0  0.07988  0.55681  0.48838  1.0000
  C   C2292     1.0  0.04597  0.67418  0.42442  1.0000
  H   H1841     1.0  0.18088  0.87701  0.41799  1.0000
  H   H1842     1.0  0.06961  0.55913  0.54552  1.0000
  C   C2293     1.0  0.00740  0.57532  0.47137  1.0000
  P   P79       1.0  0.01280  0.68982  0.41739  1.0000
  H   H1843     1.0  0.02095  0.63612  0.40311  1.0000
  C   C2294     1.0  0.02425  0.57026  0.47424  1.0000
  C   C2295     1.0  0.15874  0.53252  0.47409  1.0000
  C   C2296     1.0  0.16942  0.59259  0.43615  1.0000
  C   C2297     1.0  0.10916  0.55390  0.46155  1.0000
  H   H1844     1.0  0.45421  0.84054  0.40879  1.0000
  H   H1845     1.0  0.09110  0.61732  0.41628  1.0000
  H   H1846     1.0  0.10918  0.68590  0.45175  1.0000
  C   C2298     1.0  0.02805  0.67591  0.43067  1.0000
  C   C2299     1.0  0.14218  0.56376  0.48451  1.0000
  C   C2300     1.0  0.26109  0.74581  0.52950  1.0000
  C   C2301     1.0  0.21896  0.95262  0.55156  1.0000
  C   C2302     1.0  0.19664  0.80487  0.41237  1.0000
  C   C2303     1.0  0.28030  0.86214  0.56644  1.0000
  C   C2304     1.0  0.45754  0.89550  0.55722  1.0000
  C   C2305     1.0  0.04897  0.49333  0.51559  1.0000
  C   C2306     1.0  0.03909  0.81861  0.42459  1.0000
  C   C2307     1.0  0.20860  0.73806  0.40614  1.0000
  H   H1847     1.0  0.16968  0.73730  0.42286  1.0000
  C   C2308     1.0  0.99666  0.52803  0.55503  1.0000
  C   C2309     1.0  0.35731  0.96124  0.41772  1.0000
  H   H1848     1.0  0.37138  0.97401  0.57058  1.0000
  C   C2310     1.0  0.47090  0.95585  0.45794  1.0000
  S   S304      1.0  0.12707  0.77424  0.38881  1.0000
  H   H1849     1.0  0.42551  0.97556  0.54760  1.0000
  C   C2311     1.0  0.43293  0.97593  0.53444  1.0000
  C   C2312     1.0  0.42853  0.92941  0.40467  1.0000
  H   H1850     1.0  0.45656  0.88214  0.55936  1.0000
  H   H1851     1.0  0.42951  0.96822  0.45206  1.0000
  C   C2313     1.0  0.17477  0.57799  0.57635  1.0000
  C   C2314     1.0  0.13311  0.84978  0.42487  1.0000
  C   C2315     1.0  0.21633  0.74646  0.42857  1.0000
  H   H1852     1.0  0.17382  0.97508  0.49368  1.0000
  C   C2316     1.0  0.24035  0.96504  0.55607  1.0000
  H   H1853     1.0  0.49014  0.92984  0.56310  1.0000
  H   H1854     1.0  0.18045  0.93093  0.39530  1.0000
  C   C2317     1.0  0.25186  0.91623  0.55970  1.0000
  C   C2318     1.0  0.22739  0.71703  0.42422  1.0000
  C   C2319     1.0  0.13634  0.57329  0.39825  1.0000
  C   C2320     1.0  0.43494  0.95455  0.57932  1.0000
  P   P80       1.0  0.44406  0.91152  0.39630  1.0000
  H   H1855     1.0  0.00033  0.78252  0.52497  1.0000
  H   H1856     1.0  0.25848  0.85022  0.57351  1.0000
  C   C2321     1.0  0.23778  0.93318  0.39114  1.0000
  H   H1857     1.0  0.00059  0.55663  0.41396  1.0000
  H   H1858     1.0  0.01572  0.85883  0.40897  1.0000
  C   C2322     1.0  0.41453  0.92651  0.41862  1.0000
  H   H1859     1.0  0.07711  0.86023  0.46777  1.0000
  C   C2323     1.0  0.20735  0.75079  0.41508  1.0000
  H   H1860     1.0  0.03955  0.70700  0.39272  1.0000
  S   S305      1.0  0.37877  0.97688  0.53079  1.0000
  C   C2324     1.0  0.08872  0.85814  0.47256  1.0000
  H   H1861     1.0  0.13622  0.59286  0.55300  1.0000
  H   H1862     1.0  0.04082  0.55553  0.49191  1.0000
  P   P81       1.0  0.01847  0.54043  0.52395  1.0000
  C   C2325     1.0  0.48252  0.95432  0.54512  1.0000
  H   H1863     1.0  0.00380  0.72519  0.39582  1.0000
  H   H1864     1.0  0.03460  0.57519  0.46444  1.0000
  C   C2326     1.0  0.15393  0.49908  0.54771  1.0000
  H   H1865     1.0  0.45797  0.97770  0.48673  1.0000
  H   H1866     1.0  0.46381  0.98086  0.56236  1.0000
  S   S306      1.0  0.35484  0.89030  0.38642  1.0000
  H   H1867     1.0  0.11035  0.50748  0.56276  1.0000
  C   C2327     1.0  0.44123  0.84585  0.38780  1.0000
  C   C2328     1.0  0.38451  0.94715  0.57451  1.0000
  C   C2329     1.0  0.02842  0.49427  0.58105  1.0000
  H   H1868     1.0  0.38489  0.94639  0.56147  1.0000
  H   H1869     1.0  0.01209  0.77873  0.40886  1.0000
  H   H1870     1.0  0.16466  0.64950  0.38993  1.0000
  C   C2330     1.0  0.01911  0.49138  0.52085  1.0000
  C   C2331     1.0  0.02769  0.55927  0.48997  1.0000
  H   H1871     1.0  0.23310  0.72634  0.44362  1.0000
  C   C2332     1.0  0.20562  0.78843  0.40909  1.0000
  C   C2333     1.0  0.17601  0.76972  0.38668  1.0000
  H   H1872     1.0  0.21548  0.75608  0.43567  1.0000
  H   H1873     1.0  0.13983  0.56449  0.57510  1.0000
  C   C2334     1.0  0.17405  0.77471  0.42573  1.0000
  C   C2335     1.0  0.08202  0.71141  0.38873  1.0000
  S   S307      1.0  0.07614  0.65306  0.39356  1.0000
  H   H1874     1.0  0.46136  0.92327  0.57903  1.0000
  C   C2336     1.0  0.00708  0.56586  0.38623  1.0000
  H   H1875     1.0  0.04014  0.55830  0.57760  1.0000
  H   H1876     1.0  0.24474  0.74465  0.55507  1.0000
  H   H1877     1.0  0.35810  0.97465  0.41474  1.0000
  C   C2337     1.0  0.38170  0.98007  0.45883  1.0000
  H   H1878     1.0  0.00463  0.58415  0.45935  1.0000
  H   H1879     1.0  0.03940  0.65380  0.40646  1.0000
  C   C2338     1.0  0.20988  0.97865  0.56302  1.0000
  H   H1880     1.0  0.42134  0.97356  0.39896  1.0000
  H   H1881     1.0  0.12916  0.84177  0.40364  1.0000
  C   C2339     1.0  0.99694  0.74444  0.42945  1.0000
  C   C2340     1.0  0.41963  0.96035  0.40461  1.0000
  H   H1882     1.0  0.04872  0.62143  0.57066  1.0000
  C   C2341     1.0  0.09619  0.49501  0.52499  1.0000
  H   H1883     1.0  0.18266  0.80830  0.41556  1.0000
  C   C2342     1.0  0.27219  0.88858  0.39228  1.0000
  C   C2343     1.0  0.37685  0.96285  0.57978  1.0000
  H   H1884     1.0  0.15151  0.73964  0.40214  1.0000
  C   C2344     1.0  0.44043  0.96089  0.45801  1.0000
  C   C2345     1.0  0.23905  0.89133  0.57469  1.0000
  C   C2346     1.0  0.38166  0.87974  0.58346  1.0000
  H   H1885     1.0  0.05482  0.54686  0.39072  1.0000
  H   H1886     1.0  0.16289  0.82855  0.39352  1.0000
  C   C2347     1.0  0.06634  0.84226  0.38701  1.0000
  H   H1887     1.0  0.48900  0.93335  0.40803  1.0000
  H   H1888     1.0  0.37526  0.98206  0.44831  1.0000
  H   H1889     1.0  0.16549  0.48906  0.54971  1.0000
  H   H1890     1.0  0.29051  0.94848  0.38653  1.0000
  S   S308      1.0  0.32792  0.85495  0.39420  1.0000
  H   H1891     1.0  0.07313  0.48884  0.54262  1.0000
  H   H1892     1.0  0.48302  0.84071  0.38978  1.0000
  S   S309      1.0  0.99181  0.60188  0.50783  1.0000
  H   H1893     1.0  0.47919  0.97988  0.52778  1.0000
  C   C2348     1.0  0.31238  0.98265  0.42554  1.0000
  C   C2349     1.0  0.99405  0.68061  0.42283  1.0000
  C   C2350     1.0  0.28743  0.91124  0.38763  1.0000
  C   C2351     1.0  0.33847  0.94541  0.57893  1.0000
  C   C2352     1.0  0.31064  0.94455  0.57498  1.0000
  H   H1894     1.0  0.32308  0.90701  0.57880  1.0000
  H   H1895     1.0  0.33279  0.87609  0.57741  1.0000
  H   H1896     1.0  0.26539  0.88206  0.38745  1.0000
  H   H1897     1.0  0.25867  0.94562  0.38742  1.0000
  H   H1898     1.0  0.29897  0.93956  0.57923  1.0000
  C   C2353     1.0  0.33333  0.98654  0.44652  1.0000
  S   S310      1.0  0.02994  0.60684  0.38682  1.0000
  S   S311      1.0  0.16167  0.61027  0.38729  1.0000
  C   C2354     1.0  0.04196  0.62089  0.38773  1.0000
  C   C2355     1.0  0.18944  0.77606  0.38848  1.0000
  H   H1899     1.0  0.14547  0.55171  0.38570  1.0000
  C   C2356     1.0  0.16837  0.67576  0.38466  1.0000
  H   H1900     1.0  0.44135  0.94924  0.38681  1.0000
  C   C2357     1.0  0.43406  0.98694  0.50357  1.0000
  H   H1901     1.0  0.08888  0.85201  0.38423  1.0000
  H   H1902     1.0  0.12133  0.49865  0.50983  1.0000
  C   C2358     1.0  0.42499  0.98617  0.52075  1.0000
  H   H1903     1.0  0.35654  0.98631  0.50584  1.0000
  C   C2359     1.0  0.16857  0.98685  0.48496  1.0000
  C   C2360     1.0  0.11428  0.49148  0.52153  1.0000
  C   C2361     1.0  0.47204  0.84305  0.38397  1.0000
  H   H1904     1.0  0.31448  0.98619  0.58387  1.0000
  Fe  Fe150     1.0  0.42304  0.89233  0.62739  1.0000
  S   S312      1.0  0.43459  0.91523  0.61218  1.0000
  S   S313      1.0  0.40004  0.88643  0.62165  1.0000
  Fe  Fe151     1.0  0.44169  0.88602  0.65719  1.0000
  S   S314      1.0  0.45466  0.90832  0.64425  1.0000
  S   S315      1.0  0.44723  0.87124  0.68358  1.0000
  Fe  Fe152     1.0  0.42895  0.92267  0.63772  1.0000
  S   S316      1.0  0.41419  0.94936  0.64102  1.0000
  Fe  Fe153     1.0  0.45944  0.89890  0.61992  1.0000
  H   H1905     1.0  0.43589  0.80238  0.77721  1.0000
  S   S317      1.0  0.41557  0.90117  0.65246  1.0000
  S   S318      1.0  0.44839  0.87508  0.63331  1.0000
  S   S319      1.0  0.40577  0.91160  0.74297  1.0000
  H   H1906     1.0  0.46397  0.91666  0.67763  1.0000
  H   H1907     1.0  0.99816  0.49305  0.70574  1.0000
  H   H1908     1.0  0.03961  0.52974  0.66931  1.0000
  H   H1909     1.0  0.47909  0.98278  0.73754  1.0000
  H   H1910     1.0  0.47037  0.80200  0.71355  1.0000
  Fe  Fe154     1.0  0.09625  0.54549  0.76888  1.0000
  S   S320      1.0  0.12011  0.55569  0.75516  1.0000
  S   S321      1.0  0.06907  0.55990  0.76654  1.0000
  H   H1911     1.0  0.35501  0.91256  0.61196  1.0000
  S   S322      1.0  0.14197  0.51690  0.77101  1.0000
  Fe  Fe155     1.0  0.99276  0.49304  0.75441  1.0000
  C   C2362     1.0  0.00953  0.57577  0.66185  1.0000
  Fe  Fe156     1.0  0.13064  0.53008  0.74744  1.0000
  S   S323      1.0  0.14718  0.52863  0.72078  1.0000
  C   C2363     1.0  0.05320  0.62711  0.63082  1.0000
  S   S324      1.0  0.10597  0.52104  0.75901  1.0000
  S   S325      1.0  0.03377  0.50198  0.65641  1.0000
  C   C2364     1.0  0.48935  0.87987  0.70887  1.0000
  H   H1912     1.0  0.04223  0.62148  0.65824  1.0000
  C   C2365     1.0  0.32729  0.89749  0.58986  1.0000
  C   C2366     1.0  0.06885  0.51480  0.74008  1.0000
  H   H1913     1.0  0.44705  0.84393  0.75047  1.0000
  H   H1914     1.0  0.40204  0.93937  0.70970  1.0000
  H   H1915     1.0  0.48841  0.81108  0.77812  1.0000
  H   H1916     1.0  0.08173  0.53769  0.64813  1.0000
  C   C2367     1.0  0.40840  0.82205  0.75924  1.0000
  Fe  Fe157     1.0  0.99776  0.53277  0.61284  1.0000
  C   C2368     1.0  0.45700  0.97631  0.76792  1.0000
  C   C2369     1.0  0.05855  0.57079  0.60992  1.0000
  C   C2370     1.0  0.11310  0.51877  0.69922  1.0000
  S   S326      1.0  0.11166  0.51627  0.66732  1.0000
  C   C2371     1.0  0.23010  0.51176  0.73510  1.0000
  C   C2372     1.0  0.13772  0.52462  0.67627  1.0000
  C   C2373     1.0  0.12073  0.52166  0.71117  1.0000
  H   H1917     1.0  0.34218  0.86233  0.62901  1.0000
  H   H1918     1.0  0.49016  0.98274  0.63386  1.0000
  P   P82       1.0  0.20828  0.51400  0.74792  1.0000
  S   S327      1.0  0.15590  0.50829  0.63028  1.0000
  H   H1919     1.0  0.48227  0.89065  0.66768  1.0000
  C   C2374     1.0  0.07959  0.58607  0.72717  1.0000
  S   S328      1.0  0.43664  0.89684  0.77650  1.0000
  C   C2375     1.0  0.03984  0.57102  0.70654  1.0000
  C   C2376     1.0  0.38363  0.94927  0.60811  1.0000
  H   H1920     1.0  0.40451  0.83432  0.71693  1.0000
  C   C2377     1.0  0.18468  0.49781  0.74323  1.0000
  H   H1921     1.0  0.45981  0.96226  0.77088  1.0000
  H   H1922     1.0  0.47684  0.97140  0.67495  1.0000
  C   C2378     1.0  0.41169  0.84954  0.73017  1.0000
  H   H1923     1.0  0.41194  0.87590  0.77393  1.0000
  H   H1924     1.0  0.42412  0.98001  0.60854  1.0000
  H   H1925     1.0  0.24716  0.87640  0.59840  1.0000
  H   H1926     1.0  0.01540  0.53854  0.69308  1.0000
  C   C2379     1.0  0.13698  0.52580  0.70582  1.0000
  C   C2380     1.0  0.00448  0.61235  0.60832  1.0000
  H   H1927     1.0  0.33189  0.89304  0.63109  1.0000
  C   C2381     1.0  0.09755  0.58153  0.72146  1.0000
  S   S329      1.0  0.00406  0.54092  0.63371  1.0000
  C   C2382     1.0  0.14538  0.52746  0.68830  1.0000
  C   C2383     1.0  0.43764  0.95598  0.68939  1.0000
  C   C2384     1.0  0.07793  0.51749  0.61231  1.0000
  H   H1928     1.0  0.00074  0.58841  0.65991  1.0000
  H   H1929     1.0  0.41265  0.86034  0.71898  1.0000
  C   C2385     1.0  0.35099  0.97612  0.66300  1.0000
  H   H1930     1.0  0.47712  0.89576  0.72777  1.0000
  H   H1931     1.0  0.26396  0.90719  0.63631  1.0000
  H   H1932     1.0  0.06381  0.57391  0.61907  1.0000
  C   C2386     1.0  0.02906  0.53720  0.77393  1.0000
  C   C2387     1.0  0.03987  0.54915  0.76806  1.0000
  C   C2388     1.0  0.05607  0.54464  0.77257  1.0000
  C   C2389     1.0  0.41357  0.97838  0.69950  1.0000
  C   C2390     1.0  0.48165  0.89158  0.68071  1.0000
  H   H1933     1.0  0.01649  0.54072  0.77061  1.0000
  H   H1934     1.0  0.03562  0.56191  0.76023  1.0000
  H   H1935     1.0  0.34739  0.97400  0.67704  1.0000
  C   C2391     1.0  0.45261  0.96786  0.64649  1.0000
  C   C2392     1.0  0.39908  0.88312  0.60161  1.0000
  H   H1936     1.0  0.46331  0.82593  0.72889  1.0000
  C   C2393     1.0  0.05465  0.62342  0.61481  1.0000
  H   H1937     1.0  0.43898  0.98254  0.68533  1.0000
  H   H1938     1.0  0.09138  0.51414  0.63254  1.0000
  Fe  Fe158     1.0  0.12999  0.54198  0.77969  1.0000
  H   H1939     1.0  0.37158  0.88482  0.60910  1.0000
  Fe  Fe159     1.0  0.11921  0.51530  0.60647  1.0000
  H   H1940     1.0  0.10062  0.51533  0.70350  1.0000
  S   S330      1.0  0.40968  0.93513  0.77597  1.0000
  C   C2394     1.0  0.07504  0.57668  0.66875  1.0000
  H   H1941     1.0  0.40106  0.81010  0.74288  1.0000
  C   C2395     1.0  0.03400  0.57030  0.59931  1.0000
  H   H1942     1.0  0.05565  0.49382  0.74689  1.0000
  H   H1943     1.0  0.09048  0.56473  0.62996  1.0000
  C   C2396     1.0  0.43578  0.88269  0.69996  1.0000
  C   C2397     1.0  0.44291  0.88072  0.71426  1.0000
  C   C2398     1.0  0.43403  0.88995  0.72731  1.0000
  C   C2399     1.0  0.41752  0.90048  0.72652  1.0000
  C   C2400     1.0  0.41008  0.90195  0.71258  1.0000
  C   C2401     1.0  0.41934  0.89339  0.69915  1.0000
  H   H1944     1.0  0.45547  0.87240  0.71504  1.0000
  H   H1945     1.0  0.43979  0.88865  0.73812  1.0000
  H   H1946     1.0  0.39720  0.90986  0.71206  1.0000
  H   H1947     1.0  0.41347  0.89464  0.68849  1.0000
  H   H1948     1.0  0.26044  0.96223  0.61760  1.0000
  C   C2402     1.0  0.05178  0.52827  0.71241  1.0000
  C   C2403     1.0  0.20616  0.53242  0.77262  1.0000
  C   C2404     1.0  0.40703  0.83489  0.72904  1.0000
  H   H1949     1.0  0.21081  0.53404  0.71156  1.0000
  H   H1950     1.0  0.23828  0.52640  0.74844  1.0000
  C   C2405     1.0  0.08204  0.57804  0.65099  1.0000
  C   C2406     1.0  0.07123  0.53060  0.72868  1.0000
  Fe  Fe160     1.0  0.12723  0.51421  0.64051  1.0000
  C   C2407     1.0  0.07960  0.51371  0.62959  1.0000
  C   C2408     1.0  0.44334  0.95662  0.64498  1.0000
  C   C2409     1.0  0.06200  0.51839  0.60879  1.0000
  H   H1951     1.0  0.45092  0.95209  0.68275  1.0000
  H   H1952     1.0  0.10595  0.58619  0.72634  1.0000
  C   C2410     1.0  0.06269  0.53746  0.71471  1.0000
  H   H1953     1.0  0.04454  0.54994  0.64095  1.0000
  C   C2411     1.0  0.03138  0.54271  0.66731  1.0000
  H   H1954     1.0  0.11406  0.52046  0.72453  1.0000
  C   C2412     1.0  0.40319  0.96605  0.70598  1.0000
  H   H1955     1.0  0.38662  0.97302  0.63043  1.0000
  H   H1956     1.0  0.24628  0.93743  0.63238  1.0000
  H   H1957     1.0  0.17690  0.51066  0.73916  1.0000
  C   C2413     1.0  0.04635  0.61115  0.61382  1.0000
  H   H1958     1.0  0.43246  0.93040  0.69481  1.0000
  H   H1959     1.0  0.02017  0.57286  0.60014  1.0000
  C   C2414     1.0  0.43723  0.84523  0.77755  1.0000
  C   C2415     1.0  0.25913  0.89836  0.58698  1.0000
  C   C2416     1.0  0.49087  0.87813  0.69192  1.0000
  Fe  Fe161     1.0  0.42220  0.91718  0.75768  1.0000
  C   C2417     1.0  0.06980  0.56256  0.59705  1.0000
  H   H1960     1.0  0.38508  0.97647  0.76394  1.0000
  C   C2418     1.0  0.35632  0.92408  0.63179  1.0000
  C   C2419     1.0  0.04817  0.51449  0.62247  1.0000
  C   C2420     1.0  0.47121  0.90649  0.68632  1.0000
  H   H1961     1.0  0.20387  0.54414  0.76261  1.0000
  C   C2421     1.0  0.38299  0.88294  0.59895  1.0000
  H   H1962     1.0  0.35442  0.93812  0.65101  1.0000
  S   S331      1.0  0.12151  0.53608  0.61785  1.0000
  H   H1963     1.0  0.05492  0.58267  0.72646  1.0000
  S   S332      1.0  0.00556  0.50412  0.62381  1.0000
  C   C2422     1.0  0.06599  0.50914  0.64325  1.0000
  C   C2423     1.0  0.04117  0.49811  0.58663  1.0000
  C   C2424     1.0  0.46346  0.85393  0.75949  1.0000
  C   C2425     1.0  0.08440  0.56399  0.64356  1.0000
  C   C2426     1.0  0.05788  0.50580  0.73774  1.0000
  H   H1964     1.0  0.37846  0.96761  0.66236  1.0000
  S   S333      1.0  0.01021  0.54320  0.58537  1.0000
  H   H1965     1.0  0.06978  0.53495  0.67925  1.0000
  C   C2427     1.0  0.44904  0.84719  0.76152  1.0000
  H   H1966     1.0  0.03596  0.51516  0.61965  1.0000
  C   C2428     1.0  0.42727  0.94377  0.69610  1.0000
  H   H1967     1.0  0.34039  0.97149  0.59641  1.0000
  C   C2429     1.0  0.10470  0.57053  0.70984  1.0000
  C   C2430     1.0  0.26384  0.50877  0.71476  1.0000
  H   H1968     1.0  0.08896  0.59238  0.76782  1.0000
  C   C2431     1.0  0.19146  0.50377  0.68030  1.0000
  H   H1969     1.0  0.32395  0.95371  0.65024  1.0000
  C   C2432     1.0  0.12161  0.52015  0.68179  1.0000
  H   H1970     1.0  0.04447  0.53368  0.70223  1.0000
  H   H1971     1.0  0.03338  0.55447  0.73212  1.0000
  S   S334      1.0  0.44428  0.93032  0.74426  1.0000
  S   S335      1.0  0.12318  0.49374  0.62982  1.0000
  H   H1972     1.0  0.07375  0.58752  0.67441  1.0000
  S   S336      1.0  0.42897  0.97587  0.75579  1.0000
  C   C2433     1.0  0.04938  0.51256  0.72387  1.0000
  H   H1973     1.0  0.07922  0.53762  0.73128  1.0000
  C   C2434     1.0  0.42610  0.96290  0.64329  1.0000
  Fe  Fe162     1.0  0.00969  0.51252  0.64576  1.0000
  C   C2435     1.0  0.25879  0.51774  0.72813  1.0000
  H   H1974     1.0  0.44953  0.94316  0.64520  1.0000
  C   C2436     1.0  0.05037  0.50912  0.63965  1.0000
  H   H1975     1.0  0.04142  0.58990  0.68202  1.0000
  H   H1976     1.0  0.26787  0.52361  0.73060  1.0000
  C   C2437     1.0  0.47338  0.96158  0.70265  1.0000
  C   C2438     1.0  0.04059  0.57486  0.61107  1.0000
  C   C2439     1.0  0.03311  0.58507  0.69404  1.0000
  C   C2440     1.0  0.06873  0.57960  0.72133  1.0000
  C   C2441     1.0  0.48264  0.96261  0.68552  1.0000
  H   H1977     1.0  0.05967  0.63661  0.63156  1.0000
  C   C2442     1.0  0.37309  0.97546  0.63669  1.0000
  H   H1978     1.0  0.48660  0.86460  0.63034  1.0000
  H   H1979     1.0  0.47396  0.95038  0.72953  1.0000
  C   C2443     1.0  0.03653  0.60240  0.62887  1.0000
  H   H1980     1.0  0.01521  0.61871  0.60296  1.0000
  C   C2444     1.0  0.01537  0.59275  0.69685  1.0000
  C   C2445     1.0  0.20022  0.49542  0.74853  1.0000
  H   H1981     1.0  0.36952  0.91697  0.63237  1.0000
  C   C2446     1.0  0.07943  0.54876  0.65378  1.0000
  C   C2447     1.0  0.01090  0.57260  0.72468  1.0000
  C   C2448     1.0  0.04339  0.61857  0.64584  1.0000
  C   C2449     1.0  0.43104  0.97478  0.59724  1.0000
  H   H1982     1.0  0.41575  0.95585  0.60304  1.0000
  C   C2450     1.0  0.17238  0.56222  0.72103  1.0000
  C   C2451     1.0  0.41487  0.85042  0.74575  1.0000
  H   H1983     1.0  0.25596  0.49450  0.70103  1.0000
  H   H1984     1.0  0.38976  0.96969  0.71234  1.0000
  H   H1985     1.0  0.06766  0.50548  0.65655  1.0000
  H   H1986     1.0  0.41792  0.86214  0.74651  1.0000
  H   H1987     1.0  0.46048  0.96962  0.70549  1.0000
  H   H1988     1.0  0.19108  0.55930  0.69735  1.0000
  H   H1989     1.0  0.09963  0.55561  0.69489  1.0000
  H   H1990     1.0  0.17519  0.50921  0.66196  1.0000
  H   H1991     1.0  0.04040  0.50604  0.72230  1.0000
  C   C2452     1.0  0.20856  0.51590  0.76932  1.0000
  C   C2453     1.0  0.46759  0.98500  0.77163  1.0000
  Fe  Fe163     1.0  0.00032  0.50992  0.77882  1.0000
  C   C2454     1.0  0.01778  0.54764  0.68070  1.0000
  C   C2455     1.0  0.07582  0.56884  0.70940  1.0000
  C   C2456     1.0  0.03411  0.55428  0.65116  1.0000
  S   S337      1.0  0.09592  0.51995  0.59512  1.0000
  C   C2457     1.0  0.02861  0.56516  0.72210  1.0000
  C   C2458     1.0  0.08767  0.58681  0.78163  1.0000
  C   C2459     1.0  0.39135  0.93367  0.60273  1.0000
  C   C2460     1.0  0.41006  0.94883  0.70440  1.0000
  H   H1992     1.0  0.46593  0.96298  0.64789  1.0000
  C   C2461     1.0  0.02316  0.57094  0.64828  1.0000
  H   H1993     1.0  0.34858  0.94117  0.58629  1.0000
  P   P83       1.0  0.06230  0.55952  0.70235  1.0000
  H   H1994     1.0  0.47218  0.85615  0.74697  1.0000
  C   C2462     1.0  0.06150  0.52818  0.78280  1.0000
  Fe  Fe164     1.0  0.14979  0.52851  0.60635  1.0000
  H   H1995     1.0  0.01015  0.60340  0.68707  1.0000
  C   C2463     1.0  0.03507  0.60628  0.64488  1.0000
  C   C2464     1.0  0.48905  0.97247  0.59185  1.0000
  Fe  Fe165     1.0  0.45767  0.91162  0.76489  1.0000
  H   H1996     1.0  0.47789  0.93476  0.75737  1.0000
  C   C2465     1.0  0.07253  0.54729  0.67157  1.0000
  C   C2466     1.0  0.47325  0.82596  0.71712  1.0000
  H   H1997     1.0  0.15779  0.53103  0.68401  1.0000
  Fe  Fe166     1.0  0.43301  0.94672  0.76410  1.0000
  H   H1998     1.0  0.30865  0.94830  0.63107  1.0000
  H   H1999     1.0  0.26648  0.89536  0.59698  1.0000
  H   H2000     1.0  0.48149  0.86196  0.66195  1.0000
  C   C2467     1.0  0.33816  0.86731  0.60305  1.0000
  C   C2468     1.0  0.33791  0.87214  0.61814  1.0000
  C   C2469     1.0  0.33228  0.88963  0.61915  1.0000
  C   C2470     1.0  0.32732  0.90251  0.60485  1.0000
  S   S338      1.0  0.48536  0.89734  0.60094  1.0000
  P   P84       1.0  0.31933  0.92499  0.60651  1.0000
  C   C2471     1.0  0.29625  0.92887  0.61532  1.0000
  C   C2472     1.0  0.33052  0.92971  0.62024  1.0000
  C   C2473     1.0  0.34792  0.92136  0.62043  1.0000
  C   C2474     1.0  0.25207  0.50134  0.71148  1.0000
  C   C2475     1.0  0.34776  0.93588  0.64239  1.0000
  C   C2476     1.0  0.33062  0.94467  0.64192  1.0000
  C   C2477     1.0  0.32198  0.94155  0.63097  1.0000
  C   C2478     1.0  0.28613  0.94597  0.61325  1.0000
  C   C2479     1.0  0.26819  0.94902  0.61939  1.0000
  C   C2480     1.0  0.26020  0.93506  0.62770  1.0000
  C   C2481     1.0  0.27017  0.91802  0.62991  1.0000
  C   C2482     1.0  0.28812  0.91491  0.62376  1.0000
  P   P85       1.0  0.41769  0.83798  0.78039  1.0000
  H   H2001     1.0  0.03783  0.50905  0.59274  1.0000
  H   H2002     1.0  0.07410  0.59402  0.73671  1.0000
  H   H2003     1.0  0.15601  0.56172  0.74653  1.0000
  H   H2004     1.0  0.19488  0.51634  0.67564  1.0000
  H   H2005     1.0  0.11864  0.56654  0.70578  1.0000
  C   C2483     1.0  0.00696  0.56421  0.67799  1.0000
  H   H2006     1.0  0.34262  0.85378  0.60218  1.0000
  C   C2484     1.0  0.46970  0.90803  0.70322  1.0000
  C   C2485     1.0  0.18787  0.55438  0.71128  1.0000
  H   H2007     1.0  0.39704  0.92239  0.61164  1.0000
  H   H2008     1.0  0.06228  0.63002  0.60314  1.0000
  C   C2486     1.0  0.33271  0.87995  0.58902  1.0000
  H   H2009     1.0  0.06042  0.52185  0.59551  1.0000
  S   S339      1.0  0.00546  0.51520  0.74974  1.0000
  C   C2487     1.0  0.00595  0.59667  0.62096  1.0000
  H   H2010     1.0  0.29209  0.95694  0.60669  1.0000
  H   H2011     1.0  0.14417  0.52602  0.66274  1.0000
  C   C2488     1.0  0.23525  0.50284  0.72158  1.0000
  C   C2489     1.0  0.32320  0.93918  0.58522  1.0000
  H   H2012     1.0  0.29552  0.90159  0.62550  1.0000
  C   C2490     1.0  0.37628  0.96406  0.59669  1.0000
  H   H2013     1.0  0.04770  0.60838  0.60133  1.0000
  P   P86       1.0  0.02640  0.58608  0.62744  1.0000
  C   C2491     1.0  0.09388  0.56427  0.70377  1.0000
  H   H2014     1.0  0.48060  0.92592  0.61736  1.0000
  H   H2015     1.0  0.07509  0.50988  0.75108  1.0000
  C   C2492     1.0  0.07023  0.56127  0.67922  1.0000
  C   C2493     1.0  0.41822  0.98046  0.64287  1.0000
  H   H2016     1.0  0.38368  0.94952  0.62117  1.0000
  C   C2494     1.0  0.00423  0.58633  0.71206  1.0000
  H   H2017     1.0  0.08608  0.58979  0.64307  1.0000
  H   H2018     1.0  0.17508  0.53611  0.76089  1.0000
  C   C2495     1.0  0.19472  0.53340  0.73743  1.0000
  C   C2496     1.0  0.17901  0.54125  0.74708  1.0000
  C   C2497     1.0  0.24823  0.88770  0.58781  1.0000
  H   H2019     1.0  0.08957  0.49460  0.77565  1.0000
  C   C2498     1.0  0.24197  0.51927  0.73825  1.0000
  C   C2499     1.0  0.19903  0.54004  0.71943  1.0000
  H   H2020     1.0  0.16361  0.57316  0.71470  1.0000
  C   C2500     1.0  0.16804  0.55572  0.73893  1.0000
  H   H2021     1.0  0.47734  0.86391  0.77178  1.0000
  C   C2501     1.0  0.47858  0.89463  0.71456  1.0000
  H   H2022     1.0  0.00228  0.56737  0.73633  1.0000
  H   H2023     1.0  0.47849  0.97759  0.77752  1.0000
  H   H2024     1.0  0.48470  0.96124  0.59168  1.0000
  H   H2025     1.0  0.46137  0.91943  0.70767  1.0000
  H   H2026     1.0  0.40622  0.81164  0.77052  1.0000
  H   H2027     1.0  0.99634  0.56797  0.68833  1.0000
  C   C2502     1.0  0.47718  0.81250  0.70845  1.0000
  H   H2028     1.0  0.02758  0.59985  0.65663  1.0000
  S   S340      1.0  0.16774  0.54689  0.59463  1.0000
  S   S341      1.0  0.48561  0.89769  0.76025  1.0000
  H   H2029     1.0  0.27685  0.50768  0.70687  1.0000
  C   C2503     1.0  0.40520  0.82123  0.74363  1.0000
  C   C2504     1.0  0.41397  0.83636  0.76023  1.0000
  C   C2505     1.0  0.43080  0.97327  0.69093  1.0000
  H   H2030     1.0  0.47847  0.84995  0.71722  1.0000
  C   C2506     1.0  0.48100  0.95064  0.71627  1.0000
  S   S342      1.0  0.14712  0.50955  0.59264  1.0000
  H   H2031     1.0  0.40506  0.97725  0.73555  1.0000
  C   C2507     1.0  0.42622  0.96122  0.59402  1.0000
  C   C2508     1.0  0.36843  0.97258  0.65479  1.0000
  H   H2032     1.0  0.99257  0.57635  0.63675  1.0000
  H   H2033     1.0  0.08364  0.55905  0.59647  1.0000
  C   C2509     1.0  0.99184  0.58858  0.62725  1.0000
  C   C2510     1.0  0.48176  0.83972  0.71033  1.0000
  C   C2511     1.0  0.44296  0.98592  0.76023  1.0000
  Fe  Fe167     1.0  0.11609  0.51001  0.78346  1.0000
  C   C2512     1.0  0.48968  0.81274  0.69302  1.0000
  C   C2513     1.0  0.34291  0.98507  0.63494  1.0000
  C   C2514     1.0  0.47846  0.98420  0.60189  1.0000
  C   C2515     1.0  0.41388  0.88021  0.58859  1.0000
  H   H2034     1.0  0.42634  0.88022  0.59056  1.0000
  C   C2516     1.0  0.36045  0.98150  0.62659  1.0000
  H   H2035     1.0  0.22624  0.49719  0.71872  1.0000
  H   H2036     1.0  0.46599  0.98205  0.60967  1.0000
  C   C2517     1.0  0.18034  0.49977  0.67260  1.0000
  C   C2518     1.0  0.46644  0.85826  0.77353  1.0000
  C   C2519     1.0  0.39161  0.93250  0.58605  1.0000
  H   H2037     1.0  0.40498  0.98541  0.64133  1.0000
  C   C2520     1.0  0.04531  0.56207  0.58641  1.0000
  C   C2521     1.0  0.05808  0.48800  0.58432  1.0000
  H   H2038     1.0  0.06764  0.49127  0.58886  1.0000
  Fe  Fe168     1.0  0.15124  0.48982  0.61733  1.0000
  C   C2522     1.0  0.44447  0.98190  0.58569  1.0000
  C   C2523     1.0  0.48606  0.98640  0.72439  1.0000
  H   H2039     1.0  0.20591  0.49510  0.70058  1.0000
  C   C2524     1.0  0.19773  0.49176  0.69428  1.0000
  H   H2040     1.0  0.11506  0.58113  0.78073  1.0000
  C   C2525     1.0  0.06319  0.55826  0.58525  1.0000
  H   H2041     1.0  0.38696  0.89846  0.78295  1.0000
  C   C2526     1.0  0.40038  0.87200  0.78232  1.0000
  C   C2527     1.0  0.44469  0.98541  0.64598  1.0000
  H   H2042     1.0  0.21390  0.48814  0.78065  1.0000
  C   C2528     1.0  0.33823  0.98246  0.65307  1.0000
  H   H2043     1.0  0.32920  0.49400  0.73999  1.0000
  P   P87       1.0  0.36686  0.98464  0.60317  1.0000
  C   C2529     1.0  0.21197  0.50103  0.78259  1.0000
  C   C2530     1.0  0.38185  0.98674  0.75289  1.0000
  C   C2531     1.0  0.33732  0.98554  0.59232  1.0000
  H   H2044     1.0  0.32470  0.98537  0.65944  1.0000
  S   S343      1.0  0.44829  0.92910  0.78364  1.0000
  C   C2532     1.0  0.37387  0.64448  0.94786  1.0000
  H   H2045     1.0  0.46916  0.88401  0.82587  1.0000
  H   H2046     1.0  0.46389  0.74649  0.94507  1.0000
  C   C2533     1.0  0.47507  0.80957  0.81059  1.0000
  H   H2047     1.0  0.45213  0.79938  0.81862  1.0000
  C   C2534     1.0  0.06096  0.56640  0.85185  1.0000
  Fe  Fe169     1.0  0.42612  0.91584  0.79371  1.0000
  S   S344      1.0  0.41866  0.90741  0.82266  1.0000
  H   H2048     1.0  0.43898  0.77421  0.79861  1.0000
  C   C2535     1.0  0.45657  0.56378  0.95102  1.0000
  Fe  Fe170     1.0  0.42956  0.81514  0.87122  1.0000
  S   S345      1.0  0.45691  0.80564  0.85822  1.0000
  S   S346      1.0  0.41104  0.82959  0.85349  1.0000
  Fe  Fe171     1.0  0.43704  0.80050  0.90748  1.0000
  S   S347      1.0  0.46500  0.78969  0.89717  1.0000
  H   H2049     1.0  0.33811  0.49189  0.79302  1.0000
  Fe  Fe172     1.0  0.46390  0.81498  0.87783  1.0000
  Fe  Fe173     1.0  0.45549  0.78110  0.87866  1.0000
  S   S348      1.0  0.47014  0.75504  0.87312  1.0000
  S   S349      1.0  0.43657  0.82670  0.88937  1.0000
  S   S350      1.0  0.42740  0.78972  0.89043  1.0000
  Fe  Fe174     1.0  0.43665  0.64369  0.88869  1.0000
  S   S351      1.0  0.46120  0.63532  0.89882  1.0000
  S   S352      1.0  0.41944  0.62416  0.89825  1.0000
  Fe  Fe175     1.0  0.44375  0.67936  0.86959  1.0000
  S   S353      1.0  0.46896  0.67366  0.87774  1.0000
  S   S354      1.0  0.43225  0.70673  0.85624  1.0000
  H   H2050     1.0  0.05469  0.50386  0.79709  1.0000
  C   C2536     1.0  0.46046  0.62605  0.95490  1.0000
  Fe  Fe176     1.0  0.45491  0.66199  0.90379  1.0000
  S   S355      1.0  0.46184  0.66741  0.92603  1.0000
  S   S356      1.0  0.44953  0.65403  0.86115  1.0000
  S   S357      1.0  0.42916  0.66943  0.89636  1.0000
  Fe  Fe177     1.0  0.22275  0.56423  0.84945  1.0000
  S   S358      1.0  0.20140  0.56243  0.87336  1.0000
  S   S359      1.0  0.23137  0.58931  0.83602  1.0000
  Fe  Fe178     1.0  0.22669  0.52692  0.84768  1.0000
  S   S360      1.0  0.20632  0.52201  0.87162  1.0000
  C   C2537     1.0  0.26850  0.53334  0.81006  1.0000
  Fe  Fe179     1.0  0.19132  0.54810  0.85978  1.0000
  Fe  Fe180     1.0  0.21850  0.53655  0.88254  1.0000
  S   S361      1.0  0.22722  0.52482  0.90799  1.0000
  H   H2051     1.0  0.38134  0.54955  0.89728  1.0000
  S   S362      1.0  0.24032  0.53933  0.85935  1.0000
  C   C2538     1.0  0.42822  0.98256  0.80781  1.0000
  C   C2539     1.0  0.46681  0.51615  0.88028  1.0000
  S   S363      1.0  0.20254  0.56955  0.96526  1.0000
  C   C2540     1.0  0.07587  0.53078  0.83413  1.0000
  H   H2052     1.0  0.99844  0.58379  0.80445  1.0000
  Fe  Fe181     1.0  0.35353  0.60143  0.85884  1.0000
  S   S364      1.0  0.36291  0.57270  0.86870  1.0000
  S   S365      1.0  0.36720  0.62333  0.85402  1.0000
  Fe  Fe182     1.0  0.31950  0.59718  0.85384  1.0000
  S   S366      1.0  0.32565  0.56843  0.86377  1.0000
  S   S367      1.0  0.29557  0.61305  0.84356  1.0000
  Fe  Fe183     1.0  0.33570  0.57393  0.88385  1.0000
  S   S368      1.0  0.33133  0.55768  0.91079  1.0000
  Fe  Fe184     1.0  0.35233  0.56903  0.84785  1.0000
  S   S369      1.0  0.36508  0.54806  0.83270  1.0000
  S   S370      1.0  0.32688  0.60289  0.87576  1.0000
  S   S371      1.0  0.34563  0.59770  0.83617  1.0000
  H   H2053     1.0  0.09291  0.54321  0.87299  1.0000
  C   C2541     1.0  0.34459  0.56101  0.92238  1.0000
  C   C2542     1.0  0.34525  0.55085  0.93906  1.0000
  C   C2543     1.0  0.35385  0.55484  0.94943  1.0000
  C   C2544     1.0  0.36217  0.56869  0.94304  1.0000
  C   C2545     1.0  0.36293  0.57787  0.92575  1.0000
  C   C2546     1.0  0.35383  0.57424  0.91549  1.0000
  H   H2054     1.0  0.33873  0.54019  0.94414  1.0000
  H   H2055     1.0  0.35396  0.54723  0.96245  1.0000
  H   H2056     1.0  0.36950  0.58852  0.92068  1.0000
  H   H2057     1.0  0.35336  0.58216  0.90257  1.0000
  C   C2547     1.0  0.36574  0.52688  0.84575  1.0000
  C   C2548     1.0  0.36035  0.52431  0.86380  1.0000
  C   C2549     1.0  0.36159  0.50738  0.87416  1.0000
  C   C2550     1.0  0.42430  0.78536  0.82044  1.0000
  H   H2058     1.0  0.36918  0.75934  0.95229  1.0000
  C   C2551     1.0  0.37191  0.51241  0.83811  1.0000
  H   H2059     1.0  0.35544  0.53537  0.86982  1.0000
  C   C2552     1.0  0.46500  0.56895  0.93375  1.0000
  C   C2553     1.0  0.36982  0.86287  0.80313  1.0000
  H   H2060     1.0  0.37597  0.51434  0.82413  1.0000
  C   C2554     1.0  0.37092  0.88034  0.79789  1.0000
  H   H2061     1.0  0.16515  0.60025  0.86216  1.0000
  C   C2555     1.0  0.31515  0.63992  0.93257  1.0000
  C   C2556     1.0  0.16207  0.49240  0.83119  1.0000
  C   C2557     1.0  0.47819  0.62511  0.95189  1.0000
  C   C2558     1.0  0.24958  0.59465  0.83894  1.0000
  C   C2559     1.0  0.25232  0.61131  0.83069  1.0000
  C   C2560     1.0  0.26655  0.61644  0.83221  1.0000
  C   C2561     1.0  0.27829  0.60505  0.84209  1.0000
  C   C2562     1.0  0.27558  0.58829  0.85059  1.0000
  C   C2563     1.0  0.26129  0.58303  0.84887  1.0000
  H   H2062     1.0  0.24339  0.62036  0.82299  1.0000
  H   H2063     1.0  0.26846  0.62940  0.82566  1.0000
  H   H2064     1.0  0.28447  0.57937  0.85839  1.0000
  H   H2065     1.0  0.25943  0.57002  0.85505  1.0000
  C   C2564     1.0  0.22019  0.53756  0.92364  1.0000
  C   C2565     1.0  0.22886  0.53320  0.93733  1.0000
  C   C2566     1.0  0.22329  0.54285  0.95024  1.0000
  C   C2567     1.0  0.20913  0.55704  0.94942  1.0000
  C   C2568     1.0  0.20035  0.56132  0.93581  1.0000
  C   C2569     1.0  0.20594  0.55167  0.92286  1.0000
  H   H2066     1.0  0.23997  0.52238  0.93792  1.0000
  H   H2067     1.0  0.23008  0.53940  0.96074  1.0000
  H   H2068     1.0  0.18902  0.57188  0.93543  1.0000
  H   H2069     1.0  0.19909  0.55498  0.91244  1.0000
  H   H2070     1.0  0.26368  0.52334  0.80786  1.0000
  C   C2570     1.0  0.40486  0.62411  0.88592  1.0000
  C   C2571     1.0  0.39509  0.61125  0.89159  1.0000
  C   C2572     1.0  0.38351  0.61080  0.88196  1.0000
  C   C2573     1.0  0.38150  0.62334  0.86665  1.0000
  C   C2574     1.0  0.39110  0.63631  0.86109  1.0000
  C   C2575     1.0  0.40281  0.63665  0.87062  1.0000
  H   H2071     1.0  0.39657  0.60148  0.90337  1.0000
  H   H2072     1.0  0.37622  0.60072  0.88632  1.0000
  H   H2073     1.0  0.38962  0.64604  0.84923  1.0000
  H   H2074     1.0  0.41030  0.64657  0.86608  1.0000
  C   C2576     1.0  0.42839  0.66716  0.94362  1.0000
  C   C2577     1.0  0.44473  0.66879  0.94403  1.0000
  C   C2578     1.0  0.44015  0.53560  0.87308  1.0000
  C   C2579     1.0  0.41160  0.76111  0.94125  1.0000
  H   H2075     1.0  0.42603  0.66562  0.93193  1.0000
  H   H2076     1.0  0.44161  0.95816  0.80073  1.0000
  C   C2580     1.0  0.45926  0.74286  0.86703  1.0000
  C   C2581     1.0  0.44140  0.74788  0.86767  1.0000
  C   C2582     1.0  0.43310  0.73716  0.86361  1.0000
  C   C2583     1.0  0.44268  0.72141  0.85904  1.0000
  C   C2584     1.0  0.46059  0.71699  0.85756  1.0000
  C   C2585     1.0  0.46883  0.72762  0.86162  1.0000
  H   H2077     1.0  0.43397  0.75976  0.87166  1.0000
  H   H2078     1.0  0.41924  0.74071  0.86462  1.0000
  C   C2586     1.0  0.41835  0.66858  0.97392  1.0000
  H   H2079     1.0  0.34134  0.70472  0.90451  1.0000
  C   C2587     1.0  0.41785  0.88532  0.82953  1.0000
  C   C2588     1.0  0.42803  0.87415  0.84112  1.0000
  C   C2589     1.0  0.42654  0.85681  0.84781  1.0000
  C   C2590     1.0  0.41433  0.85074  0.84353  1.0000
  C   C2591     1.0  0.40438  0.86181  0.83163  1.0000
  C   C2592     1.0  0.40631  0.87903  0.82445  1.0000
  H   H2080     1.0  0.43695  0.87898  0.84508  1.0000
  H   H2081     1.0  0.43457  0.84831  0.85659  1.0000
  H   H2082     1.0  0.39490  0.85724  0.82826  1.0000
  H   H2083     1.0  0.39831  0.88770  0.81564  1.0000
  H   H2084     1.0  0.10272  0.58718  0.83102  1.0000
  H   H2085     1.0  0.46816  0.70533  0.85324  1.0000
  H   H2086     1.0  0.30628  0.64130  0.94474  1.0000
  H   H2087     1.0  0.48654  0.69204  0.91850  1.0000
  H   H2088     1.0  0.15878  0.59737  0.89406  1.0000
  H   H2089     1.0  0.36300  0.51642  0.96933  1.0000
  C   C2593     1.0  0.25936  0.55064  0.80677  1.0000
  H   H2090     1.0  0.22714  0.58367  0.87676  1.0000
  C   C2594     1.0  0.03623  0.55469  0.80974  1.0000
  C   C2595     1.0  0.10080  0.57241  0.80652  1.0000
  H   H2091     1.0  0.05010  0.55365  0.80576  1.0000
  C   C2596     1.0  0.10694  0.50855  0.84140  1.0000
  C   C2597     1.0  0.20671  0.53403  0.78896  1.0000
  H   H2092     1.0  0.21045  0.52054  0.81468  1.0000
  C   C2598     1.0  0.40035  0.51072  0.93889  1.0000
  C   C2599     1.0  0.07987  0.51347  0.83261  1.0000
  H   H2093     1.0  0.13828  0.53770  0.84996  1.0000
  P   P88       1.0  0.41801  0.54650  0.88025  1.0000
  C   C2600     1.0  0.40464  0.53067  0.88959  1.0000
  C   C2601     1.0  0.41891  0.55825  0.89552  1.0000
  C   C2602     1.0  0.40867  0.55620  0.91243  1.0000
  C   C2603     1.0  0.41041  0.56468  0.92422  1.0000
  C   C2604     1.0  0.42214  0.57547  0.91920  1.0000
  C   C2605     1.0  0.43235  0.57762  0.90243  1.0000
  C   C2606     1.0  0.43093  0.56887  0.89072  1.0000
  C   C2607     1.0  0.41135  0.51317  0.88846  1.0000
  C   C2608     1.0  0.16697  0.50588  0.81760  1.0000
  C   C2609     1.0  0.38352  0.50640  0.90331  1.0000
  C   C2610     1.0  0.40983  0.56102  0.86173  1.0000
  C   C2611     1.0  0.40859  0.57905  0.85816  1.0000
  C   C2612     1.0  0.40306  0.58986  0.84325  1.0000
  C   C2613     1.0  0.39853  0.58287  0.83190  1.0000
  C   C2614     1.0  0.39972  0.56498  0.83535  1.0000
  C   C2615     1.0  0.40523  0.55409  0.85024  1.0000
  H   H2094     1.0  0.39928  0.54819  0.91666  1.0000
  H   H2095     1.0  0.40238  0.56316  0.93717  1.0000
  H   H2096     1.0  0.42299  0.58257  0.92812  1.0000
  H   H2097     1.0  0.44103  0.58646  0.89835  1.0000
  H   H2098     1.0  0.43901  0.57066  0.87777  1.0000
  H   H2099     1.0  0.42456  0.50879  0.88198  1.0000
  C   C2616     1.0  0.31596  0.56852  0.82308  1.0000
  C   C2617     1.0  0.28068  0.55918  0.81597  1.0000
  H   H2100     1.0  0.41165  0.58496  0.86681  1.0000
  H   H2101     1.0  0.39606  0.55957  0.82662  1.0000
  H   H2102     1.0  0.40580  0.54027  0.85278  1.0000
  H   H2103     1.0  0.11242  0.56693  0.81167  1.0000
  H   H2104     1.0  0.46880  0.82177  0.80329  1.0000
  H   H2105     1.0  0.33402  0.70427  0.95852  1.0000
  H   H2106     1.0  0.39883  0.98651  0.84563  1.0000
  C   C2618     1.0  0.33964  0.57898  0.80167  1.0000
  H   H2107     1.0  0.35761  0.56033  0.78776  1.0000
  H   H2108     1.0  0.11325  0.54830  0.88735  1.0000
  C   C2619     1.0  0.38635  0.75099  0.97019  1.0000
  C   C2620     1.0  0.44414  0.57603  0.95955  1.0000
  C   C2621     1.0  0.42448  0.95434  0.82578  1.0000
  C   C2622     1.0  0.41336  0.81664  0.81391  1.0000
  C   C2623     1.0  0.41533  0.80069  0.82598  1.0000
  H   H2109     1.0  0.34672  0.58917  0.79546  1.0000
  C   C2624     1.0  0.34339  0.63953  0.91340  1.0000
  H   H2110     1.0  0.34616  0.63369  0.88860  1.0000
  C   C2625     1.0  0.33750  0.63547  0.90090  1.0000
  H   H2111     1.0  0.35728  0.50553  0.88808  1.0000
  C   C2626     1.0  0.00043  0.55680  0.81806  1.0000
  H   H2112     1.0  0.32117  0.52096  0.79763  1.0000
  C   C2627     1.0  0.33976  0.69777  0.91801  1.0000
  H   H2113     1.0  0.45704  0.85968  0.80045  1.0000
  H   H2114     1.0  0.05843  0.54031  0.86609  1.0000
  C   C2628     1.0  0.33748  0.70656  0.93104  1.0000
  H   H2115     1.0  0.45975  0.55026  0.95775  1.0000
  H   H2116     1.0  0.29614  0.63440  0.92254  1.0000
  H   H2117     1.0  0.48266  0.72385  0.86071  1.0000
  C   C2629     1.0  0.18898  0.60830  0.85783  1.0000
  H   H2118     1.0  0.19377  0.49907  0.90893  1.0000
  C   C2630     1.0  0.46685  0.83230  0.94372  1.0000
  C   C2631     1.0  0.11638  0.58123  0.85144  1.0000
  C   C2632     1.0  0.14304  0.50279  0.98101  1.0000
  H   H2119     1.0  0.40683  0.82838  0.81862  1.0000
  H   H2120     1.0  0.41015  0.80030  0.83970  1.0000
  H   H2121     1.0  0.42592  0.77303  0.82985  1.0000
  C   C2633     1.0  0.26548  0.56355  0.80970  1.0000
  H   H2122     1.0  0.31590  0.63072  0.89440  1.0000
  C   C2634     1.0  0.28994  0.54179  0.81940  1.0000
  C   C2635     1.0  0.39486  0.76273  0.93930  1.0000
  C   C2636     1.0  0.47737  0.74460  0.93840  1.0000
  C   C2637     1.0  0.10294  0.52581  0.84299  1.0000
  H   H2123     1.0  0.16818  0.51755  0.82035  1.0000
  H   H2124     1.0  0.39159  0.76835  0.92666  1.0000
  C   C2638     1.0  0.37362  0.51021  0.96038  1.0000
  C   C2639     1.0  0.32153  0.59890  0.96215  1.0000
  C   C2640     1.0  0.36227  0.63653  0.94480  1.0000
  H   H2125     1.0  0.48147  0.72079  0.89749  1.0000
  S   S372      1.0  0.14749  0.55534  0.78595  1.0000
  H   H2126     1.0  0.26292  0.50379  0.85589  1.0000
  H   H2127     1.0  0.48159  0.84383  0.89993  1.0000
  C   C2641     1.0  0.21099  0.49429  0.97457  1.0000
  C   C2642     1.0  0.40835  0.98060  0.83576  1.0000
  C   C2643     1.0  0.32180  0.51484  0.82493  1.0000
  C   C2644     1.0  0.47622  0.87247  0.82095  1.0000
  C   C2645     1.0  0.00707  0.57154  0.80874  1.0000
  C   C2646     1.0  0.09939  0.55387  0.86685  1.0000
  C   C2647     1.0  0.37329  0.49541  0.84854  1.0000
  C   C2648     1.0  0.46872  0.78293  0.95520  1.0000
  C   C2649     1.0  0.18705  0.61744  0.94316  1.0000
  C   C2650     1.0  0.23204  0.58070  0.88850  1.0000
  C   C2651     1.0  0.22706  0.59258  0.89928  1.0000
  C   C2652     1.0  0.24306  0.62506  0.87713  1.0000
  C   C2653     1.0  0.25274  0.63651  0.86525  1.0000
  C   C2654     1.0  0.24470  0.65111  0.85430  1.0000
  C   C2655     1.0  0.23399  0.58841  0.91417  1.0000
  C   C2656     1.0  0.24523  0.57236  0.91853  1.0000
  C   C2657     1.0  0.25009  0.56057  0.90778  1.0000
  C   C2658     1.0  0.24349  0.56475  0.89279  1.0000
  C   C2659     1.0  0.20134  0.62209  0.91258  1.0000
  H   H2128     1.0  0.33529  0.67278  0.96624  1.0000
  C   C2660     1.0  0.18369  0.63526  0.94233  1.0000
  C   C2661     1.0  0.18910  0.64655  0.92668  1.0000
  C   C2662     1.0  0.19788  0.64002  0.91185  1.0000
  H   H2129     1.0  0.24967  0.61361  0.88514  1.0000
  H   H2130     1.0  0.26663  0.63378  0.86410  1.0000
  H   H2131     1.0  0.25237  0.65966  0.84478  1.0000
  H   H2132     1.0  0.23058  0.59742  0.92254  1.0000
  H   H2133     1.0  0.24994  0.56896  0.93040  1.0000
  H   H2134     1.0  0.25858  0.54800  0.91130  1.0000
  H   H2135     1.0  0.24693  0.55544  0.88469  1.0000
  C   C2663     1.0  0.09683  0.56432  0.85054  1.0000
  H   H2136     1.0  0.17691  0.64030  0.95382  1.0000
  H   H2137     1.0  0.18647  0.66038  0.92603  1.0000
  H   H2138     1.0  0.20190  0.64901  0.89992  1.0000
  C   C2664     1.0  0.22873  0.60320  0.96149  1.0000
  C   C2665     1.0  0.48388  0.84111  0.82494  1.0000
  H   H2139     1.0  0.21508  0.49122  0.80915  1.0000
  H   H2140     1.0  0.99286  0.56458  0.78548  1.0000
  C   C2666     1.0  0.25826  0.58654  0.96193  1.0000
  C   C2667     1.0  0.24561  0.59737  0.95269  1.0000
  P   P89       1.0  0.28005  0.57824  0.95080  1.0000
  C   C2668     1.0  0.29577  0.58710  0.95524  1.0000
  C   C2669     1.0  0.28488  0.55480  0.95775  1.0000
  C   C2670     1.0  0.30126  0.54563  0.96106  1.0000
  C   C2671     1.0  0.30539  0.52741  0.96492  1.0000
  C   C2672     1.0  0.29319  0.51826  0.96551  1.0000
  C   C2673     1.0  0.27670  0.52730  0.96268  1.0000
  C   C2674     1.0  0.27256  0.54551  0.95878  1.0000
  C   C2675     1.0  0.31019  0.59070  0.94213  1.0000
  C   C2676     1.0  0.32275  0.59691  0.94553  1.0000
  C   C2677     1.0  0.39156  0.63674  0.94538  1.0000
  H   H2141     1.0  0.21255  0.61477  0.85737  1.0000
  C   C2678     1.0  0.42979  0.80203  0.79074  1.0000
  C   C2679     1.0  0.28166  0.58415  0.92755  1.0000
  C   C2680     1.0  0.27930  0.60179  0.91892  1.0000
  C   C2681     1.0  0.28057  0.60659  0.90096  1.0000
  C   C2682     1.0  0.28442  0.59381  0.89148  1.0000
  C   C2683     1.0  0.28736  0.57624  0.89982  1.0000
  C   C2684     1.0  0.28612  0.57137  0.91778  1.0000
  H   H2142     1.0  0.21895  0.61116  0.95426  1.0000
  C   C2685     1.0  0.42391  0.54475  0.97064  1.0000
  H   H2143     1.0  0.29629  0.50416  0.96869  1.0000
  C   C2686     1.0  0.15922  0.55096  0.83885  1.0000
  H   H2144     1.0  0.24849  0.60108  0.93872  1.0000
  H   H2145     1.0  0.31092  0.55250  0.96047  1.0000
  H   H2146     1.0  0.35795  0.85938  0.81118  1.0000
  H   H2147     1.0  0.43144  0.84816  0.80412  1.0000
  H   H2148     1.0  0.26705  0.52019  0.96372  1.0000
  H   H2149     1.0  0.25978  0.55233  0.95649  1.0000
  H   H2150     1.0  0.31207  0.58838  0.92932  1.0000
  H   H2151     1.0  0.33366  0.59989  0.93531  1.0000
  H   H2152     1.0  0.26851  0.48835  0.94277  1.0000
  H   H2153     1.0  0.17907  0.60317  0.90776  1.0000
  C   C2687     1.0  0.29433  0.58975  0.97182  1.0000
  H   H2154     1.0  0.27648  0.61179  0.92615  1.0000
  H   H2155     1.0  0.27878  0.62018  0.89428  1.0000
  H   H2156     1.0  0.28545  0.59749  0.87762  1.0000
  H   H2157     1.0  0.29087  0.56638  0.89230  1.0000
  H   H2158     1.0  0.28898  0.55766  0.92382  1.0000
  C   C2688     1.0  0.38358  0.67646  0.90751  1.0000
  C   C2689     1.0  0.38748  0.67951  0.88940  1.0000
  C   C2690     1.0  0.39235  0.69491  0.87955  1.0000
  C   C2691     1.0  0.39323  0.70731  0.88777  1.0000
  C   C2692     1.0  0.38900  0.70455  0.90599  1.0000
  C   C2693     1.0  0.38434  0.68888  0.91583  1.0000
  P   P90       1.0  0.39063  0.72068  0.91630  1.0000
  C   C2694     1.0  0.41254  0.71685  0.91907  1.0000
  C   C2695     1.0  0.38533  0.74174  0.90196  1.0000
  C   C2696     1.0  0.39622  0.75351  0.89716  1.0000
  C   C2697     1.0  0.39220  0.76952  0.88561  1.0000
  C   C2698     1.0  0.37738  0.77388  0.87874  1.0000
  C   C2699     1.0  0.36655  0.76220  0.88334  1.0000
  C   C2700     1.0  0.37052  0.74617  0.89487  1.0000
  C   C2701     1.0  0.41571  0.72040  0.93358  1.0000
  C   C2702     1.0  0.43265  0.71818  0.93532  1.0000
  C   C2703     1.0  0.44654  0.71278  0.92243  1.0000
  C   C2704     1.0  0.44355  0.70944  0.90785  1.0000
  C   C2705     1.0  0.42661  0.71139  0.90619  1.0000
  C   C2706     1.0  0.37600  0.71986  0.93735  1.0000
  C   C2707     1.0  0.38025  0.70642  0.95151  1.0000
  C   C2708     1.0  0.36987  0.70612  0.96814  1.0000
  C   C2709     1.0  0.02493  0.57042  0.80445  1.0000
  C   C2710     1.0  0.35055  0.73266  0.95680  1.0000
  C   C2711     1.0  0.36101  0.73301  0.94013  1.0000
  H   H2159     1.0  0.38041  0.66422  0.91497  1.0000
  H   H2160     1.0  0.38732  0.66967  0.88302  1.0000
  H   H2161     1.0  0.39617  0.69697  0.86551  1.0000
  H   H2162     1.0  0.39771  0.71882  0.87981  1.0000
  H   H2163     1.0  0.38151  0.68606  0.92985  1.0000
  H   H2164     1.0  0.40796  0.75033  0.90205  1.0000
  H   H2165     1.0  0.40069  0.77851  0.88178  1.0000
  H   H2166     1.0  0.37440  0.78627  0.86971  1.0000
  H   H2167     1.0  0.35518  0.76551  0.87782  1.0000
  H   H2168     1.0  0.36218  0.73711  0.89810  1.0000
  H   H2169     1.0  0.40519  0.72496  0.94357  1.0000
  H   H2170     1.0  0.43503  0.72058  0.94668  1.0000
  H   H2171     1.0  0.45438  0.70503  0.89794  1.0000
  H   H2172     1.0  0.42461  0.70872  0.89479  1.0000
  H   H2173     1.0  0.39196  0.69645  0.94973  1.0000
  C   C2712     1.0  0.32472  0.58186  0.81452  1.0000
  C   C2713     1.0  0.30930  0.63595  0.91998  1.0000
  H   H2174     1.0  0.33908  0.74291  0.95891  1.0000
  H   H2175     1.0  0.35749  0.74374  0.92961  1.0000
  H   H2176     1.0  0.46248  0.78857  0.93031  1.0000
  C   C2714     1.0  0.31429  0.53450  0.86099  1.0000
  H   H2177     1.0  0.47163  0.75171  0.91285  1.0000
  H   H2178     1.0  0.47083  0.82814  0.95597  1.0000
  H   H2179     1.0  0.11229  0.53035  0.84657  1.0000
  H   H2180     1.0  0.46731  0.85468  0.84449  1.0000
  C   C2715     1.0  0.17093  0.50408  0.80048  1.0000
  H   H2181     1.0  0.36303  0.52805  0.90978  1.0000
  C   C2716     1.0  0.16501  0.56035  0.80735  1.0000
  C   C2717     1.0  0.05232  0.55404  0.86391  1.0000
  H   H2182     1.0  0.11923  0.50006  0.84366  1.0000
  C   C2718     1.0  0.44043  0.84944  0.79165  1.0000
  H   H2183     1.0  0.35975  0.61342  0.93870  1.0000
  H   H2184     1.0  0.28993  0.52694  0.90203  1.0000
  H   H2185     1.0  0.37540  0.49700  0.90851  1.0000
  H   H2186     1.0  0.48251  0.77905  0.95026  1.0000
  C   C2719     1.0  0.32158  0.55238  0.81839  1.0000
  C   C2720     1.0  0.33671  0.54951  0.80555  1.0000
  C   C2721     1.0  0.07138  0.58546  0.79209  1.0000
  H   H2187     1.0  0.48295  0.82849  0.83344  1.0000
  H   H2188     1.0  0.17024  0.51322  0.95451  1.0000
  C   C2722     1.0  0.40078  0.50114  0.89523  1.0000
  C   C2723     1.0  0.05301  0.58416  0.85002  1.0000
  C   C2724     1.0  0.30980  0.53180  0.87912  1.0000
  C   C2725     1.0  0.33844  0.67074  0.93974  1.0000
  H   H2189     1.0  0.42549  0.55321  0.95782  1.0000
  C   C2726     1.0  0.47269  0.84141  0.91234  1.0000
  H   H2190     1.0  0.45335  0.63344  0.94484  1.0000
  H   H2191     1.0  0.41937  0.79662  0.97258  1.0000
  C   C2727     1.0  0.45501  0.85588  0.78964  1.0000
  C   C2728     1.0  0.34569  0.56277  0.79726  1.0000
  C   C2729     1.0  0.46104  0.58634  0.92489  1.0000
  S   S373      1.0  0.10494  0.53408  0.79421  1.0000
  C   C2730     1.0  0.46523  0.52910  0.85018  1.0000
  S   S374      1.0  0.16343  0.54988  0.85924  1.0000
  H   H2192     1.0  0.32726  0.53604  0.85428  1.0000
  C   C2731     1.0  0.03562  0.55937  0.87342  1.0000
  C   C2732     1.0  0.14203  0.54513  0.82193  1.0000
  C   C2733     1.0  0.11938  0.57034  0.86731  1.0000
  H   H2193     1.0  0.02896  0.54978  0.88263  1.0000
  C   C2734     1.0  0.19698  0.61030  0.88353  1.0000
  H   H2194     1.0  0.47127  0.53081  0.83649  1.0000
  C   C2735     1.0  0.43241  0.96441  0.81056  1.0000
  H   H2195     1.0  0.41032  0.51748  0.93091  1.0000
  H   H2196     1.0  0.39382  0.59137  0.82060  1.0000
  C   C2736     1.0  0.31015  0.65108  0.97163  1.0000
  P   P91       1.0  0.30908  0.53587  0.82849  1.0000
  C   C2737     1.0  0.19788  0.50582  0.94942  1.0000
  H   H2197     1.0  0.19924  0.51023  0.93546  1.0000
  C   C2738     1.0  0.37661  0.52385  0.90407  1.0000
  C   C2739     1.0  0.38705  0.53599  0.89701  1.0000
  C   C2740     1.0  0.08447  0.57122  0.81722  1.0000
  H   H2198     1.0  0.35996  0.89038  0.80190  1.0000
  H   H2199     1.0  0.44117  0.54610  0.84545  1.0000
  P   P92       1.0  0.33988  0.64755  0.94534  1.0000
  C   C2741     1.0  0.43951  0.79299  0.95002  1.0000
  S   S375      1.0  0.37017  0.57537  0.95717  1.0000
  C   C2742     1.0  0.33394  0.62729  0.97926  1.0000
  H   H2200     1.0  0.46568  0.77158  0.83644  1.0000
  C   C2743     1.0  0.10496  0.57841  0.84318  1.0000
  H   H2201     1.0  0.40196  0.60379  0.84063  1.0000
  C   C2744     1.0  0.30234  0.53469  0.85159  1.0000
  C   C2745     1.0  0.09541  0.50238  0.83626  1.0000
  H   H2202     1.0  0.19841  0.59708  0.92935  1.0000
  Fe  Fe185     1.0  0.47358  0.64749  0.87204  1.0000
  H   H2203     1.0  0.30478  0.57083  0.83332  1.0000
  C   C2746     1.0  0.29334  0.52915  0.88799  1.0000
  H   H2204     1.0  0.20458  0.54679  0.79153  1.0000
  H   H2205     1.0  0.41138  0.61533  0.93746  1.0000
  H   H2206     1.0  0.42748  0.94026  0.82766  1.0000
  H   H2207     1.0  0.42995  0.84171  0.92844  1.0000
  H   H2208     1.0  0.20331  0.64574  0.86801  1.0000
  H   H2209     1.0  0.39085  0.60018  0.93425  1.0000
  C   C2747     1.0  0.32768  0.50188  0.83868  1.0000
  C   C2748     1.0  0.44808  0.53775  0.85535  1.0000
  H   H2210     1.0  0.44376  0.52304  0.89922  1.0000
  C   C2749     1.0  0.47884  0.60732  0.98092  1.0000
  H   H2211     1.0  0.07127  0.50878  0.82800  1.0000
  C   C2750     1.0  0.20997  0.51920  0.80206  1.0000
  C   C2751     1.0  0.33517  0.49472  0.80575  1.0000
  S   S376      1.0  0.21128  0.55210  0.83513  1.0000
  C   C2752     1.0  0.46560  0.79682  0.81917  1.0000
  C   C2753     1.0  0.44966  0.52479  0.88550  1.0000
  H   H2212     1.0  0.44530  0.61193  0.92640  1.0000
  H   H2213     1.0  0.22528  0.49828  0.94802  1.0000
  H   H2214     1.0  0.45962  0.71093  0.92389  1.0000
  C   C2754     1.0  0.44931  0.83458  0.94390  1.0000
  C   C2755     1.0  0.44346  0.84035  0.92834  1.0000
  H   H2215     1.0  0.46743  0.59042  0.91146  1.0000
  C   C2756     1.0  0.47459  0.51830  0.86262  1.0000
  S   S377      1.0  0.48625  0.82774  0.87104  1.0000
  H   H2216     1.0  0.05973  0.59391  0.84120  1.0000
  H   H2217     1.0  0.40629  0.95456  0.85015  1.0000
  C   C2757     1.0  0.01187  0.54111  0.82362  1.0000
  C   C2758     1.0  0.30718  0.59560  0.97523  1.0000
  H   H2218     1.0  0.34223  0.67341  0.91195  1.0000
  H   H2219     1.0  0.06404  0.53936  0.83079  1.0000
  C   C2759     1.0  0.41519  0.66710  0.95858  1.0000
  H   H2220     1.0  0.40263  0.66560  0.95841  1.0000
  H   H2221     1.0  0.45066  0.84886  0.90051  1.0000
  H   H2222     1.0  0.12324  0.59162  0.84535  1.0000
  H   H2223     1.0  0.09879  0.48914  0.83458  1.0000
  C   C2760     1.0  0.38225  0.75763  0.95375  1.0000
  H   H2224     1.0  0.47408  0.50781  0.88992  1.0000
  C   C2761     1.0  0.28593  0.53179  0.86060  1.0000
  C   C2762     1.0  0.28142  0.52907  0.87873  1.0000
  H   H2225     1.0  0.42847  0.75459  0.95903  1.0000
  C   C2763     1.0  0.38611  0.61254  0.93807  1.0000
  H   H2226     1.0  0.19216  0.60891  0.84398  1.0000
  H   H2227     1.0  0.48788  0.51163  0.85856  1.0000
  C   C2764     1.0  0.45511  0.84414  0.91261  1.0000
  C   C2765     1.0  0.22515  0.62825  0.87829  1.0000
  C   C2766     1.0  0.41847  0.52941  0.97304  1.0000
  C   C2767     1.0  0.14571  0.54407  0.83807  1.0000
  H   H2228     1.0  0.46049  0.67152  0.95970  1.0000
  C   C2768     1.0  0.12633  0.51353  0.98293  1.0000
  C   C2769     1.0  0.44781  0.67048  0.95933  1.0000
  H   H2229     1.0  0.03022  0.60318  0.85798  1.0000
  H   H2230     1.0  0.15914  0.49380  0.84448  1.0000
  C   C2770     1.0  0.11939  0.50117  0.96279  1.0000
  H   H2231     1.0  0.48438  0.63245  0.93971  1.0000
  C   C2771     1.0  0.28354  0.52887  0.81662  1.0000
  C   C2772     1.0  0.43167  0.78606  0.80283  1.0000
  C   C2773     1.0  0.47504  0.85599  0.83136  1.0000
  C   C2774     1.0  0.11076  0.55678  0.87511  1.0000
  P   P93       1.0  0.08264  0.55986  0.83977  1.0000
  H   H2232     1.0  0.22068  0.66563  0.84676  1.0000
  H   H2233     1.0  0.48511  0.64530  0.97445  1.0000
  C   C2775     1.0  0.33575  0.69750  0.94840  1.0000
  C   C2776     1.0  0.18185  0.60504  0.89378  1.0000
  C   C2777     1.0  0.34023  0.67994  0.92231  1.0000
  H   H2234     1.0  0.18303  0.60855  0.95529  1.0000
  C   C2778     1.0  0.22687  0.65441  0.85539  1.0000
  C   C2779     1.0  0.35505  0.71927  0.97082  1.0000
  C   C2780     1.0  0.38399  0.84993  0.79791  1.0000
  H   H2235     1.0  0.22241  0.48978  0.98014  1.0000
  H   H2236     1.0  0.01470  0.58118  0.87860  1.0000
  C   C2781     1.0  0.38652  0.51895  0.95014  1.0000
  C   C2782     1.0  0.38437  0.60001  0.98195  1.0000
  H   H2237     1.0  0.44028  0.83156  0.95609  1.0000
  C   C2783     1.0  0.44040  0.59346  0.95058  1.0000
  H   H2238     1.0  0.38280  0.83652  0.80173  1.0000
  H   H2239     1.0  0.26877  0.52659  0.88560  1.0000
  C   C2784     1.0  0.16884  0.55909  0.82340  1.0000
  C   C2785     1.0  0.08735  0.53708  0.83938  1.0000
  H   H2240     1.0  0.27677  0.53120  0.85368  1.0000
  C   C2786     1.0  0.19581  0.61092  0.92838  1.0000
  C   C2787     1.0  0.40311  0.74954  0.97227  1.0000
  C   C2788     1.0  0.47321  0.78124  0.82927  1.0000
  C   C2789     1.0  0.36845  0.62018  0.94054  1.0000
  H   H2241     1.0  0.28996  0.51530  0.81976  1.0000
  H   H2242     1.0  0.38584  0.53205  0.95103  1.0000
  C   C2790     1.0  0.43313  0.79277  0.96774  1.0000
  C   C2791     1.0  0.02971  0.54008  0.81941  1.0000
  H   H2243     1.0  0.36944  0.65688  0.95158  1.0000
  C   C2792     1.0  0.33632  0.67965  0.95274  1.0000
  C   C2793     1.0  0.21265  0.50271  0.79888  1.0000
  C   C2794     1.0  0.02760  0.57706  0.87118  1.0000
  C   C2795     1.0  0.03633  0.58945  0.85954  1.0000
  C   C2796     1.0  0.32713  0.64153  0.96697  1.0000
  C   C2797     1.0  0.20056  0.61165  0.86551  1.0000
  P   P94       1.0  0.21260  0.61337  0.89353  1.0000
  C   C2798     1.0  0.21710  0.64307  0.86738  1.0000
  H   H2244     1.0  0.41232  0.48752  0.92938  1.0000
  H   H2245     1.0  0.43785  0.62026  0.97367  1.0000
  C   C2799     1.0  0.48171  0.74777  0.92028  1.0000
  C   C2800     1.0  0.39767  0.62094  0.94018  1.0000
  C   C2801     1.0  0.17383  0.60335  0.86809  1.0000
  C   C2802     1.0  0.45734  0.78826  0.94382  1.0000
  C   C2803     1.0  0.32560  0.51113  0.80841  1.0000
  H   H2246     1.0  0.33192  0.60259  0.96490  1.0000
  S   S378      1.0  0.42498  0.79892  0.93599  1.0000
  C   C2804     1.0  0.17029  0.60169  0.88606  1.0000
  S   S379      1.0  0.24056  0.50556  0.83367  1.0000
  H   H2247     1.0  0.31919  0.53163  0.88627  1.0000
  H   H2248     1.0  0.30469  0.66227  0.96245  1.0000
  H   H2249     1.0  0.43100  0.60322  0.95679  1.0000
  H   H2250     1.0  0.28482  0.56945  0.81842  1.0000
  H   H2251     1.0  0.33710  0.72038  0.92768  1.0000
  H   H2252     1.0  0.17240  0.56688  0.79550  1.0000
  H   H2253     1.0  0.05709  0.57628  0.81752  1.0000
  H   H2254     1.0  0.10171  0.52109  0.97535  1.0000
  C   C2805     1.0  0.46235  0.78247  0.97290  1.0000
  H   H2255     1.0  0.17893  0.56487  0.82381  1.0000
  H   H2256     1.0  0.13198  0.53943  0.82127  1.0000
  H   H2257     1.0  0.03852  0.52776  0.82305  1.0000
  H   H2258     1.0  0.40066  0.64310  0.94704  1.0000
  H   H2259     1.0  0.41613  0.52608  0.96215  1.0000
  C   C2806     1.0  0.44868  0.59853  0.93331  1.0000
  H   H2260     1.0  0.37352  0.69575  0.97898  1.0000
  C   C2807     1.0  0.33230  0.64167  0.92945  1.0000
  C   C2808     1.0  0.40139  0.49369  0.93801  1.0000
  H   H2261     1.0  0.35664  0.64098  0.91045  1.0000
  H   H2262     1.0  0.42128  0.76551  0.93014  1.0000
  C   C2809     1.0  0.41569  0.75473  0.95768  1.0000
  C   C2810     1.0  0.32046  0.63374  0.90416  1.0000
  H   H2263     1.0  0.34191  0.53703  0.80213  1.0000
  H   H2264     1.0  0.37626  0.74775  0.98135  1.0000
  C   C2811     1.0  0.44453  0.78757  0.97919  1.0000
  C   C2812     1.0  0.41251  0.96243  0.83842  1.0000
  H   H2265     1.0  0.20399  0.50669  0.84585  1.0000
  H   H2266     1.0  0.47456  0.55949  0.92718  1.0000
  H   H2267     1.0  0.37317  0.60000  0.97750  1.0000
  C   C2813     1.0  0.15167  0.55331  0.80653  1.0000
  H   H2268     1.0  0.25824  0.57695  0.80744  1.0000
  H   H2269     1.0  0.17316  0.53533  0.97851  1.0000
  H   H2270     1.0  0.32004  0.59438  0.81805  1.0000
  C   C2814     1.0  0.22434  0.59846  0.97959  1.0000
  C   C2815     1.0  0.11456  0.51269  0.97385  1.0000
  H   H2271     1.0  0.12869  0.57220  0.87340  1.0000
  C   C2816     1.0  0.42007  0.81738  0.79610  1.0000
  H   H2272     1.0  0.48596  0.67575  0.97074  1.0000
  H   H2273     1.0  0.32514  0.50413  0.85158  1.0000
  H   H2274     1.0  0.48756  0.88690  0.79626  1.0000
  C   C2817     1.0  0.06976  0.57765  0.80980  1.0000
  H   H2275     1.0  0.47098  0.56545  0.97640  1.0000
  C   C2818     1.0  0.47879  0.83521  0.92785  1.0000
  H   H2276     1.0  0.24739  0.55402  0.80223  1.0000
  C   C2819     1.0  0.25360  0.58161  0.98009  1.0000
  H   H2277     1.0  0.48684  0.73699  0.96190  1.0000
  C   C2820     1.0  0.21075  0.49347  0.84525  1.0000
  H   H2278     1.0  0.39852  0.57607  0.97471  1.0000
  C   C2821     1.0  0.36852  0.49288  0.86665  1.0000
  S   S380      1.0  0.02050  0.50648  0.79387  1.0000
  C   C2822     1.0  0.43466  0.67024  0.97431  1.0000
  C   C2823     1.0  0.38613  0.88490  0.78733  1.0000
  H   H2279     1.0  0.31807  0.52041  0.96751  1.0000
  C   C2824     1.0  0.18147  0.50734  0.96029  1.0000
  H   H2280     1.0  0.11030  0.50061  0.95569  1.0000
  H   H2281     1.0  0.00718  0.52956  0.83095  1.0000
  C   C2825     1.0  0.39952  0.85438  0.78782  1.0000
  H   H2282     1.0  0.34694  0.61970  0.97610  1.0000
  C   C2826     1.0  0.10235  0.58039  0.78887  1.0000
  H   H2283     1.0  0.28363  0.58699  0.98234  1.0000
  C   C2827     1.0  0.48761  0.61547  0.96476  1.0000
  C   C2828     1.0  0.45177  0.61835  0.97110  1.0000
  C   C2829     1.0  0.37451  0.49327  0.95939  1.0000
  C   C2830     1.0  0.48654  0.87407  0.80422  1.0000
  C   C2831     1.0  0.21262  0.49919  0.95655  1.0000
  C   C2832     1.0  0.39887  0.58630  0.98043  1.0000
  H   H2284     1.0  0.03007  0.58158  0.79657  1.0000
  C   C2833     1.0  0.49042  0.73917  0.94795  1.0000
  H   H2285     1.0  0.06013  0.58991  0.78626  1.0000
  H   H2286     1.0  0.38751  0.77945  0.98135  1.0000
  P   P95       1.0  0.43305  0.56949  0.98180  1.0000
  H   H2287     1.0  0.17437  0.51479  0.79002  1.0000
  C   C2834     1.0  0.05061  0.51642  0.78889  1.0000
  H   H2288     1.0  0.38781  0.88736  0.97966  1.0000
  C   C2835     1.0  0.17970  0.50165  0.97841  1.0000
  H   H2289     1.0  0.27524  0.49071  0.82618  1.0000
  H   H2290     1.0  0.07385  0.52467  0.78655  1.0000
  H   H2291     1.0  0.48910  0.80448  0.91810  1.0000
  C   C2836     1.0  0.03435  0.52094  0.78462  1.0000
  C   C2837     1.0  0.13594  0.49033  0.96093  1.0000
  H   H2292     1.0  0.29453  0.49568  0.85447  1.0000
  C   C2838     1.0  0.14763  0.49095  0.97018  1.0000
  C   C2839     1.0  0.26831  0.49294  0.86538  1.0000
  C   C2840     1.0  0.28612  0.48838  0.86458  1.0000
  C   C2841     1.0  0.17115  0.48833  0.79695  1.0000
  H   H2293     1.0  0.22317  0.48835  0.91489  1.0000
  C   C2842     1.0  0.22876  0.48934  0.83969  1.0000
  H   H2294     1.0  0.24360  0.48748  0.87880  1.0000
  H   H2295     1.0  0.40584  0.48778  0.89393  1.0000
  C   C2843     1.0  0.49020  0.77862  0.83107  1.0000
  H   H2296     1.0  0.34710  0.71910  0.98378  1.0000
  Fe  Fe186     1.0  0.71208  0.38284  0.00969  1.0000
  S   S381      1.0  0.68952  0.38446  0.03218  1.0000
  C   C2844     1.0  0.95729  0.32958  0.10432  1.0000
  Fe  Fe187     1.0  0.73647  0.35788  0.03189  1.0000
  S   S382      1.0  0.71591  0.35686  0.05637  1.0000
  S   S383      1.0  0.76470  0.34479  0.02957  1.0000
  Fe  Fe188     1.0  0.69871  0.35541  0.03981  1.0000
  S   S384      1.0  0.67762  0.34009  0.04859  1.0000
  Fe  Fe189     1.0  0.70852  0.38585  0.04652  1.0000
  S   S385      1.0  0.70508  0.40428  0.06359  1.0000
  S   S386      1.0  0.72008  0.35367  0.01618  1.0000
  S   S387      1.0  0.73027  0.38687  0.02321  1.0000
  H   H2297     1.0  0.93465  0.39308  0.17998  1.0000
  C   C2845     1.0  0.73334  0.46709  0.12137  1.0000
  Fe  Fe190     1.0  0.83369  0.37825  0.04729  1.0000
  S   S388      1.0  0.85749  0.35673  0.04344  1.0000
  S   S389      1.0  0.80666  0.37656  0.06231  1.0000
  Fe  Fe191     1.0  0.85181  0.40682  0.02642  1.0000
  S   S390      1.0  0.87688  0.38820  0.02011  1.0000
  S   S391      1.0  0.84958  0.43548  0.01487  1.0000
  Fe  Fe192     1.0  0.86155  0.37190  0.01580  1.0000
  C   C2846     1.0  0.55271  0.23039  0.01831  1.0000
  Fe  Fe193     1.0  0.87151  0.37441  0.04811  1.0000
  S   S392      1.0  0.89661  0.36576  0.05774  1.0000
  S   S393      1.0  0.83681  0.39199  0.01917  1.0000
  S   S394      1.0  0.84724  0.39438  0.05484  1.0000
  Fe  Fe194     1.0  0.64389  0.29184  0.99904  1.0000
  H   H2298     1.0  0.87913  0.40345  0.05929  1.0000
  S   S395      1.0  0.66969  0.29485  0.00123  1.0000
  Fe  Fe195     1.0  0.62516  0.26406  0.00017  1.0000
  C   C2847     1.0  0.49949  0.10952  0.08206  1.0000
  S   S396      1.0  0.62323  0.23605  0.01115  1.0000
  H   H2299     1.0  0.66480  0.23709  0.00338  1.0000
  Fe  Fe196     1.0  0.60420  0.29932  0.00613  1.0000
  S   S397      1.0  0.57958  0.31445  0.02004  1.0000
  H   H2300     1.0  0.71450  0.38274  0.10798  1.0000
  S   S398      1.0  0.62412  0.27912  0.01951  1.0000
  C   C2848     1.0  0.54767  0.14456  0.01984  1.0000
  C   C2849     1.0  0.55953  0.05803  0.05512  1.0000
  C   C2850     1.0  0.50406  0.18768  0.01683  1.0000
  Fe  Fe197     1.0  0.64471  0.02490  0.08557  1.0000
  S   S399      1.0  0.63793  0.02971  0.11241  1.0000
  S   S400      1.0  0.63518  0.04540  0.06351  1.0000
  C   C2851     1.0  0.76954  0.41075  0.02980  1.0000
  C   C2852     1.0  0.67622  0.05893  0.99479  1.0000
  S   S401      1.0  0.90991  0.38217  0.12350  1.0000
  C   C2853     1.0  0.83004  0.24054  0.02660  1.0000
  S   S402      1.0  0.60575  0.99948  0.13984  1.0000
  C   C2854     1.0  0.87658  0.47568  0.06707  1.0000
  C   C2855     1.0  0.67473  0.04444  0.98991  1.0000
  C   C2856     1.0  0.56421  0.05729  0.99424  1.0000
  C   C2857     1.0  0.78172  0.41614  0.08585  1.0000
  C   C2858     1.0  0.82447  0.31006  0.01175  1.0000
  Fe  Fe198     1.0  0.52357  0.02402  0.10567  1.0000
  S   S403      1.0  0.54553  0.03734  0.09952  1.0000
  S   S404      1.0  0.93329  0.45743  0.09147  1.0000
  Fe  Fe199     1.0  0.96984  0.39635  0.10474  1.0000
  P   P96       1.0  0.79400  0.47988  0.98941  1.0000
  H   H2301     1.0  0.61560  0.01677  0.06455  1.0000
  S   S405      1.0  0.94601  0.40649  0.09329  1.0000
  H   H2302     1.0  0.96535  0.47329  0.04235  1.0000
  C   C2859     1.0  0.55861  0.09174  0.03482  1.0000
  C   C2860     1.0  0.96596  0.44586  0.04970  1.0000
  C   C2861     1.0  0.49239  0.14339  0.05044  1.0000
  C   C2862     1.0  0.70612  0.25532  0.99245  1.0000
  C   C2863     1.0  0.53224  0.14163  0.03134  1.0000
  H   H2303     1.0  0.61602  0.23854  0.06269  1.0000
  H   H2304     1.0  0.77631  0.40576  0.08547  1.0000
  C   C2864     1.0  0.93132  0.46954  0.10666  1.0000
  H   H2305     1.0  0.94054  0.44721  0.12579  1.0000
  H   H2306     1.0  0.55908  0.04510  0.06310  1.0000
  C   C2865     1.0  0.59051  0.02465  0.11542  1.0000
  C   C2866     1.0  0.57706  0.03302  0.10652  1.0000
  C   C2867     1.0  0.56182  0.02693  0.11133  1.0000
  H   H2307     1.0  0.60230  0.02935  0.11156  1.0000
  H   H2308     1.0  0.57857  0.04404  0.09574  1.0000
  C   C2868     1.0  0.55649  0.15177  0.04223  1.0000
  H   H2309     1.0  0.67270  0.29958  0.07759  1.0000
  C   C2869     1.0  0.49907  0.17872  0.00739  1.0000
  C   C2870     1.0  0.61091  0.01541  0.05397  1.0000
  C   C2871     1.0  0.81475  0.26481  0.00764  1.0000
  C   C2872     1.0  0.65440  0.04153  0.14516  1.0000
  H   H2310     1.0  0.58425  0.29575  0.14008  1.0000
  H   H2311     1.0  0.51447  0.01004  0.04667  1.0000
  S   S406      1.0  0.96076  0.41293  0.15976  1.0000
  H   H2312     1.0  0.64902  0.04497  0.13372  1.0000
  C   C2873     1.0  0.55950  0.30896  0.02329  1.0000
  C   C2874     1.0  0.54565  0.31610  0.03531  1.0000
  C   C2875     1.0  0.52947  0.31204  0.03873  1.0000
  C   C2876     1.0  0.52680  0.30094  0.03003  1.0000
  C   C2877     1.0  0.54054  0.29391  0.01773  1.0000
  C   C2878     1.0  0.55695  0.29782  0.01445  1.0000
  H   H2313     1.0  0.54746  0.32472  0.04216  1.0000
  H   H2314     1.0  0.51893  0.31754  0.04820  1.0000
  C   C2879     1.0  0.58242  0.30736  0.11339  1.0000
  C   C2880     1.0  0.52914  0.09745  0.09616  1.0000
  C   C2881     1.0  0.66641  0.05559  0.05176  1.0000
  C   C2882     1.0  0.64891  0.05940  0.05104  1.0000
  C   C2883     1.0  0.64208  0.07467  0.04000  1.0000
  H   H2315     1.0  0.67188  0.04369  0.06007  1.0000
  H   H2316     1.0  0.62866  0.07767  0.03938  1.0000
  C   C2884     1.0  0.89911  0.44351  0.05034  1.0000
  C   C2885     1.0  0.63452  0.22065  0.99849  1.0000
  Fe  Fe200     1.0  0.93224  0.39473  0.11977  1.0000
  Fe  Fe201     1.0  0.94170  0.42953  0.10464  1.0000
  C   C2886     1.0  0.89041  0.41773  0.06993  1.0000
  C   C2887     1.0  0.89945  0.37142  0.07582  1.0000
  C   C2888     1.0  0.91561  0.37419  0.07541  1.0000
  C   C2889     1.0  0.91875  0.37792  0.08982  1.0000
  C   C2890     1.0  0.90591  0.37840  0.10496  1.0000
  C   C2891     1.0  0.88971  0.37557  0.10542  1.0000
  C   C2892     1.0  0.88639  0.37234  0.09079  1.0000
  H   H2317     1.0  0.92574  0.37345  0.06388  1.0000
  C   C2893     1.0  0.57946  0.24011  0.00495  1.0000
  H   H2318     1.0  0.87971  0.37592  0.11711  1.0000
  H   H2319     1.0  0.87394  0.37007  0.09127  1.0000
  Fe  Fe202     1.0  0.66442  0.01325  0.11451  1.0000
  S   S407      1.0  0.68149  0.01981  0.12807  1.0000
  H   H2320     1.0  0.53514  0.05585  0.02917  1.0000
  C   C2894     1.0  0.96678  0.33590  0.11211  1.0000
  C   C2895     1.0  0.78338  0.37466  0.98596  1.0000
  H   H2321     1.0  0.53154  0.04088  0.13594  1.0000
  C   C2896     1.0  0.88592  0.42604  0.04050  1.0000
  C   C2897     1.0  0.88848  0.44967  0.11069  1.0000
  S   S408      1.0  0.52025  0.99902  0.12469  1.0000
  C   C2898     1.0  0.60715  0.16808  0.99856  1.0000
  C   C2899     1.0  0.83272  0.47078  0.05331  1.0000
  H   H2322     1.0  0.89917  0.45899  0.12644  1.0000
  C   C2900     1.0  0.83867  0.46687  0.02390  1.0000
  C   C2901     1.0  0.84349  0.44884  0.02983  1.0000
  C   C2902     1.0  0.84316  0.44183  0.04752  1.0000
  C   C2903     1.0  0.83774  0.45277  0.05926  1.0000
  C   C2904     1.0  0.79718  0.46494  0.00978  1.0000
  H   H2323     1.0  0.83870  0.47247  0.01032  1.0000
  H   H2324     1.0  0.84716  0.42804  0.05221  1.0000
  H   H2325     1.0  0.83749  0.44728  0.07294  1.0000
  C   C2905     1.0  0.67153  0.30842  0.01356  1.0000
  C   C2906     1.0  0.65701  0.31696  0.02388  1.0000
  C   C2907     1.0  0.65905  0.32649  0.03471  1.0000
  C   C2908     1.0  0.67557  0.32802  0.03483  1.0000
  C   C2909     1.0  0.69009  0.31977  0.02420  1.0000
  C   C2910     1.0  0.68807  0.30994  0.01366  1.0000
  H   H2326     1.0  0.64430  0.31578  0.02385  1.0000
  H   H2327     1.0  0.64780  0.33277  0.04295  1.0000
  H   H2328     1.0  0.70287  0.32081  0.02428  1.0000
  H   H2329     1.0  0.69935  0.30335  0.00569  1.0000
  C   C2911     1.0  0.69345  0.42551  0.05647  1.0000
  C   C2912     1.0  0.68466  0.42931  0.04304  1.0000
  C   C2913     1.0  0.67528  0.44626  0.03759  1.0000
  C   C2914     1.0  0.67520  0.45966  0.04506  1.0000
  C   C2915     1.0  0.68422  0.45595  0.05834  1.0000
  C   C2916     1.0  0.69299  0.43880  0.06431  1.0000
  H   H2330     1.0  0.68485  0.41916  0.03698  1.0000
  H   H2331     1.0  0.66825  0.44897  0.02745  1.0000
  H   H2332     1.0  0.68403  0.46618  0.06432  1.0000
  H   H2333     1.0  0.69942  0.43583  0.07501  1.0000
  C   C2917     1.0  0.77599  0.35475  0.03794  1.0000
  C   C2918     1.0  0.79361  0.35431  0.03085  1.0000
  C   C2919     1.0  0.80297  0.36149  0.03792  1.0000
  C   C2920     1.0  0.79491  0.36855  0.05252  1.0000
  C   C2921     1.0  0.77725  0.36921  0.05947  1.0000
  C   C2922     1.0  0.76772  0.36260  0.05201  1.0000
  H   H2334     1.0  0.80008  0.34836  0.01991  1.0000
  H   H2335     1.0  0.81651  0.36125  0.03231  1.0000
  H   H2336     1.0  0.77100  0.37470  0.07073  1.0000
  H   H2337     1.0  0.75412  0.36303  0.05752  1.0000
  H   H2338     1.0  0.54803  0.10021  0.05873  1.0000
  C   C2923     1.0  0.66371  0.00457  0.04361  1.0000
  C   C2924     1.0  0.49635  0.18839  0.07622  1.0000
  H   H2339     1.0  0.56877  0.08006  0.01292  1.0000
  C   C2925     1.0  0.73537  0.39297  0.08960  1.0000
  C   C2926     1.0  0.74410  0.40654  0.08387  1.0000
  P   P97       1.0  0.74919  0.43884  0.08370  1.0000
  C   C2927     1.0  0.73800  0.45545  0.09591  1.0000
  C   C2928     1.0  0.72558  0.46979  0.08945  1.0000
  H   H2340     1.0  0.65588  0.36145  0.01393  1.0000
  C   C2929     1.0  0.74712  0.44834  0.06141  1.0000
  C   C2930     1.0  0.73577  0.44373  0.05434  1.0000
  C   C2931     1.0  0.73202  0.45310  0.03822  1.0000
  C   C2932     1.0  0.73979  0.46700  0.02884  1.0000
  C   C2933     1.0  0.75133  0.47147  0.03560  1.0000
  C   C2934     1.0  0.75487  0.46230  0.05188  1.0000
  H   H2341     1.0  0.73882  0.38276  0.08249  1.0000
  H   H2342     1.0  0.75431  0.40657  0.07237  1.0000
  H   H2343     1.0  0.52022  0.07357  0.10749  1.0000
  H   H2344     1.0  0.53531  0.12211  0.08275  1.0000
  H   H2345     1.0  0.72912  0.43343  0.06149  1.0000
  H   H2346     1.0  0.72249  0.44993  0.03348  1.0000
  H   H2347     1.0  0.83627  0.36939  0.99562  1.0000
  C   C2935     1.0  0.83339  0.47780  0.03560  1.0000
  C   C2936     1.0  0.79965  0.30509  0.99338  1.0000
  H   H2348     1.0  0.61678  0.09528  0.98734  1.0000
  C   C2937     1.0  0.72129  0.48150  0.11466  1.0000
  C   C2938     1.0  0.69464  0.44201  0.99562  1.0000
  C   C2939     1.0  0.66648  0.98797  0.04069  1.0000
  C   C2940     1.0  0.54088  0.14919  0.05369  1.0000
  H   H2349     1.0  0.98049  0.37492  0.15847  1.0000
  H   H2350     1.0  0.62376  0.00282  0.16404  1.0000
  C   C2941     1.0  0.80363  0.44176  0.04095  1.0000
  H   H2351     1.0  0.89339  0.44939  0.02469  1.0000
  C   C2942     1.0  0.63252  0.20342  0.00474  1.0000
  C   C2943     1.0  0.75846  0.41626  0.00384  1.0000
  C   C2944     1.0  0.64916  0.47516  0.98477  1.0000
  C   C2945     1.0  0.81661  0.30666  0.02950  1.0000
  H   H2352     1.0  0.94628  0.33359  0.08207  1.0000
  H   H2353     1.0  0.53690  0.24123  0.04005  1.0000
  C   C2946     1.0  0.80603  0.43551  0.02616  1.0000
  H   H2354     1.0  0.52284  0.07650  0.05533  1.0000
  H   H2355     1.0  0.97942  0.44206  0.05077  1.0000
  H   H2356     1.0  0.69129  0.42950  0.99882  1.0000
  H   H2357     1.0  0.55010  0.14311  0.00662  1.0000
  H   H2358     1.0  0.78720  0.31397  0.01726  1.0000
  C   C2947     1.0  0.57132  0.99754  0.08714  1.0000
  Fe  Fe203     1.0  0.49570  0.24532  0.01906  1.0000
  C   C2948     1.0  0.60837  0.08030  0.01290  1.0000
  H   H2359     1.0  0.95428  0.36279  0.16673  1.0000
  H   H2360     1.0  0.78803  0.34701  0.99603  1.0000
  H   H2361     1.0  0.80667  0.39888  0.08744  1.0000
  H   H2362     1.0  0.87425  0.44171  0.09692  1.0000
  C   C2949     1.0  0.74165  0.45408  0.11206  1.0000
  H   H2363     1.0  0.67556  0.27139  0.03974  1.0000
  C   C2950     1.0  0.51207  0.00450  0.16995  1.0000
  H   H2364     1.0  0.57192  0.15154  0.01634  1.0000
  H   H2365     1.0  0.91767  0.38031  0.01852  1.0000
  S   S409      1.0  0.60655  0.12686  0.00006  1.0000
  H   H2366     1.0  0.75289  0.31766  0.98485  1.0000
  C   C2951     1.0  0.92059  0.42821  0.99669  1.0000
  H   H2367     1.0  0.57680  0.19931  0.02732  1.0000
  C   C2952     1.0  0.89291  0.44058  0.03730  1.0000
  H   H2368     1.0  0.67609  0.24038  0.02706  1.0000
  H   H2369     1.0  0.93196  0.42782  0.05558  1.0000
  H   H2370     1.0  0.74248  0.41870  0.02909  1.0000
  P   P98       1.0  0.57372  0.21553  0.99090  1.0000
  C   C2953     1.0  0.71281  0.45930  0.99828  1.0000
  H   H2371     1.0  0.49637  0.34009  0.00234  1.0000
  C   C2954     1.0  0.49163  0.08273  0.03302  1.0000
  H   H2372     1.0  0.62959  0.01880  0.18277  1.0000
  C   C2955     1.0  0.87112  0.46468  0.13347  1.0000
  H   H2373     1.0  0.90108  0.44443  0.10340  1.0000
  H   H2374     1.0  0.74740  0.41944  0.99796  1.0000
  C   C2956     1.0  0.87343  0.44816  0.10702  1.0000
  H   H2375     1.0  0.54922  0.07018  0.07693  1.0000
  H   H2376     1.0  0.69019  0.01737  0.16049  1.0000
  H   H2377     1.0  0.96275  0.41954  0.05676  1.0000
  H   H2378     1.0  0.49808  0.20147  0.06973  1.0000
  C   C2957     1.0  0.76589  0.31391  0.98729  1.0000
  S   S410      1.0  0.68282  0.09702  0.01740  1.0000
  C   C2958     1.0  0.60654  0.28482  0.12233  1.0000
  H   H2379     1.0  0.80557  0.44191  0.99911  1.0000
  C   C2959     1.0  0.62597  0.05129  0.02042  1.0000
  C   C2960     1.0  0.61203  0.31829  0.05590  1.0000
  C   C2961     1.0  0.63453  0.99735  0.17054  1.0000
  P   P99       1.0  0.90805  0.46222  0.04670  1.0000
  C   C2962     1.0  0.78474  0.35754  0.98526  1.0000
  H   H2380     1.0  0.56749  0.29235  0.00502  1.0000
  C   C2963     1.0  0.99034  0.32908  0.13664  1.0000
  C   C2964     1.0  0.58867  0.01026  0.12923  1.0000
  H   H2381     1.0  0.57315  0.27993  0.04933  1.0000
  H   H2382     1.0  0.59527  0.00237  0.08838  1.0000
  C   C2965     1.0  0.57939  0.12288  0.98994  1.0000
  C   C2966     1.0  0.89447  0.47506  0.06220  1.0000
  H   H2383     1.0  0.95357  0.26894  0.14413  1.0000
  P   P100      1.0  0.57225  0.04197  0.02707  1.0000
  C   C2967     1.0  0.75558  0.41584  0.02155  1.0000
  C   C2968     1.0  0.66870  0.03363  0.17455  1.0000
  C   C2969     1.0  0.59050  0.29601  0.12658  1.0000
  C   C2970     1.0  0.98319  0.46865  0.09511  1.0000
  H   H2384     1.0  0.61269  0.27584  0.13255  1.0000
  H   H2385     1.0  0.71549  0.43175  0.00932  1.0000
  C   C2971     1.0  0.65241  0.08632  0.02995  1.0000
  H   H2386     1.0  0.93477  0.48193  0.04013  1.0000
  H   H2387     1.0  0.51467  0.18129  0.02340  1.0000
  S   S411      1.0  0.82520  0.48422  0.06823  1.0000
  C   C2972     1.0  0.86573  0.48626  0.07821  1.0000
  C   C2973     1.0  0.57552  0.25055  0.01695  1.0000
  C   C2974     1.0  0.50306  0.17506  0.06716  1.0000
  H   H2388     1.0  0.93223  0.46126  0.01323  1.0000
  S   S412      1.0  0.51736  0.25944  0.00851  1.0000
  C   C2975     1.0  0.66015  0.01933  0.03044  1.0000
  C   C2976     1.0  0.95649  0.43317  0.05321  1.0000
  C   C2977     1.0  0.51147  0.12013  0.07781  1.0000
  H   H2389     1.0  0.90241  0.43409  0.07691  1.0000
  H   H2390     1.0  0.88929  0.40899  0.08262  1.0000
  H   H2391     1.0  0.57212  0.99278  0.14447  1.0000
  C   C2978     1.0  0.68494  0.08053  0.08422  1.0000
  C   C2979     1.0  0.68506  0.06280  0.08895  1.0000
  C   C2980     1.0  0.67000  0.05733  0.09066  1.0000
  C   C2981     1.0  0.65481  0.06951  0.08751  1.0000
  C   C2982     1.0  0.65448  0.08738  0.08284  1.0000
  C   C2983     1.0  0.66968  0.09278  0.08144  1.0000
  P   P101      1.0  0.63414  0.10327  0.08243  1.0000
  C   C2984     1.0  0.63839  0.12404  0.06951  1.0000
  C   C2985     1.0  0.61946  0.09744  0.07324  1.0000
  C   C2986     1.0  0.61129  0.08370  0.08263  1.0000
  C   C2987     1.0  0.59936  0.07958  0.07602  1.0000
  C   C2988     1.0  0.59516  0.08939  0.06021  1.0000
  C   C2989     1.0  0.60281  0.10339  0.05099  1.0000
  C   C2990     1.0  0.61500  0.10734  0.05738  1.0000
  C   C2991     1.0  0.62936  0.13960  0.07476  1.0000
  C   C2992     1.0  0.63221  0.15562  0.06413  1.0000
  C   C2993     1.0  0.64417  0.15621  0.04829  1.0000
  C   C2994     1.0  0.65333  0.14076  0.04309  1.0000
  C   C2995     1.0  0.65033  0.12476  0.05352  1.0000
  C   C2996     1.0  0.62358  0.10417  0.10470  1.0000
  C   C2997     1.0  0.63277  0.09680  0.11817  1.0000
  C   C2998     1.0  0.62422  0.09656  0.13546  1.0000
  C   C2999     1.0  0.60648  0.10373  0.13946  1.0000
  C   C3000     1.0  0.59726  0.11123  0.12616  1.0000
  C   C3001     1.0  0.60574  0.11140  0.10885  1.0000
  H   H2392     1.0  0.69660  0.08478  0.08301  1.0000
  H   H2393     1.0  0.69673  0.05323  0.09149  1.0000
  H   H2394     1.0  0.67015  0.04359  0.09452  1.0000
  H   H2395     1.0  0.64341  0.06484  0.08885  1.0000
  H   H2396     1.0  0.66974  0.10645  0.07858  1.0000
  H   H2397     1.0  0.61416  0.07605  0.09501  1.0000
  H   H2398     1.0  0.59368  0.06851  0.08301  1.0000
  H   H2399     1.0  0.58632  0.08588  0.05490  1.0000
  H   H2400     1.0  0.59978  0.11082  0.03854  1.0000
  H   H2401     1.0  0.62098  0.11798  0.04969  1.0000
  H   H2402     1.0  0.62006  0.13944  0.08696  1.0000
  H   H2403     1.0  0.62516  0.16762  0.06816  1.0000
  H   H2404     1.0  0.64635  0.16861  0.04000  1.0000
  H   H2405     1.0  0.66271  0.14114  0.03086  1.0000
  H   H2406     1.0  0.65725  0.11294  0.04901  1.0000
  H   H2407     1.0  0.64649  0.09098  0.11552  1.0000
  H   H2408     1.0  0.63137  0.09067  0.14580  1.0000
  H   H2409     1.0  0.59991  0.10340  0.15291  1.0000
  H   H2410     1.0  0.58350  0.11677  0.12930  1.0000
  H   H2411     1.0  0.59838  0.11702  0.09870  1.0000
  C   C3002     1.0  0.79813  0.45958  0.04025  1.0000
  H   H2412     1.0  0.73640  0.47474  0.01668  1.0000
  C   C3003     1.0  0.82473  0.27563  0.00878  1.0000
  H   H2413     1.0  0.50980  0.17812  0.05375  1.0000
  C   C3004     1.0  0.77538  0.41200  0.99417  1.0000
  P   P102      1.0  0.82132  0.29833  0.99762  1.0000
  C   C3005     1.0  0.52861  0.14406  0.04835  1.0000
  H   H2414     1.0  0.59062  0.03807  0.05524  1.0000
  S   S413      1.0  0.87361  0.35880  0.99335  1.0000
  C   C3006     1.0  0.51124  0.04765  0.17621  1.0000
  C   C3007     1.0  0.57342  0.00418  0.13410  1.0000
  H   H2415     1.0  0.97992  0.46481  0.08502  1.0000
  H   H2416     1.0  0.87085  0.46819  0.06213  1.0000
  H   H2417     1.0  0.66916  0.39327  0.99299  1.0000
  H   H2418     1.0  0.95712  0.36027  0.06647  1.0000
  C   C3008     1.0  0.57803  0.04517  0.16514  1.0000
  H   H2419     1.0  0.63972  0.36507  0.99152  1.0000
  H   H2420     1.0  0.72314  0.46034  0.00337  1.0000
  S   S414      1.0  0.60391  0.28346  0.98825  1.0000
  C   C3009     1.0  0.56548  0.06048  0.03707  1.0000
  Fe  Fe204     1.0  0.50439  0.27207  0.98607  1.0000
  C   C3010     1.0  0.52556  0.01596  0.04273  1.0000
  C   C3011     1.0  0.59670  0.02767  0.04847  1.0000
  H   H2421     1.0  0.60502  0.36491  0.02633  1.0000
  C   C3012     1.0  0.64812  0.43580  0.00949  1.0000
  H   H2422     1.0  0.97323  0.37199  0.08033  1.0000
  H   H2423     1.0  0.80678  0.43279  0.05270  1.0000
  H   H2424     1.0  0.50481  0.05763  0.07693  1.0000
  C   C3013     1.0  0.83421  0.48509  0.16297  1.0000
  C   C3014     1.0  0.94054  0.46830  0.04406  1.0000
  H   H2425     1.0  0.55078  0.05772  0.00051  1.0000
  C   C3015     1.0  0.56794  0.23015  0.00538  1.0000
  C   C3016     1.0  0.60763  0.28137  0.06396  1.0000
  H   H2426     1.0  0.92903  0.39658  0.03242  1.0000
  H   H2427     1.0  0.83065  0.46406  0.98989  1.0000
  C   C3017     1.0  0.55382  0.07225  0.06299  1.0000
  S   S415      1.0  0.49712  0.03921  0.11503  1.0000
  H   H2428     1.0  0.70190  0.99068  0.17936  1.0000
  H   H2429     1.0  0.82023  0.42190  0.08850  1.0000
  C   C3018     1.0  0.64556  0.04923  0.15931  1.0000
  C   C3019     1.0  0.66204  0.00090  0.01132  1.0000
  C   C3020     1.0  0.80294  0.44700  0.01059  1.0000
  C   C3021     1.0  0.52572  0.04462  0.18335  1.0000
  C   C3022     1.0  0.55311  0.08912  0.05280  1.0000
  P   P103      1.0  0.50815  0.14132  0.06298  1.0000
  H   H2430     1.0  0.56985  0.31583  0.11667  1.0000
  C   C3023     1.0  0.60961  0.32099  0.03899  1.0000
  C   C3024     1.0  0.95383  0.33835  0.08792  1.0000
  H   H2431     1.0  0.76737  0.40991  0.04357  1.0000
  C   C3025     1.0  0.64991  0.28139  0.05328  1.0000
  H   H2432     1.0  0.91515  0.36059  0.15655  1.0000
  S   S416      1.0  0.67204  0.01027  0.08677  1.0000
  C   C3026     1.0  0.59044  0.30766  0.09596  1.0000
  S   S417      1.0  0.52128  0.09594  0.02104  1.0000
  H   H2433     1.0  0.66215  0.99913  0.99872  1.0000
  C   C3027     1.0  0.67766  0.02611  0.16024  1.0000
  C   C3028     1.0  0.64452  0.41997  0.01986  1.0000
  H   H2434     1.0  0.70251  0.25203  0.02011  1.0000
  C   C3029     1.0  0.51123  0.07536  0.05253  1.0000
  H   H2435     1.0  0.60485  0.33964  0.01547  1.0000
  H   H2436     1.0  0.56467  0.00646  0.16840  1.0000
  H   H2437     1.0  0.65860  0.03206  0.03280  1.0000
  H   H2438     1.0  0.81403  0.31179  0.05457  1.0000
  C   C3030     1.0  0.50095  0.06467  0.06482  1.0000
  Fe  Fe205     1.0  0.49912  0.28074  0.02066  1.0000
  C   C3031     1.0  0.79478  0.47115  0.02480  1.0000
  Fe  Fe206     1.0  0.66893  0.11500  0.99673  1.0000
  H   H2439     1.0  0.64271  0.44738  0.01464  1.0000
  C   C3032     1.0  0.78633  0.40590  0.02045  1.0000
  C   C3033     1.0  0.69769  0.25044  0.00976  1.0000
  C   C3034     1.0  0.56493  0.07752  0.02693  1.0000
  H   H2440     1.0  0.79696  0.40092  0.02717  1.0000
  C   C3035     1.0  0.59375  0.13038  0.98494  1.0000
  Fe  Fe207     1.0  0.51027  0.99322  0.10461  1.0000
  H   H2441     1.0  0.58892  0.24902  0.05158  1.0000
  H   H2442     1.0  0.61007  0.36032  0.05598  1.0000
  H   H2443     1.0  0.55699  0.25932  0.03867  1.0000
  C   C3036     1.0  0.59181  0.28699  0.05849  1.0000
  C   C3037     1.0  0.52996  0.04213  0.14910  1.0000
  H   H2444     1.0  0.50240  0.11741  0.04570  1.0000
  H   H2445     1.0  0.54804  0.98940  0.08924  1.0000
  C   C3038     1.0  0.83745  0.26865  0.01887  1.0000
  C   C3039     1.0  0.90120  0.48516  0.06886  1.0000
  C   C3040     1.0  0.94712  0.48420  0.18313  1.0000
  C   C3041     1.0  0.79703  0.44212  0.08686  1.0000
  H   H2446     1.0  0.95239  0.31800  0.11090  1.0000
  H   H2447     1.0  0.84929  0.33667  0.01264  1.0000
  H   H2448     1.0  0.59765  0.09073  0.01649  1.0000
  H   H2449     1.0  0.91488  0.48473  0.06589  1.0000
  H   H2450     1.0  0.73636  0.46609  0.13372  1.0000
  H   H2451     1.0  0.94823  0.30029  0.14292  1.0000
  H   H2452     1.0  0.71756  0.26048  0.98960  1.0000
  C   C3042     1.0  0.66278  0.40514  0.99746  1.0000
  H   H2453     1.0  0.77248  0.45959  0.08476  1.0000
  H   H2454     1.0  0.98334  0.45502  0.16948  1.0000
  H   H2455     1.0  0.84985  0.24594  0.03556  1.0000
  P   P104      1.0  0.86981  0.47453  0.15104  1.0000
  C   C3043     1.0  0.57044  0.00186  0.17965  1.0000
  C   C3044     1.0  0.58644  0.19531  0.00103  1.0000
  C   C3045     1.0  0.51760  0.08669  0.09957  1.0000
  H   H2456     1.0  0.66557  0.06574  0.00324  1.0000
  H   H2457     1.0  0.85559  0.27703  0.98505  1.0000
  H   H2458     1.0  0.78561  0.37691  0.99744  1.0000
  C   C3046     1.0  0.91323  0.40169  0.99660  1.0000
  H   H2459     1.0  0.61340  0.15123  0.02244  1.0000
  C   C3047     1.0  0.89622  0.47282  0.16727  1.0000
  C   C3048     1.0  0.84010  0.32835  0.01727  1.0000
  C   C3049     1.0  0.61357  0.00031  0.03171  1.0000
  H   H2460     1.0  0.93123  0.42711  0.01839  1.0000
  C   C3050     1.0  0.93962  0.34489  0.14641  1.0000
  H   H2461     1.0  0.53856  0.28538  0.01088  1.0000
  H   H2462     1.0  0.90809  0.39434  0.99090  1.0000
  C   C3051     1.0  0.63353  0.06982  0.99208  1.0000
  H   H2463     1.0  0.62833  0.03925  0.02991  1.0000
  H   H2464     1.0  0.52318  0.13768  0.02672  1.0000
  H   H2465     1.0  0.58449  0.25817  0.01655  1.0000
  H   H2466     1.0  0.56797  0.00961  0.07785  1.0000
  C   C3052     1.0  0.65368  0.36235  0.98807  1.0000
  C   C3053     1.0  0.96143  0.29300  0.13966  1.0000
  S   S418      1.0  0.50612  0.29623  0.03535  1.0000
  H   H2467     1.0  0.75671  0.48275  0.02881  1.0000
  H   H2468     1.0  0.75162  0.44968  0.98500  1.0000
  C   C3054     1.0  0.95802  0.46343  0.04500  1.0000
  C   C3055     1.0  0.66278  0.36025  0.00088  1.0000
  C   C3056     1.0  0.58639  0.06758  0.13999  1.0000
  C   C3057     1.0  0.60366  0.05841  0.13837  1.0000
  C   C3058     1.0  0.60810  0.04268  0.15009  1.0000
  C   C3059     1.0  0.59538  0.03614  0.16347  1.0000
  C   C3060     1.0  0.83614  0.32115  0.00567  1.0000
  H   H2469     1.0  0.58478  0.30044  0.05724  1.0000
  C   C3061     1.0  0.60698  0.35195  0.03458  1.0000
  C   C3062     1.0  0.54885  0.24082  0.03032  1.0000
  H   H2470     1.0  0.91209  0.42271  0.17391  1.0000
  C   C3063     1.0  0.61922  0.08292  0.99650  1.0000
  C   C3064     1.0  0.85605  0.46348  0.12939  1.0000
  H   H2471     1.0  0.53676  0.99681  0.17739  1.0000
  C   C3065     1.0  0.76920  0.46311  0.98814  1.0000
  H   H2472     1.0  0.68780  0.35531  0.00685  1.0000
  H   H2473     1.0  0.61564  0.15940  0.99051  1.0000
  C   C3066     1.0  0.81847  0.48410  0.17478  1.0000
  C   C3067     1.0  0.57743  0.04984  0.00370  1.0000
  H   H2474     1.0  0.63317  0.05824  0.15886  1.0000
  H   H2475     1.0  0.80772  0.29803  0.03459  1.0000
  H   H2476     1.0  0.79698  0.46453  0.05153  1.0000
  C   C3068     1.0  0.50684  0.08414  0.03650  1.0000
  H   H2477     1.0  0.58292  0.07967  0.13080  1.0000
  H   H2478     1.0  0.61361  0.06339  0.12803  1.0000
  H   H2479     1.0  0.62138  0.03538  0.14878  1.0000
  C   C3069     1.0  0.50271  0.09279  0.09264  1.0000
  S   S419      1.0  0.50171  0.21614  0.02942  1.0000
  C   C3070     1.0  0.49420  0.01046  0.17506  1.0000
  P   P105      1.0  0.61657  0.29654  0.06918  1.0000
  C   C3071     1.0  0.97217  0.35146  0.10346  1.0000
  H   H2480     1.0  0.55725  0.03561  0.14825  1.0000
  C   C3072     1.0  0.63781  0.00627  0.18104  1.0000
  C   C3073     1.0  0.87521  0.47219  0.98913  1.0000
  C   C3074     1.0  0.78547  0.31181  0.00551  1.0000
  C   C3075     1.0  0.52609  0.11412  0.08538  1.0000
  C   C3076     1.0  0.68281  0.24390  0.01369  1.0000
  C   C3077     1.0  0.67687  0.06728  0.04164  1.0000
  C   C3078     1.0  0.67034  0.02974  0.14568  1.0000
  H   H2481     1.0  0.72080  0.43071  0.11366  1.0000
  C   C3079     1.0  0.58521  0.19073  0.01911  1.0000
  H   H2482     1.0  0.69039  0.06436  0.04220  1.0000
  C   C3080     1.0  0.66799  0.27800  0.04999  1.0000
  C   C3081     1.0  0.68084  0.35656  0.99696  1.0000
  H   H2483     1.0  0.54825  0.00787  0.12908  1.0000
  C   C3082     1.0  0.73910  0.42034  0.09241  1.0000
  C   C3083     1.0  0.88464  0.41465  0.05680  1.0000
  C   C3084     1.0  0.79908  0.41209  0.08713  1.0000
  C   C3085     1.0  0.93571  0.46105  0.12272  1.0000
  C   C3086     1.0  0.59500  0.17493  0.02680  1.0000
  H   H2484     1.0  0.64086  0.30523  0.08387  1.0000
  S   S420      1.0  0.92620  0.41865  0.13044  1.0000
  H   H2485     1.0  0.62772  0.25881  0.07110  1.0000
  C   C3087     1.0  0.65914  0.43637  0.99301  1.0000
  C   C3088     1.0  0.77181  0.43326  0.08506  1.0000
  H   H2486     1.0  0.97895  0.35703  0.10935  1.0000
  H   H2487     1.0  0.61002  0.31015  0.03379  1.0000
  H   H2488     1.0  0.98353  0.25189  0.13619  1.0000
  C   C3089     1.0  0.55996  0.01258  0.12519  1.0000
  C   C3090     1.0  0.89772  0.43203  0.06669  1.0000
  C   C3091     1.0  0.72158  0.39300  0.10395  1.0000
  C   C3092     1.0  0.72528  0.42017  0.10695  1.0000
  C   C3093     1.0  0.93890  0.43800  0.05263  1.0000
  C   C3094     1.0  0.71660  0.40653  0.11269  1.0000
  C   C3095     1.0  0.84954  0.47313  0.16641  1.0000
  C   C3096     1.0  0.49954  0.33707  0.98968  1.0000
  H   H2489     1.0  0.70571  0.40667  0.12364  1.0000
  H   H2490     1.0  0.57665  0.11477  0.00276  1.0000
  C   C3097     1.0  0.61458  0.28508  0.10491  1.0000
  C   C3098     1.0  0.99086  0.47782  0.12203  1.0000
  S   S421      1.0  0.96678  0.42059  0.11329  1.0000
  C   C3099     1.0  0.77969  0.44623  0.08549  1.0000
  H   H2491     1.0  0.75101  0.44301  0.11738  1.0000
  C   C3100     1.0  0.92523  0.34908  0.15947  1.0000
  H   H2492     1.0  0.93123  0.37999  0.08938  1.0000
  C   C3101     1.0  0.66985  0.08262  0.03065  1.0000
  H   H2493     1.0  0.64678  0.09823  0.02175  1.0000
  H   H2494     1.0  0.92118  0.44168  0.99094  1.0000
  C   C3102     1.0  0.55477  0.21162  0.98682  1.0000
  C   C3103     1.0  0.80672  0.42504  0.08771  1.0000
  C   C3104     1.0  0.57360  0.06102  0.15337  1.0000
  C   C3105     1.0  0.64191  0.19067  0.99527  1.0000
  H   H2495     1.0  0.64962  0.39227  0.02216  1.0000
  C   C3106     1.0  0.92080  0.47134  0.01103  1.0000
  H   H2496     1.0  0.51026  0.04209  0.03721  1.0000
  H   H2497     1.0  0.56589  0.15574  0.04638  1.0000
  H   H2498     1.0  0.85198  0.48666  0.08194  1.0000
  C   C3107     1.0  0.55988  0.14947  0.02529  1.0000
  H   H2499     1.0  0.59416  0.17151  0.04070  1.0000
  H   H2500     1.0  0.69017  0.28244  0.05579  1.0000
  C   C3108     1.0  0.91879  0.39361  0.01222  1.0000
  C   C3109     1.0  0.66634  0.29394  0.07129  1.0000
  H   H2501     1.0  0.76280  0.46683  0.05742  1.0000
  C   C3110     1.0  0.67620  0.28432  0.05895  1.0000
  S   S422      1.0  0.64839  0.13834  0.00244  1.0000
  C   C3111     1.0  0.64826  0.29718  0.07476  1.0000
  C   C3112     1.0  0.59389  0.25793  0.05545  1.0000
  C   C3113     1.0  0.60922  0.25205  0.06165  1.0000
  H   H2502     1.0  0.61476  0.33078  0.07468  1.0000
  H   H2503     1.0  0.54379  0.22251  0.01917  1.0000
  C   C3114     1.0  0.82039  0.31415  0.04097  1.0000
  H   H2504     1.0  0.64386  0.27737  0.04538  1.0000
  S   S423      1.0  0.51627  0.01698  0.08466  1.0000
  C   C3115     1.0  0.61594  0.26366  0.06616  1.0000
  H   H2505     1.0  0.80956  0.23909  0.01577  1.0000
  C   C3116     1.0  0.63989  0.29073  0.06593  1.0000
  C   C3117     1.0  0.61227  0.33260  0.06192  1.0000
  C   C3118     1.0  0.60971  0.34937  0.05130  1.0000
  C   C3119     1.0  0.58507  0.27533  0.05411  1.0000
  H   H2506     1.0  0.50541  0.16536  0.00740  1.0000
  Fe  Fe208     1.0  0.62989  0.00432  0.12066  1.0000
  H   H2507     1.0  0.88128  0.42365  0.03041  1.0000
  C   C3120     1.0  0.88734  0.45794  0.12381  1.0000
  S   S424      1.0  0.95653  0.38260  0.13053  1.0000
  C   C3121     1.0  0.60693  0.33776  0.02844  1.0000
  C   C3122     1.0  0.60676  0.29680  0.09162  1.0000
  H   H2508     1.0  0.62684  0.27608  0.10183  1.0000
  H   H2509     1.0  0.84558  0.45440  0.11305  1.0000
  Fe  Fe209     1.0  0.95179  0.40784  0.13849  1.0000
  H   H2510     1.0  0.58385  0.31627  0.08589  1.0000
  H   H2511     1.0  0.93819  0.46381  0.14712  1.0000
  H   H2512     1.0  0.59163  0.23967  0.99556  1.0000
  H   H2513     1.0  0.80483  0.26980  0.00004  1.0000
  H   H2514     1.0  0.63133  0.01664  0.99632  1.0000
  C   C3123     1.0  0.65188  0.40463  0.01387  1.0000
  H   H2515     1.0  0.63645  0.41951  0.03278  1.0000
  C   C3124     1.0  0.53733  0.04179  0.03292  1.0000
  C   C3125     1.0  0.93427  0.47051  0.13495  1.0000
  C   C3126     1.0  0.92634  0.42001  0.01219  1.0000
  C   C3127     1.0  0.78931  0.40656  0.00272  1.0000
  C   C3128     1.0  0.84007  0.25118  0.02773  1.0000
  C   C3129     1.0  0.54212  0.00563  0.04368  1.0000
  H   H2516     1.0  0.56888  0.00499  0.04021  1.0000
  H   H2517     1.0  0.60355  0.06260  0.03770  1.0000
  C   C3130     1.0  0.61916  0.00158  0.04582  1.0000
  H   H2518     1.0  0.83522  0.33062  0.04378  1.0000
  C   C3131     1.0  0.90745  0.43666  0.17232  1.0000
  C   C3132     1.0  0.55635  0.01334  0.03904  1.0000
  C   C3133     1.0  0.65250  0.04507  0.17417  1.0000
  H   H2519     1.0  0.71139  0.98972  0.12749  1.0000
  C   C3134     1.0  0.88778  0.46344  0.16160  1.0000
  H   H2520     1.0  0.94031  0.35324  0.13351  1.0000
  C   C3135     1.0  0.59089  0.02650  0.03433  1.0000
  H   H2521     1.0  0.84536  0.27671  0.01991  1.0000
  H   H2522     1.0  0.66447  0.00603  0.05606  1.0000
  H   H2523     1.0  0.53832  0.15142  0.06663  1.0000
  Fe  Fe210     1.0  0.51403  0.11390  0.99655  1.0000
  C   C3136     1.0  0.90711  0.47504  0.02500  1.0000
  H   H2524     1.0  0.84246  0.32411  0.99210  1.0000
  C   C3137     1.0  0.55410  0.03155  0.03343  1.0000
  C   C3138     1.0  0.49558  0.20495  0.01742  1.0000
  H   H2525     1.0  0.55727  0.10486  0.02694  1.0000
  C   C3139     1.0  0.52317  0.03404  0.03744  1.0000
  H   H2526     1.0  0.84335  0.46879  0.13631  1.0000
  H   H2527     1.0  0.64041  0.17739  0.00024  1.0000
  C   C3140     1.0  0.70853  0.44322  0.00158  1.0000
  C   C3141     1.0  0.76870  0.31621  0.00244  1.0000
  C   C3142     1.0  0.97536  0.30130  0.13467  1.0000
  P   P106      1.0  0.97138  0.32442  0.13326  1.0000
  H   H2528     1.0  0.62990  0.99190  0.05046  1.0000
  C   C3143     1.0  0.51335  0.04636  0.15911  1.0000
  C   C3144     1.0  0.67643  0.24208  0.00034  1.0000
  S   S425      1.0  0.62393  0.31356  0.98755  1.0000
  H   H2529     1.0  0.51761  0.00233  0.15710  1.0000
  H   H2530     1.0  0.62375  0.19991  0.01696  1.0000
  C   C3145     1.0  0.85723  0.45524  0.11621  1.0000
  C   C3146     1.0  0.95278  0.33007  0.15006  1.0000
  H   H2531     1.0  0.59536  0.01163  0.01494  1.0000
  C   C3147     1.0  0.83229  0.32481  0.03489  1.0000
  C   C3148     1.0  0.59962  0.01281  0.02585  1.0000
  H   H2532     1.0  0.75789  0.32173  0.01175  1.0000
  H   H2533     1.0  0.54063  0.09268  0.10165  1.0000
  C   C3149     1.0  0.96118  0.47630  0.17182  1.0000
  C   C3150     1.0  0.97506  0.48570  0.11694  1.0000
  C   C3151     1.0  0.96439  0.27524  0.14028  1.0000
  H   H2534     1.0  0.77484  0.45199  0.99722  1.0000
  S   S426      1.0  0.63376  0.00113  0.09367  1.0000
  C   C3152     1.0  0.56017  0.25100  0.02955  1.0000
  C   C3153     1.0  0.54448  0.03906  0.15619  1.0000
  H   H2535     1.0  0.80239  0.40202  0.99591  1.0000
  C   C3154     1.0  0.65868  0.01765  0.01439  1.0000
  C   C3155     1.0  0.59459  0.05049  0.99512  1.0000
  C   C3156     1.0  0.91009  0.46414  0.17545  1.0000
  H   H2536     1.0  0.96295  0.48181  0.15796  1.0000
  H   H2537     1.0  0.56026  0.06821  0.15451  1.0000
  C   C3157     1.0  0.81740  0.24734  0.01655  1.0000
  P   P107      1.0  0.65488  0.03689  0.99730  1.0000
  H   H2538     1.0  0.81110  0.42181  0.02668  1.0000
  C   C3158     1.0  0.69163  0.06478  0.98881  1.0000
  H   H2539     1.0  0.60493  0.04543  0.00217  1.0000
  C   C3159     1.0  0.89349  0.44527  0.16422  1.0000
  H   H2540     1.0  0.65525  0.47337  0.00933  1.0000
  C   C3160     1.0  0.61167  0.06446  0.02481  1.0000
  H   H2541     1.0  0.83202  0.22703  0.03357  1.0000
  S   S427      1.0  0.52163  0.13951  0.98990  1.0000
  H   H2542     1.0  0.80303  0.45227  0.08700  1.0000
  C   C3161     1.0  0.92521  0.40279  0.02007  1.0000
  C   C3162     1.0  0.92373  0.33843  0.17617  1.0000
  H   H2543     1.0  0.72229  0.47120  0.07714  1.0000
  C   C3163     1.0  0.91573  0.44609  0.17795  1.0000
  C   C3164     1.0  0.93063  0.45569  0.04839  1.0000
  C   C3165     1.0  0.68495  0.45693  0.98631  1.0000
  C   C3166     1.0  0.97138  0.48129  0.10332  1.0000
  C   C3167     1.0  0.88453  0.45539  0.98760  1.0000
  C   C3168     1.0  0.98125  0.26564  0.13578  1.0000
  C   C3169     1.0  0.54252  0.04024  0.17342  1.0000
  C   C3170     1.0  0.63706  0.05392  0.00403  1.0000
  C   C3171     1.0  0.96887  0.36007  0.08698  1.0000
  C   C3172     1.0  0.66639  0.42091  0.98708  1.0000
  C   C3173     1.0  0.97699  0.36721  0.17146  1.0000
  C   C3174     1.0  0.60594  0.16357  0.01652  1.0000
  H   H2544     1.0  0.50211  0.04809  0.15381  1.0000
  H   H2545     1.0  0.88426  0.44495  0.99914  1.0000
  H   H2546     1.0  0.56478  0.18383  0.98862  1.0000
  C   C3175     1.0  0.50072  0.15811  0.07524  1.0000
  C   C3176     1.0  0.59731  0.18373  0.99085  1.0000
  C   C3177     1.0  0.64700  0.48045  0.00020  1.0000
  C   C3178     1.0  0.95984  0.35345  0.07915  1.0000
  H   H2547     1.0  0.98080  0.32816  0.16423  1.0000
  H   H2548     1.0  0.88732  0.43776  0.15980  1.0000
  C   C3179     1.0  0.95112  0.31935  0.16687  1.0000
  C   C3180     1.0  0.58671  0.99344  0.09299  1.0000
  C   C3181     1.0  0.96222  0.36038  0.17610  1.0000
  H   H2549     1.0  0.59912  0.02395  0.17238  1.0000
  C   C3182     1.0  0.70355  0.47410  0.98862  1.0000
  S   S428      1.0  0.66330  0.48076  0.03795  1.0000
  H   H2550     1.0  0.52611  0.32523  0.99143  1.0000
  H   H2551     1.0  0.54382  0.99164  0.04833  1.0000
  H   H2552     1.0  0.79075  0.48489  0.02471  1.0000
  H   H2553     1.0  0.96103  0.30775  0.16993  1.0000
  Fe  Fe211     1.0  0.49312  0.01375  0.13285  1.0000
  C   C3183     1.0  0.71739  0.48281  0.09874  1.0000
  C   C3184     1.0  0.91978  0.48060  0.99404  1.0000
  H   H2554     1.0  0.69265  0.07609  0.99246  1.0000
  S   S429      1.0  0.65583  0.98800  0.12462  1.0000
  Fe  Fe212     1.0  0.63381  0.12996  0.98794  1.0000
  H   H2555     1.0  0.91703  0.47156  0.17903  1.0000
  C   C3185     1.0  0.52296  0.00141  0.18149  1.0000
  H   H2556     1.0  0.86845  0.47465  0.00179  1.0000
  P   P108      1.0  0.56155  0.03650  0.18224  1.0000
  C   C3186     1.0  0.97260  0.46119  0.17832  1.0000
  C   C3187     1.0  0.91377  0.41916  0.98889  1.0000
  H   H2557     1.0  0.70671  0.48664  0.98618  1.0000
  C   C3188     1.0  0.84886  0.46017  0.18184  1.0000
  H   H2558     1.0  0.62004  0.98958  0.02537  1.0000
  C   C3189     1.0  0.95128  0.40819  0.18192  1.0000
  C   C3190     1.0  0.55422  0.19487  0.98613  1.0000
  C   C3191     1.0  0.49133  0.15478  0.09243  1.0000
  H   H2559     1.0  0.49375  0.08443  0.09529  1.0000
  C   C3192     1.0  0.49282  0.12948  0.04347  1.0000
  C   C3193     1.0  0.93664  0.32352  0.17986  1.0000
  H   H2560     1.0  0.89262  0.48687  0.16490  1.0000
  C   C3194     1.0  0.98697  0.36457  0.18369  1.0000
  H   H2561     1.0  0.92681  0.43950  0.18381  1.0000
  Fe  Fe213     1.0  0.66266  0.03789  0.24846  1.0000
  S   S430      1.0  0.64741  0.01901  0.26691  1.0000
  S   S431      1.0  0.68494  0.04528  0.25398  1.0000
  H   H2562     1.0  0.53000  0.99480  0.30717  1.0000
  H   H2563     1.0  0.79016  0.02574  0.22307  1.0000
  Fe  Fe214     1.0  0.62438  0.03642  0.25640  1.0000
  S   S432      1.0  0.59975  0.04340  0.27601  1.0000
  Fe  Fe215     1.0  0.51394  0.02284  0.26755  1.0000
  C   C3195     1.0  0.94444  0.40369  0.33283  1.0000
  S   S433      1.0  0.52275  0.04025  0.27871  1.0000
  H   H2564     1.0  0.86900  0.04676  0.31986  1.0000
  C   C3196     1.0  0.85760  0.12220  0.32872  1.0000
  C   C3197     1.0  0.56990  0.01341  0.18959  1.0000
  H   H2565     1.0  0.49288  0.01340  0.21611  1.0000
  H   H2566     1.0  0.63431  0.15932  0.31067  1.0000
  C   C3198     1.0  0.85201  0.06799  0.30626  1.0000
  H   H2567     1.0  0.80158  0.99265  0.28379  1.0000
  H   H2568     1.0  0.95022  0.41260  0.32174  1.0000
  H   H2569     1.0  0.96063  0.47785  0.31773  1.0000
  H   H2570     1.0  0.93120  0.35244  0.34288  1.0000
  H   H2571     1.0  0.79564  0.02439  0.33017  1.0000
  C   C3199     1.0  0.91056  0.46736  0.24819  1.0000
  Fe  Fe216     1.0  0.94499  0.40269  0.25491  1.0000
  S   S434      1.0  0.93907  0.39593  0.28405  1.0000
  S   S435      1.0  0.92930  0.39582  0.24024  1.0000
  C   C3200     1.0  0.92188  0.15217  0.28478  1.0000
  S   S436      1.0  0.97180  0.41255  0.28182  1.0000
  H   H2572     1.0  0.98439  0.37705  0.37575  1.0000
  Fe  Fe217     1.0  0.96779  0.38670  0.28157  1.0000
  S   S437      1.0  0.84806  0.07699  0.37663  1.0000
  H   H2573     1.0  0.53441  0.04267  0.24233  1.0000
  H   H2574     1.0  0.90646  0.99938  0.28769  1.0000
  C   C3201     1.0  0.78121  0.12924  0.35613  1.0000
  C   C3202     1.0  0.56406  0.06060  0.19924  1.0000
  C   C3203     1.0  0.74512  0.99549  0.26525  1.0000
  C   C3204     1.0  0.95329  0.07996  0.31089  1.0000
  C   C3205     1.0  0.79466  0.04767  0.30001  1.0000
  S   S438      1.0  0.94364  0.32296  0.36870  1.0000
  S   S439      1.0  0.95893  0.18404  0.36428  1.0000
  Fe  Fe218     1.0  0.97217  0.11898  0.37006  1.0000
  S   S440      1.0  0.96440  0.10021  0.35942  1.0000
  C   C3206     1.0  0.69608  0.00026  0.28474  1.0000
  Fe  Fe219     1.0  0.71552  0.04256  0.33807  1.0000
  S   S441      1.0  0.74233  0.04171  0.32160  1.0000
  S   S442      1.0  0.69098  0.04296  0.33025  1.0000
  H   H2575     1.0  0.69855  0.00546  0.30806  1.0000
  S   S443      1.0  0.75567  0.03525  0.35818  1.0000
  C   C3207     1.0  0.98961  0.33882  0.25265  1.0000
  Fe  Fe220     1.0  0.74514  0.05783  0.33841  1.0000
  S   S444      1.0  0.75663  0.08154  0.32717  1.0000
  Fe  Fe221     1.0  0.75043  0.01934  0.34302  1.0000
  C   C3208     1.0  0.96753  0.34793  0.20515  1.0000
  S   S445      1.0  0.71743  0.06069  0.35332  1.0000
  S   S446      1.0  0.72364  0.01889  0.35813  1.0000
  Fe  Fe222     1.0  0.87644  0.07581  0.36634  1.0000
  H   H2576     1.0  0.69033  0.99381  0.26357  1.0000
  Fe  Fe223     1.0  0.97506  0.41794  0.25290  1.0000
  Fe  Fe224     1.0  0.88051  0.04562  0.34978  1.0000
  S   S447      1.0  0.85265  0.04375  0.35939  1.0000
  S   S448      1.0  0.90120  0.03058  0.33194  1.0000
  Fe  Fe225     1.0  0.84710  0.07293  0.35109  1.0000
  S   S449      1.0  0.82748  0.09131  0.33586  1.0000
  H   H2577     1.0  0.82675  0.99250  0.25368  1.0000
  H   H2578     1.0  0.92433  0.11105  0.28139  1.0000
  S   S450      1.0  0.87481  0.07464  0.33987  1.0000
  S   S451      1.0  0.53005  0.00054  0.21237  1.0000
  H   H2579     1.0  0.94115  0.36217  0.26186  1.0000
  C   C3209     1.0  0.49379  0.02702  0.34057  1.0000
  C   C3210     1.0  0.90369  0.01325  0.30731  1.0000
  C   C3211     1.0  0.89589  0.01519  0.32426  1.0000
  C   C3212     1.0  0.88477  0.00441  0.33484  1.0000
  H   H2580     1.0  0.87768  0.01848  0.25348  1.0000
  C   C3213     1.0  0.92673  0.10191  0.31617  1.0000
  H   H2581     1.0  0.91229  0.02152  0.29909  1.0000
  H   H2582     1.0  0.87862  0.00601  0.34788  1.0000
  Fe  Fe226     1.0  0.65227  0.00683  0.24433  1.0000
  H   H2583     1.0  0.85523  0.03532  0.27293  1.0000
  H   H2584     1.0  0.89820  0.42865  0.26133  1.0000
  H   H2585     1.0  0.85993  0.12155  0.30217  1.0000
  H   H2586     1.0  0.94626  0.36832  0.31485  1.0000
  C   C3214     1.0  0.95109  0.39760  0.34805  1.0000
  H   H2587     1.0  0.84442  0.12042  0.33274  1.0000
  H   H2588     1.0  0.90179  0.46717  0.31261  1.0000
  H   H2589     1.0  0.91123  0.38294  0.34504  1.0000
  H   H2590     1.0  0.90400  0.09150  0.32978  1.0000
  H   H2591     1.0  0.88981  0.12482  0.34570  1.0000
  C   C3215     1.0  0.67892  0.99092  0.31320  1.0000
  H   H2592     1.0  0.95061  0.42798  0.37439  1.0000
  H   H2593     1.0  0.74377  0.00632  0.31850  1.0000
  H   H2594     1.0  0.98995  0.34778  0.35680  1.0000
  C   C3216     1.0  0.92230  0.38705  0.34593  1.0000
  C   C3217     1.0  0.83061  0.06016  0.29649  1.0000
  C   C3218     1.0  0.77664  0.08290  0.33018  1.0000
  C   C3219     1.0  0.78847  0.06850  0.33748  1.0000
  C   C3220     1.0  0.80426  0.07063  0.33949  1.0000
  C   C3221     1.0  0.80817  0.08717  0.33405  1.0000
  C   C3222     1.0  0.79642  0.10132  0.32650  1.0000
  C   C3223     1.0  0.78079  0.09923  0.32466  1.0000
  H   H2595     1.0  0.78549  0.05578  0.34148  1.0000
  H   H2596     1.0  0.81342  0.05955  0.34506  1.0000
  H   H2597     1.0  0.79938  0.11408  0.32212  1.0000
  H   H2598     1.0  0.77183  0.11039  0.31890  1.0000
  C   C3224     1.0  0.94260  0.09833  0.36457  1.0000
  C   C3225     1.0  0.92919  0.11065  0.37190  1.0000
  C   C3226     1.0  0.52224  0.00801  0.34187  1.0000
  C   C3227     1.0  0.90785  0.09575  0.37081  1.0000
  C   C3228     1.0  0.92123  0.08315  0.36395  1.0000
  C   C3229     1.0  0.93854  0.08457  0.36060  1.0000
  C   C3230     1.0  0.80260  0.00242  0.35020  1.0000
  C   C3231     1.0  0.81503  0.99464  0.24900  1.0000
  H   H2599     1.0  0.91821  0.07241  0.36107  1.0000
  H   H2600     1.0  0.94882  0.07503  0.35485  1.0000
  C   C3232     1.0  0.72806  0.01629  0.24544  1.0000
  H   H2601     1.0  0.96255  0.21951  0.35491  1.0000
  C   C3233     1.0  0.97112  0.35088  0.31614  1.0000
  H   H2602     1.0  0.83532  0.98924  0.29937  1.0000
  C   C3234     1.0  0.92636  0.07110  0.32542  1.0000
  H   H2603     1.0  0.98607  0.32971  0.28055  1.0000
  C   C3235     1.0  0.62656  0.13772  0.35302  1.0000
  C   C3236     1.0  0.61861  0.02117  0.31288  1.0000
  C   C3237     1.0  0.97683  0.38749  0.38206  1.0000
  C   C3238     1.0  0.94983  0.41102  0.21100  1.0000
  C   C3239     1.0  0.93752  0.40082  0.21778  1.0000
  C   C3240     1.0  0.93190  0.39447  0.20658  1.0000
  H   H2604     1.0  0.61524  0.16308  0.33916  1.0000
  H   H2605     1.0  0.57262  0.06563  0.18746  1.0000
  H   H2606     1.0  0.95418  0.41600  0.21955  1.0000
  H   H2607     1.0  0.92234  0.38659  0.21183  1.0000
  C   C3241     1.0  0.73485  0.09584  0.36969  1.0000
  C   C3242     1.0  0.68650  0.04428  0.27532  1.0000
  C   C3243     1.0  0.70157  0.04706  0.27798  1.0000
  C   C3244     1.0  0.70328  0.04639  0.29478  1.0000
  C   C3245     1.0  0.68979  0.04317  0.30902  1.0000
  C   C3246     1.0  0.67474  0.04034  0.30638  1.0000
  C   C3247     1.0  0.67311  0.04081  0.28961  1.0000
  H   H2608     1.0  0.71194  0.04979  0.26697  1.0000
  H   H2609     1.0  0.71491  0.04860  0.29668  1.0000
  H   H2610     1.0  0.66425  0.03783  0.31735  1.0000
  H   H2611     1.0  0.66149  0.03859  0.28770  1.0000
  C   C3248     1.0  0.57885  0.04188  0.27564  1.0000
  C   C3249     1.0  0.56477  0.05098  0.28598  1.0000
  C   C3250     1.0  0.54783  0.05030  0.28655  1.0000
  C   C3251     1.0  0.54465  0.04001  0.27731  1.0000
  C   C3252     1.0  0.55871  0.03049  0.26716  1.0000
  C   C3253     1.0  0.57581  0.03174  0.26603  1.0000
  H   H2612     1.0  0.56694  0.05892  0.29333  1.0000
  H   H2613     1.0  0.53709  0.05793  0.29411  1.0000
  H   H2614     1.0  0.55645  0.02248  0.25995  1.0000
  H   H2615     1.0  0.58657  0.02486  0.25781  1.0000
  H   H2616     1.0  0.95705  0.48262  0.22754  1.0000
  C   C3254     1.0  0.85039  0.03782  0.31253  1.0000
  C   C3255     1.0  0.88367  0.12432  0.30643  1.0000
  H   H2617     1.0  0.94602  0.34553  0.19653  1.0000
  H   H2618     1.0  0.61929  0.03455  0.30654  1.0000
  H   H2619     1.0  0.93505  0.46478  0.32980  1.0000
  C   C3256     1.0  0.83603  0.99809  0.32966  1.0000
  C   C3257     1.0  0.94419  0.47685  0.20105  1.0000
  C   C3258     1.0  0.77148  0.10576  0.37910  1.0000
  H   H2620     1.0  0.71112  0.13459  0.31424  1.0000
  C   C3259     1.0  0.92709  0.46095  0.29651  1.0000
  C   C3260     1.0  0.85818  0.05049  0.31347  1.0000
  H   H2621     1.0  0.69425  0.00431  0.34009  1.0000
  C   C3261     1.0  0.98018  0.33582  0.32582  1.0000
  H   H2622     1.0  0.68127  0.13058  0.32652  1.0000
  H   H2623     1.0  0.59079  0.02684  0.31840  1.0000
  C   C3262     1.0  0.50155  0.04138  0.33368  1.0000
  H   H2624     1.0  0.77843  0.14096  0.34624  1.0000
  H   H2625     1.0  0.86043  0.45076  0.18484  1.0000
  C   C3263     1.0  0.92933  0.38027  0.36080  1.0000
  C   C3264     1.0  0.52987  0.02235  0.33474  1.0000
  H   H2626     1.0  0.95815  0.36599  0.23182  1.0000
  C   C3265     1.0  0.93883  0.39811  0.18861  1.0000
  S   S452      1.0  0.97109  0.27515  0.36984  1.0000
  H   H2627     1.0  0.84904  0.99604  0.32185  1.0000
  C   C3266     1.0  0.94166  0.14163  0.33836  1.0000
  C   C3267     1.0  0.97001  0.45403  0.19620  1.0000
  C   C3268     1.0  0.74755  0.99232  0.32053  1.0000
  H   H2628     1.0  0.91925  0.06088  0.33161  1.0000
  C   C3269     1.0  0.90823  0.44050  0.23484  1.0000
  S   S453      1.0  0.64061  0.05468  0.19180  1.0000
  H   H2629     1.0  0.71706  0.00582  0.23098  1.0000
  C   C3270     1.0  0.69366  0.99251  0.36717  1.0000
  C   C3271     1.0  0.90043  0.00068  0.30087  1.0000
  C   C3272     1.0  0.96646  0.42833  0.33936  1.0000
  C   C3273     1.0  0.97166  0.32697  0.34169  1.0000
  H   H2630     1.0  0.90030  0.45246  0.27323  1.0000
  H   H2631     1.0  0.79622  0.05305  0.30995  1.0000
  C   C3274     1.0  0.91502  0.45445  0.22371  1.0000
  C   C3275     1.0  0.77630  0.04748  0.38212  1.0000
  C   C3276     1.0  0.92078  0.13648  0.32542  1.0000
  C   C3277     1.0  0.85546  0.02174  0.27443  1.0000
  H   H2632     1.0  0.91250  0.34173  0.18619  1.0000
  C   C3278     1.0  0.67284  0.05768  0.37393  1.0000
  C   C3279     1.0  0.95460  0.35532  0.25925  1.0000
  S   S454      1.0  0.97347  0.39134  0.25246  1.0000
  Fe  Fe227     1.0  0.72799  0.03668  0.37190  1.0000
  H   H2633     1.0  0.52543  0.05013  0.32509  1.0000
  C   C3280     1.0  0.98090  0.43592  0.33277  1.0000
  H   H2634     1.0  0.64608  0.01206  0.30793  1.0000
  Fe  Fe228     1.0  0.96134  0.29897  0.38109  1.0000
  C   C3281     1.0  0.94417  0.06680  0.31887  1.0000
  H   H2635     1.0  0.76484  0.05175  0.27662  1.0000
  C   C3282     1.0  0.95756  0.35066  0.19290  1.0000
  Fe  Fe229     1.0  0.94360  0.42236  0.28164  1.0000
  C   C3283     1.0  0.90283  0.43982  0.25266  1.0000
  Fe  Fe230     1.0  0.64471  0.04134  0.21902  1.0000
  H   H2636     1.0  0.85555  0.02432  0.31807  1.0000
  H   H2637     1.0  0.58908  0.99610  0.33210  1.0000
  C   C3284     1.0  0.97877  0.45375  0.32518  1.0000
  H   H2638     1.0  0.56679  0.07828  0.21289  1.0000
  S   S455      1.0  0.62800  0.02269  0.23526  1.0000
  Fe  Fe231     1.0  0.51624  0.00532  0.23875  1.0000
  C   C3285     1.0  0.69198  0.99925  0.30258  1.0000
  H   H2639     1.0  0.73978  0.02330  0.26221  1.0000
  H   H2640     1.0  0.76944  0.06432  0.29868  1.0000
  H   H2641     1.0  0.81519  0.10074  0.37183  1.0000
  C   C3286     1.0  0.93031  0.14982  0.25469  1.0000
  C   C3287     1.0  0.88328  0.12479  0.33590  1.0000
  C   C3288     1.0  0.63383  0.00826  0.31359  1.0000
  H   H2642     1.0  0.57827  0.01579  0.21155  1.0000
  S   S456      1.0  0.92526  0.43948  0.29900  1.0000
  C   C3289     1.0  0.77687  0.04702  0.28120  1.0000
  H   H2643     1.0  0.95513  0.34423  0.28630  1.0000
  H   H2644     1.0  0.72208  0.02965  0.24012  1.0000
  C   C3290     1.0  0.93710  0.13162  0.32979  1.0000
  C   C3291     1.0  0.55004  0.06144  0.22917  1.0000
  C   C3292     1.0  0.96427  0.35732  0.24219  1.0000
  C   C3293     1.0  0.96819  0.40305  0.37255  1.0000
  S   S457      1.0  0.49274  0.01007  0.28528  1.0000
  C   C3294     1.0  0.92647  0.15976  0.26711  1.0000
  H   H2645     1.0  0.68295  0.99510  0.20770  1.0000
  C   C3295     1.0  0.66811  0.06875  0.35874  1.0000
  C   C3296     1.0  0.66851  0.08641  0.35478  1.0000
  S   S458      1.0  0.49571  0.99084  0.25415  1.0000
  P   P109      1.0  0.66590  0.10017  0.33378  1.0000
  C   C3297     1.0  0.65800  0.09035  0.32122  1.0000
  C   C3298     1.0  0.65009  0.12016  0.33581  1.0000
  C   C3299     1.0  0.64818  0.13356  0.32096  1.0000
  C   C3300     1.0  0.91770  0.08856  0.32423  1.0000
  C   C3301     1.0  0.67766  0.08190  0.38182  1.0000
  C   C3302     1.0  0.63900  0.12222  0.35183  1.0000
  C   C3303     1.0  0.64268  0.08428  0.32842  1.0000
  C   C3304     1.0  0.63584  0.07754  0.31854  1.0000
  C   C3305     1.0  0.64411  0.07704  0.30133  1.0000
  C   C3306     1.0  0.65923  0.08327  0.29398  1.0000
  C   C3307     1.0  0.66612  0.08999  0.30382  1.0000
  C   C3308     1.0  0.68722  0.10404  0.32338  1.0000
  C   C3309     1.0  0.70054  0.09034  0.31818  1.0000
  C   C3310     1.0  0.71743  0.09272  0.31131  1.0000
  C   C3311     1.0  0.72120  0.10869  0.30982  1.0000
  C   C3312     1.0  0.69113  0.12001  0.32202  1.0000
  C   C3313     1.0  0.70905  0.12449  0.37801  1.0000
  C   C3314     1.0  0.95582  0.46175  0.20748  1.0000
  C   C3315     1.0  0.81791  0.47118  0.19012  1.0000
  H   H2646     1.0  0.66485  0.06330  0.34984  1.0000
  H   H2647     1.0  0.87915  0.98712  0.25699  1.0000
  H   H2648     1.0  0.81887  0.03574  0.37770  1.0000
  H   H2649     1.0  0.63974  0.11186  0.36337  1.0000
  H   H2650     1.0  0.63602  0.08476  0.34168  1.0000
  H   H2651     1.0  0.62414  0.07266  0.32421  1.0000
  H   H2652     1.0  0.63897  0.07163  0.29370  1.0000
  H   H2653     1.0  0.66577  0.08259  0.28071  1.0000
  H   H2654     1.0  0.67771  0.09489  0.29771  1.0000
  H   H2655     1.0  0.69793  0.07772  0.31969  1.0000
  H   H2656     1.0  0.72772  0.08204  0.30755  1.0000
  S   S459      1.0  0.53083  0.99846  0.26010  1.0000
  C   C3316     1.0  0.98199  0.35536  0.20081  1.0000
  H   H2657     1.0  0.85778  0.07783  0.30745  1.0000
  C   C3317     1.0  0.83822  0.07283  0.29779  1.0000
  C   C3318     1.0  0.60251  0.01680  0.31956  1.0000
  C   C3319     1.0  0.89223  0.12543  0.31861  1.0000
  C   C3320     1.0  0.95341  0.35686  0.32231  1.0000
  H   H2658     1.0  0.65629  0.13199  0.30840  1.0000
  C   C3321     1.0  0.80773  0.03442  0.29363  1.0000
  C   C3322     1.0  0.98926  0.39252  0.34046  1.0000
  H   H2659     1.0  0.65436  0.00605  0.19731  1.0000
  C   C3323     1.0  0.77941  0.05406  0.29368  1.0000
  C   C3324     1.0  0.72510  0.00265  0.24039  1.0000
  C   C3325     1.0  0.69718  0.99227  0.34959  1.0000
  C   C3326     1.0  0.86888  0.99466  0.26511  1.0000
  H   H2660     1.0  0.97805  0.38059  0.32691  1.0000
  C   C3327     1.0  0.86812  0.01229  0.26325  1.0000
  H   H2661     1.0  0.93542  0.31521  0.19280  1.0000
  C   C3328     1.0  0.63572  0.14902  0.32219  1.0000
  H   H2662     1.0  0.60272  0.98819  0.29844  1.0000
  H   H2663     1.0  0.80571  0.47041  0.19926  1.0000
  C   C3329     1.0  0.94364  0.38556  0.36191  1.0000
  C   C3330     1.0  0.73566  0.10329  0.38283  1.0000
  H   H2664     1.0  0.83331  0.08645  0.29243  1.0000
  H   H2665     1.0  0.73099  0.99099  0.30490  1.0000
  P   P110      1.0  0.96886  0.40541  0.34980  1.0000
  C   C3331     1.0  0.98969  0.38118  0.33027  1.0000
  C   C3332     1.0  0.97314  0.34347  0.38203  1.0000
  H   H2666     1.0  0.53032  0.99507  0.34478  1.0000
  H   H2667     1.0  0.77310  0.00298  0.23207  1.0000
  C   C3333     1.0  0.95905  0.19813  0.37695  1.0000
  C   C3334     1.0  0.94784  0.45676  0.33078  1.0000
  C   C3335     1.0  0.50426  0.01030  0.34478  1.0000
  H   H2668     1.0  0.89316  0.48306  0.20785  1.0000
  C   C3336     1.0  0.84360  0.01354  0.28772  1.0000
  C   C3337     1.0  0.78484  0.00063  0.23678  1.0000
  C   C3338     1.0  0.91362  0.16135  0.33872  1.0000
  C   C3339     1.0  0.92954  0.13228  0.25993  1.0000
  C   C3340     1.0  0.54619  0.04018  0.21609  1.0000
  S   S460      1.0  0.88588  0.09518  0.37432  1.0000
  H   H2669     1.0  0.95273  0.45872  0.28026  1.0000
  P   P111      1.0  0.91525  0.12452  0.31296  1.0000
  C   C3341     1.0  0.60665  0.99194  0.27088  1.0000
  C   C3342     1.0  0.92994  0.15644  0.34288  1.0000
  C   C3343     1.0  0.86603  0.12326  0.34091  1.0000
  H   H2670     1.0  0.98718  0.45900  0.25661  1.0000
  C   C3344     1.0  0.72121  0.10261  0.36089  1.0000
  C   C3345     1.0  0.62495  0.15113  0.33823  1.0000
  C   C3346     1.0  0.92993  0.39864  0.33192  1.0000
  S   S461      1.0  0.88443  0.04693  0.37533  1.0000
  H   H2671     1.0  0.72090  0.09691  0.35059  1.0000
  C   C3347     1.0  0.83639  0.04255  0.30421  1.0000
  C   C3348     1.0  0.94986  0.43902  0.33854  1.0000
  C   C3349     1.0  0.81561  0.98844  0.35570  1.0000
  H   H2672     1.0  0.93389  0.15572  0.24101  1.0000
  H   H2673     1.0  0.49835  0.05040  0.18414  1.0000
  C   C3350     1.0  0.96228  0.46412  0.32400  1.0000
  C   C3351     1.0  0.56080  0.06785  0.21365  1.0000
  H   H2674     1.0  0.92708  0.17336  0.26306  1.0000
  H   H2675     1.0  0.68841  0.00491  0.37082  1.0000
  S   S462      1.0  0.63924  0.05658  0.23958  1.0000
  H   H2676     1.0  0.95425  0.13767  0.34179  1.0000
  H   H2677     1.0  0.91160  0.47741  0.25375  1.0000
  H   H2678     1.0  0.75477  0.12711  0.36474  1.0000
  H   H2679     1.0  0.81501  0.01743  0.27565  1.0000
  C   C3352     1.0  0.49825  0.01074  0.20330  1.0000
  C   C3353     1.0  0.82284  0.01175  0.32361  1.0000
  C   C3354     1.0  0.70807  0.12233  0.31517  1.0000
  H   H2680     1.0  0.69781  0.12215  0.35816  1.0000
  H   H2681     1.0  0.79858  0.99605  0.31332  1.0000
  C   C3355     1.0  0.94492  0.34796  0.33822  1.0000
  C   C3356     1.0  0.80956  0.01044  0.23778  1.0000
  C   C3357     1.0  0.57796  0.00713  0.20393  1.0000
  H   H2682     1.0  0.94636  0.12001  0.32690  1.0000
  C   C3358     1.0  0.78865  0.09844  0.38097  1.0000
  H   H2683     1.0  0.67531  0.99096  0.32689  1.0000
  H   H2684     1.0  0.67343  0.04387  0.37639  1.0000
  H   H2685     1.0  0.52359  0.04535  0.19670  1.0000
  H   H2686     1.0  0.95389  0.45587  0.22123  1.0000
  H   H2687     1.0  0.61804  0.13926  0.36541  1.0000
  C   C3359     1.0  0.73801  0.01272  0.25791  1.0000
  P   P112      1.0  0.82728  0.02576  0.30222  1.0000
  S   S463      1.0  0.94709  0.42990  0.25270  1.0000
  H   H2688     1.0  0.89038  0.12416  0.29316  1.0000
  H   H2689     1.0  0.61299  0.00259  0.26821  1.0000
  S   S464      1.0  0.98234  0.36184  0.29647  1.0000
  H   H2690     1.0  0.96609  0.42272  0.18789  1.0000
  H   H2691     1.0  0.97864  0.31526  0.34895  1.0000
  H   H2692     1.0  0.96712  0.07661  0.30586  1.0000
  C   C3360     1.0  0.78975  0.03379  0.27478  1.0000
  H   H2693     1.0  0.54760  0.06689  0.24043  1.0000
  C   C3361     1.0  0.90400  0.45324  0.25933  1.0000
  H   H2694     1.0  0.74489  0.08498  0.36593  1.0000
  C   C3362     1.0  0.63305  0.99072  0.32079  1.0000
  S   S465      1.0  0.66934  0.02429  0.22643  1.0000
  H   H2695     1.0  0.82036  0.06426  0.28937  1.0000
  H   H2696     1.0  0.96375  0.34024  0.21805  1.0000
  C   C3363     1.0  0.60159  0.99948  0.32715  1.0000
  H   H2697     1.0  0.85946  0.12219  0.35442  1.0000
  H   H2698     1.0  0.60789  0.99342  0.24400  1.0000
  C   C3364     1.0  0.91326  0.47186  0.30521  1.0000
  C   C3365     1.0  0.80519  0.02762  0.28084  1.0000
  C   C3366     1.0  0.80616  0.01404  0.33424  1.0000
  C   C3367     1.0  0.54266  0.04771  0.23030  1.0000
  H   H2699     1.0  0.98384  0.38945  0.20119  1.0000
  H   H2700     1.0  0.94882  0.38017  0.37356  1.0000
  C   C3368     1.0  0.77278  0.06525  0.38164  1.0000
  H   H2701     1.0  0.81704  0.02038  0.23384  1.0000
  Fe  Fe232     1.0  0.97029  0.15557  0.37386  1.0000
  C   C3369     1.0  0.92115  0.13452  0.29017  1.0000
  C   C3370     1.0  0.79444  0.01346  0.23172  1.0000
  S   S466      1.0  0.50117  0.03118  0.24455  1.0000
  H   H2702     1.0  0.92464  0.40369  0.32028  1.0000
  C   C3371     1.0  0.95409  0.33320  0.34812  1.0000
  C   C3372     1.0  0.88994  0.98939  0.31155  1.0000
  C   C3373     1.0  0.84417  0.99594  0.28919  1.0000
  C   C3374     1.0  0.90908  0.15150  0.32993  1.0000
  C   C3375     1.0  0.96244  0.34519  0.27301  1.0000
  H   H2703     1.0  0.83232  0.00749  0.36923  1.0000
  H   H2704     1.0  0.73441  0.11031  0.30487  1.0000
  C   C3376     1.0  0.88214  0.99118  0.32864  1.0000
  H   H2705     1.0  0.95179  0.10748  0.30276  1.0000
  H   H2706     1.0  0.77918  0.07362  0.37056  1.0000
  H   H2707     1.0  0.78767  0.02823  0.26523  1.0000
  H   H2708     1.0  0.97883  0.44239  0.20145  1.0000
  P   P113      1.0  0.92518  0.48584  0.21569  1.0000
  C   C3377     1.0  0.95660  0.41477  0.19310  1.0000
  C   C3378     1.0  0.51951  0.03904  0.33081  1.0000
  H   H2709     1.0  0.78958  0.00392  0.35806  1.0000
  S   S467      1.0  0.98656  0.13983  0.35428  1.0000
  C   C3379     1.0  0.65185  0.99906  0.18921  1.0000
  C   C3380     1.0  0.76784  0.12124  0.36659  1.0000
  H   H2710     1.0  0.86445  0.98883  0.37687  1.0000
  H   H2711     1.0  0.49376  0.05436  0.33003  1.0000
  C   C3381     1.0  0.86640  0.12279  0.31148  1.0000
  H   H2712     1.0  0.93212  0.12136  0.37487  1.0000
  C   C3382     1.0  0.91612  0.46806  0.23027  1.0000
  C   C3383     1.0  0.94459  0.09745  0.30935  1.0000
  H   H2713     1.0  0.63926  0.99075  0.22424  1.0000
  H   H2714     1.0  0.92382  0.37070  0.37135  1.0000
  H   H2715     1.0  0.54383  0.02057  0.33201  1.0000
  H   H2716     1.0  0.91897  0.16013  0.29413  1.0000
  C   C3384     1.0  0.55667  0.04675  0.20033  1.0000
  H   H2717     1.0  0.54085  0.02911  0.21745  1.0000
  H   H2718     1.0  0.78554  0.04221  0.37166  1.0000
  C   C3385     1.0  0.91189  0.10945  0.37480  1.0000
  H   H2719     1.0  0.95084  0.05324  0.32000  1.0000
  H   H2720     1.0  0.93357  0.16407  0.34962  1.0000
  H   H2721     1.0  0.93250  0.12457  0.25031  1.0000
  C   C3386     1.0  0.92496  0.12465  0.27758  1.0000
  C   C3387     1.0  0.94195  0.46715  0.28695  1.0000
  H   H2722     1.0  0.49865  0.99899  0.34994  1.0000
  H   H2723     1.0  0.91962  0.45449  0.21004  1.0000
  H   H2724     1.0  0.98988  0.45958  0.32009  1.0000
  H   H2725     1.0  0.90762  0.42994  0.22972  1.0000
  H   H2726     1.0  0.75255  0.99267  0.27518  1.0000
  C   C3388     1.0  0.70827  0.11687  0.36510  1.0000
  H   H2727     1.0  0.67432  0.03064  0.18581  1.0000
  H   H2728     1.0  0.90454  0.17287  0.34221  1.0000
  C   C3389     1.0  0.97995  0.33695  0.26972  1.0000
  C   C3390     1.0  0.94293  0.48421  0.28645  1.0000
  C   C3391     1.0  0.80192  0.10659  0.37062  1.0000
  C   C3392     1.0  0.96083  0.21523  0.36889  1.0000
  S   S468      1.0  0.98742  0.30101  0.38263  1.0000
  H   H2729     1.0  0.70562  0.00739  0.27652  1.0000
  C   C3393     1.0  0.51609  0.00446  0.19820  1.0000
  H   H2730     1.0  0.67408  0.10640  0.36347  1.0000
  H   H2731     1.0  0.83267  0.44919  0.20552  1.0000
  H   H2732     1.0  0.93838  0.43373  0.34377  1.0000
  C   C3394     1.0  0.67330  0.09291  0.36646  1.0000
  H   H2733     1.0  0.89651  0.15573  0.32651  1.0000
  H   H2734     1.0  0.96173  0.34563  0.37685  1.0000
  H   H2735     1.0  0.96210  0.23990  0.37244  1.0000
  C   C3395     1.0  0.98908  0.34467  0.37072  1.0000
  C   C3396     1.0  0.69654  0.98885  0.20690  1.0000
  H   H2736     1.0  0.69912  0.13566  0.38117  1.0000
  H   H2737     1.0  0.80871  0.12779  0.34974  1.0000
  C   C3397     1.0  0.95784  0.41609  0.38128  1.0000
  C   C3398     1.0  0.79825  0.12192  0.35815  1.0000
  C   C3399     1.0  0.58604  0.98952  0.20838  1.0000
  C   C3400     1.0  0.98179  0.34877  0.23871  1.0000
  S   S469      1.0  0.76803  0.99358  0.34112  1.0000
  C   C3401     1.0  0.82402  0.00784  0.38195  1.0000
  C   C3402     1.0  0.68740  0.99270  0.27748  1.0000
  C   C3403     1.0  0.96057  0.22680  0.37880  1.0000
  C   C3404     1.0  0.83310  0.45923  0.19364  1.0000
  H   H2738     1.0  0.90155  0.11931  0.37994  1.0000
  H   H2739     1.0  0.93495  0.05084  0.38524  1.0000
  H   H2740     1.0  0.86852  0.99529  0.49000  1.0000
  P   P114      1.0  0.63527  0.02455  0.51627  1.0000
  C   C3405     1.0  0.58665  0.05490  0.51406  1.0000
  C   C3406     1.0  0.89237  0.99128  0.40710  1.0000
  C   C3407     1.0  0.71825  0.00374  0.55939  1.0000
  C   C3408     1.0  0.92224  0.20053  0.50705  1.0000
  C   C3409     1.0  0.98708  0.33465  0.40665  1.0000
  C   C3410     1.0  0.77976  0.99775  0.51064  1.0000
  S   S470      1.0  0.57237  0.07391  0.56965  1.0000
  C   C3411     1.0  0.87554  0.99479  0.47686  1.0000
  Fe  Fe233     1.0  0.97568  0.13766  0.51854  1.0000
  C   C3412     1.0  0.93963  0.02282  0.39198  1.0000
  Fe  Fe234     1.0  0.94233  0.15199  0.50490  1.0000
  S   S471      1.0  0.92581  0.14180  0.53040  1.0000
  S   S472      1.0  0.93245  0.16602  0.48045  1.0000
  Fe  Fe235     1.0  0.94247  0.15153  0.54161  1.0000
  Fe  Fe236     1.0  0.94682  0.11740  0.53133  1.0000
  S   S473      1.0  0.94440  0.08948  0.53641  1.0000
  S   S474      1.0  0.95729  0.16371  0.51600  1.0000
  S   S475      1.0  0.96221  0.12706  0.50507  1.0000
  S   S476      1.0  0.96411  0.26283  0.52114  1.0000
  S   S477      1.0  0.94804  0.31027  0.49954  1.0000
  H   H2741     1.0  0.90809  0.27539  0.51838  1.0000
  C   C3413     1.0  0.89212  0.22969  0.45561  1.0000
  C   C3414     1.0  0.94354  0.34350  0.52692  1.0000
  Fe  Fe237     1.0  0.98235  0.28427  0.40930  1.0000
  H   H2742     1.0  0.67149  0.02402  0.51617  1.0000
  C   C3415     1.0  0.98998  0.10384  0.47352  1.0000
  H   H2743     1.0  0.50500  0.01773  0.55616  1.0000
  Fe  Fe238     1.0  0.96749  0.26030  0.39769  1.0000
  S   S478      1.0  0.95760  0.23551  0.40990  1.0000
  C   C3416     1.0  0.98666  0.24281  0.48144  1.0000
  S   S479      1.0  0.95526  0.28413  0.40891  1.0000
  H   H2744     1.0  0.65084  0.05477  0.50271  1.0000
  S   S480      1.0  0.96733  0.11288  0.43225  1.0000
  C   C3417     1.0  0.65681  0.03361  0.46419  1.0000
  Fe  Fe239     1.0  0.70332  0.07099  0.47496  1.0000
  S   S481      1.0  0.71122  0.08858  0.48641  1.0000
  S   S482      1.0  0.69421  0.08206  0.44966  1.0000
  Fe  Fe240     1.0  0.71321  0.03964  0.50272  1.0000
  S   S483      1.0  0.72230  0.05423  0.51649  1.0000
  S   S484      1.0  0.71519  0.01120  0.51405  1.0000
  Fe  Fe241     1.0  0.69832  0.07449  0.51209  1.0000
  S   S485      1.0  0.68571  0.08996  0.53253  1.0000
  Fe  Fe242     1.0  0.73454  0.06710  0.48987  1.0000
  S   S486      1.0  0.76051  0.07419  0.48154  1.0000
  S   S487      1.0  0.68797  0.05884  0.50053  1.0000
  S   S488      1.0  0.72785  0.05044  0.47635  1.0000
  Fe  Fe243     1.0  0.86840  0.05513  0.52630  1.0000
  S   S489      1.0  0.88706  0.04023  0.50705  1.0000
  S   S490      1.0  0.87219  0.07288  0.54102  1.0000
  Fe  Fe244     1.0  0.83748  0.04369  0.52314  1.0000
  S   S491      1.0  0.85313  0.02817  0.50352  1.0000
  S   S492      1.0  0.80957  0.04341  0.53512  1.0000
  Fe  Fe245     1.0  0.87250  0.01902  0.52050  1.0000
  H   H2745     1.0  0.85029  0.99856  0.40432  1.0000
  Fe  Fe246     1.0  0.86621  0.05045  0.49146  1.0000
  S   S493      1.0  0.87314  0.06124  0.46262  1.0000
  S   S494      1.0  0.85581  0.03282  0.54122  1.0000
  S   S495      1.0  0.84862  0.06712  0.50955  1.0000
  C   C3418     1.0  0.85243  0.04300  0.42602  1.0000
  C   C3419     1.0  0.84861  0.03603  0.44394  1.0000
  C   C3420     1.0  0.85452  0.04185  0.45535  1.0000
  C   C3421     1.0  0.86470  0.05426  0.44888  1.0000
  C   C3422     1.0  0.86845  0.06124  0.43098  1.0000
  C   C3423     1.0  0.86218  0.05579  0.41962  1.0000
  H   H2746     1.0  0.84125  0.02601  0.44904  1.0000
  H   H2747     1.0  0.85141  0.03646  0.46907  1.0000
  H   H2748     1.0  0.87632  0.07083  0.42583  1.0000
  H   H2749     1.0  0.86524  0.06131  0.40587  1.0000
  C   C3424     1.0  0.77431  0.06424  0.49625  1.0000
  C   C3425     1.0  0.79205  0.06376  0.49056  1.0000
  C   C3426     1.0  0.80314  0.05681  0.50232  1.0000
  C   C3427     1.0  0.79642  0.05038  0.51984  1.0000
  C   C3428     1.0  0.77880  0.05030  0.52544  1.0000
  C   C3429     1.0  0.76779  0.05711  0.51362  1.0000
  H   H2750     1.0  0.79728  0.06852  0.47702  1.0000
  H   H2751     1.0  0.81679  0.05672  0.49787  1.0000
  H   H2752     1.0  0.77361  0.04529  0.53898  1.0000
  H   H2753     1.0  0.75419  0.05743  0.51812  1.0000
  H   H2754     1.0  0.78262  0.10747  0.46785  1.0000
  H   H2755     1.0  0.76827  0.03630  0.48247  1.0000
  C   C3430     1.0  0.70602  0.00110  0.50380  1.0000
  C   C3431     1.0  0.69910  0.01035  0.48916  1.0000
  H   H2756     1.0  0.57394  0.07780  0.52439  1.0000
  H   H2757     1.0  0.98787  0.14270  0.47750  1.0000
  H   H2758     1.0  0.69884  0.02408  0.48435  1.0000
  C   C3432     1.0  0.73530  0.10129  0.51402  1.0000
  Fe  Fe247     1.0  0.97450  0.12492  0.40396  1.0000
  C   C3433     1.0  0.90607  0.28504  0.52583  1.0000
  H   H2759     1.0  0.72267  0.99670  0.39205  1.0000
  H   H2760     1.0  0.70515  0.04479  0.45683  1.0000
  H   H2761     1.0  0.95991  0.33682  0.40868  1.0000
  H   H2762     1.0  0.96406  0.39633  0.42231  1.0000
  C   C3434     1.0  0.95578  0.20451  0.40497  1.0000
  C   C3435     1.0  0.80568  0.09249  0.52312  1.0000
  H   H2763     1.0  0.51705  0.04694  0.57534  1.0000
  C   C3436     1.0  0.97011  0.31149  0.58175  1.0000
  C   C3437     1.0  0.81060  0.99286  0.41022  1.0000
  H   H2764     1.0  0.96896  0.18681  0.43962  1.0000
  C   C3438     1.0  0.96078  0.30457  0.48004  1.0000
  C   C3439     1.0  0.95518  0.31201  0.46432  1.0000
  C   C3440     1.0  0.96462  0.30623  0.44910  1.0000
  C   C3441     1.0  0.98012  0.29361  0.44945  1.0000
  H   H2765     1.0  0.96781  0.17100  0.47021  1.0000
  C   C3442     1.0  0.97630  0.29207  0.48027  1.0000
  H   H2766     1.0  0.94330  0.32189  0.46402  1.0000
  H   H2767     1.0  0.96011  0.31168  0.43707  1.0000
  C   C3443     1.0  0.67983  0.02145  0.42131  1.0000
  H   H2768     1.0  0.98093  0.28649  0.49219  1.0000
  C   C3444     1.0  0.92433  0.08545  0.53668  1.0000
  C   C3445     1.0  0.90872  0.09702  0.54147  1.0000
  C   C3446     1.0  0.89286  0.09279  0.54308  1.0000
  C   C3447     1.0  0.89246  0.07735  0.53918  1.0000
  C   C3448     1.0  0.90807  0.06609  0.53370  1.0000
  C   C3449     1.0  0.92394  0.06997  0.53281  1.0000
  H   H2769     1.0  0.90884  0.10906  0.54428  1.0000
  H   H2770     1.0  0.88085  0.10168  0.54708  1.0000
  H   H2771     1.0  0.90792  0.05441  0.53020  1.0000
  H   H2772     1.0  0.93597  0.06104  0.52894  1.0000
  C   C3450     1.0  0.93940  0.15168  0.46637  1.0000
  C   C3451     1.0  0.94462  0.15782  0.44843  1.0000
  C   C3452     1.0  0.95277  0.14599  0.43762  1.0000
  C   C3453     1.0  0.95546  0.12809  0.44479  1.0000
  C   C3454     1.0  0.94922  0.12208  0.46249  1.0000
  C   C3455     1.0  0.94114  0.13383  0.47326  1.0000
  H   H2773     1.0  0.94323  0.17161  0.44301  1.0000
  H   H2774     1.0  0.95747  0.15070  0.42389  1.0000
  H   H2775     1.0  0.95099  0.10825  0.46793  1.0000
  H   H2776     1.0  0.93648  0.12904  0.48697  1.0000
  C   C3456     1.0  0.74678  0.00662  0.54230  1.0000
  C   C3457     1.0  0.97775  0.17437  0.44264  1.0000
  H   H2777     1.0  0.94939  0.19045  0.53788  1.0000
  C   C3458     1.0  0.68387  0.99828  0.40669  1.0000
  C   C3459     1.0  0.97714  0.16547  0.45994  1.0000
  H   H2778     1.0  0.90411  0.05500  0.40042  1.0000
  H   H2779     1.0  0.62513  0.05400  0.53322  1.0000
  H   H2780     1.0  0.79209  0.99088  0.54326  1.0000
  C   C3460     1.0  0.67247  0.02007  0.54289  1.0000
  C   C3461     1.0  0.75028  0.99264  0.43549  1.0000
  H   H2781     1.0  0.76993  0.02288  0.39594  1.0000
  C   C3462     1.0  0.91213  0.04194  0.40075  1.0000
  H   H2782     1.0  0.97757  0.24580  0.49301  1.0000
  C   C3463     1.0  0.94265  0.19576  0.54916  1.0000
  C   C3464     1.0  0.87425  0.99580  0.41170  1.0000
  H   H2783     1.0  0.91575  0.16165  0.38533  1.0000
  C   C3465     1.0  0.79773  0.99631  0.50654  1.0000
  C   C3466     1.0  0.66336  0.09253  0.54102  1.0000
  C   C3467     1.0  0.65431  0.07995  0.54220  1.0000
  C   C3468     1.0  0.63657  0.08223  0.55024  1.0000
  C   C3469     1.0  0.62791  0.09730  0.55652  1.0000
  C   C3470     1.0  0.63697  0.10992  0.55489  1.0000
  C   C3471     1.0  0.65467  0.10736  0.54756  1.0000
  H   H2784     1.0  0.66103  0.06838  0.53730  1.0000
  H   H2785     1.0  0.74589  0.98884  0.42609  1.0000
  C   C3472     1.0  0.82104  0.99240  0.39369  1.0000
  H   H2786     1.0  0.66162  0.11704  0.54673  1.0000
  C   C3473     1.0  0.76760  0.03654  0.39589  1.0000
  C   C3474     1.0  0.77647  0.02508  0.48920  1.0000
  C   C3475     1.0  0.94156  0.08716  0.58151  1.0000
  C   C3476     1.0  0.75205  0.06109  0.40892  1.0000
  C   C3477     1.0  0.92456  0.20982  0.57803  1.0000
  C   C3478     1.0  0.98608  0.28687  0.46498  1.0000
  P   P115      1.0  0.75425  0.09551  0.39289  1.0000
  H   H2787     1.0  0.65902  0.07463  0.57808  1.0000
  C   C3479     1.0  0.86425  0.99490  0.40080  1.0000
  C   C3480     1.0  0.66342  0.01721  0.56017  1.0000
  H   H2788     1.0  0.95612  0.35326  0.56073  1.0000
  S   S496      1.0  0.96211  0.12606  0.54499  1.0000
  Fe  Fe248     1.0  0.95754  0.29090  0.52249  1.0000
  C   C3481     1.0  0.86082  0.11013  0.41347  1.0000
  C   C3482     1.0  0.84621  0.12041  0.42198  1.0000
  C   C3483     1.0  0.84784  0.12873  0.43396  1.0000
  C   C3484     1.0  0.86409  0.12666  0.43749  1.0000
  C   C3485     1.0  0.87877  0.11603  0.42927  1.0000
  C   C3486     1.0  0.87709  0.10809  0.41693  1.0000
  P   P116      1.0  0.89960  0.11372  0.43397  1.0000
  C   C3487     1.0  0.90534  0.13464  0.42481  1.0000
  C   C3488     1.0  0.89890  0.10678  0.45698  1.0000
  C   C3489     1.0  0.91313  0.10667  0.46332  1.0000
  C   C3490     1.0  0.91258  0.10201  0.48117  1.0000
  C   C3491     1.0  0.89803  0.09696  0.49271  1.0000
  C   C3492     1.0  0.88424  0.09601  0.48647  1.0000
  C   C3493     1.0  0.88471  0.10074  0.46862  1.0000
  C   C3494     1.0  0.90823  0.14105  0.40675  1.0000
  C   C3495     1.0  0.91298  0.15705  0.39932  1.0000
  C   C3496     1.0  0.91483  0.16680  0.40990  1.0000
  C   C3497     1.0  0.91142  0.16079  0.42794  1.0000
  C   C3498     1.0  0.90659  0.14484  0.43541  1.0000
  C   C3499     1.0  0.91575  0.09670  0.42507  1.0000
  C   C3500     1.0  0.91247  0.08003  0.42875  1.0000
  C   C3501     1.0  0.92499  0.06664  0.42221  1.0000
  C   C3502     1.0  0.94092  0.06978  0.41203  1.0000
  C   C3503     1.0  0.94449  0.08617  0.40883  1.0000
  C   C3504     1.0  0.93205  0.09952  0.41554  1.0000
  C   C3505     1.0  0.96403  0.32536  0.56887  1.0000
  C   C3506     1.0  0.91621  0.20758  0.44542  1.0000
  H   H2789     1.0  0.83653  0.13674  0.44052  1.0000
  H   H2790     1.0  0.86524  0.13323  0.44673  1.0000
  H   H2791     1.0  0.88823  0.10032  0.40989  1.0000
  H   H2792     1.0  0.92456  0.11038  0.45441  1.0000
  H   H2793     1.0  0.92338  0.10230  0.48614  1.0000
  H   H2794     1.0  0.87328  0.09148  0.49552  1.0000
  H   H2795     1.0  0.87414  0.09939  0.46401  1.0000
  H   H2796     1.0  0.90717  0.13349  0.39839  1.0000
  C   C3507     1.0  0.51500  0.04053  0.54310  1.0000
  S   S497      1.0  0.97312  0.28968  0.58054  1.0000
  H   H2797     1.0  0.91280  0.16835  0.43617  1.0000
  H   H2798     1.0  0.90401  0.14059  0.44940  1.0000
  H   H2799     1.0  0.90024  0.07739  0.43675  1.0000
  H   H2800     1.0  0.92233  0.05383  0.42516  1.0000
  H   H2801     1.0  0.90256  0.00485  0.54514  1.0000
  H   H2802     1.0  0.65044  0.04975  0.57439  1.0000
  H   H2803     1.0  0.93531  0.11190  0.41344  1.0000
  Fe  Fe249     1.0  0.98819  0.26242  0.52918  1.0000
  H   H2804     1.0  0.74434  0.08387  0.53638  1.0000
  C   C3508     1.0  0.92785  0.10117  0.57775  1.0000
  H   H2805     1.0  0.98664  0.21529  0.43698  1.0000
  C   C3509     1.0  0.90518  0.31421  0.57862  1.0000
  C   C3510     1.0  0.92151  0.21843  0.50104  1.0000
  H   H2806     1.0  0.98387  0.22576  0.52050  1.0000
  H   H2807     1.0  0.91907  0.17892  0.40408  1.0000
  H   H2808     1.0  0.92412  0.25540  0.44889  1.0000
  H   H2809     1.0  0.83016  0.00117  0.43093  1.0000
  C   C3511     1.0  0.91630  0.33912  0.54659  1.0000
  H   H2810     1.0  0.92851  0.29919  0.46446  1.0000
  H   H2811     1.0  0.72291  0.09761  0.51755  1.0000
  C   C3512     1.0  0.74735  0.09360  0.52465  1.0000
  H   H2812     1.0  0.89610  0.24180  0.47381  1.0000
  C   C3513     1.0  0.82550  0.99354  0.44360  1.0000
  C   C3514     1.0  0.98032  0.19623  0.48016  1.0000
  H   H2813     1.0  0.89139  0.02945  0.41570  1.0000
  S   S498      1.0  0.97700  0.25463  0.55751  1.0000
  H   H2814     1.0  0.98936  0.17366  0.41586  1.0000
  C   C3515     1.0  0.80098  0.01373  0.58003  1.0000
  H   H2815     1.0  0.66930  0.05443  0.44860  1.0000
  H   H2816     1.0  0.98912  0.24963  0.43819  1.0000
  H   H2817     1.0  0.68959  0.12691  0.56194  1.0000
  C   C3516     1.0  0.90218  0.30978  0.54512  1.0000
  H   H2818     1.0  0.90024  0.19966  0.54878  1.0000
  C   C3517     1.0  0.94332  0.21269  0.54950  1.0000
  C   C3518     1.0  0.79906  0.11012  0.51630  1.0000
  H   H2819     1.0  0.95044  0.22045  0.53845  1.0000
  H   H2820     1.0  0.91033  0.24359  0.50783  1.0000
  H   H2821     1.0  0.84686  0.99875  0.53194  1.0000
  C   C3519     1.0  0.90106  0.29254  0.55357  1.0000
  C   C3520     1.0  0.93131  0.33329  0.53481  1.0000
  C   C3521     1.0  0.98141  0.24831  0.46560  1.0000
  C   C3522     1.0  0.92577  0.27839  0.45514  1.0000
  C   C3523     1.0  0.76355  0.09788  0.51985  1.0000
  H   H2822     1.0  0.93375  0.32080  0.53170  1.0000
  H   H2823     1.0  0.93818  0.27976  0.49094  1.0000
  C   C3524     1.0  0.63768  0.01856  0.55058  1.0000
  C   C3525     1.0  0.66291  0.04860  0.46147  1.0000
  Fe  Fe250     1.0  0.85598  0.04803  0.38417  1.0000
  H   H2824     1.0  0.68464  0.02741  0.42868  1.0000
  H   H2825     1.0  0.94044  0.99547  0.40004  1.0000
  C   C3526     1.0  0.70391  0.07345  0.41784  1.0000
  C   C3527     1.0  0.98771  0.21318  0.52882  1.0000
  H   H2826     1.0  0.74886  0.03475  0.41995  1.0000
  H   H2827     1.0  0.66523  0.06793  0.47323  1.0000
  H   H2828     1.0  0.83829  0.02402  0.57913  1.0000
  H   H2829     1.0  0.95655  0.20138  0.49875  1.0000
  C   C3528     1.0  0.74130  0.10746  0.44734  1.0000
  C   C3529     1.0  0.75763  0.10809  0.43671  1.0000
  H   H2830     1.0  0.91537  0.17997  0.52880  1.0000
  C   C3530     1.0  0.64622  0.99051  0.51189  1.0000
  H   H2831     1.0  0.73834  0.10983  0.46028  1.0000
  H   H2832     1.0  0.76728  0.11107  0.44142  1.0000
  S   S499      1.0  0.60582  0.10112  0.56648  1.0000
  C   C3531     1.0  0.98514  0.19826  0.52589  1.0000
  C   C3532     1.0  0.68997  0.11336  0.56828  1.0000
  C   C3533     1.0  0.90585  0.20498  0.53541  1.0000
  C   C3534     1.0  0.90463  0.22289  0.52945  1.0000
  C   C3535     1.0  0.91452  0.19384  0.52416  1.0000
  P   P117      1.0  0.79235  0.00906  0.43750  1.0000
  C   C3536     1.0  0.74492  0.99893  0.46379  1.0000
  C   C3537     1.0  0.78894  0.03065  0.44095  1.0000
  C   C3538     1.0  0.77234  0.04158  0.44326  1.0000
  C   C3539     1.0  0.77019  0.05857  0.44491  1.0000
  C   C3540     1.0  0.78454  0.06476  0.44425  1.0000
  C   C3541     1.0  0.80110  0.05408  0.44179  1.0000
  C   C3542     1.0  0.80326  0.03709  0.44019  1.0000
  H   H2833     1.0  0.72349  0.12434  0.39623  1.0000
  S   S500      1.0  0.95428  0.13574  0.38786  1.0000
  C   C3543     1.0  0.92168  0.31145  0.58200  1.0000
  C   C3544     1.0  0.95391  0.21612  0.47284  1.0000
  H   H2834     1.0  0.64498  0.02685  0.40410  1.0000
  C   C3545     1.0  0.80318  0.00883  0.41519  1.0000
  C   C3546     1.0  0.80627  0.02427  0.40329  1.0000
  C   C3547     1.0  0.61605  0.99880  0.52574  1.0000
  C   C3548     1.0  0.89327  0.99387  0.44256  1.0000
  H   H2835     1.0  0.70045  0.08726  0.41235  1.0000
  H   H2836     1.0  0.92881  0.19174  0.49846  1.0000
  S   S501      1.0  0.72232  0.02840  0.40106  1.0000
  C   C3549     1.0  0.92630  0.36538  0.54292  1.0000
  C   C3550     1.0  0.77199  0.00230  0.44320  1.0000
  H   H2837     1.0  0.88574  0.01728  0.47329  1.0000
  H   H2838     1.0  0.97451  0.13894  0.57085  1.0000
  H   H2839     1.0  0.76100  0.03718  0.44375  1.0000
  H   H2840     1.0  0.75733  0.06687  0.44706  1.0000
  H   H2841     1.0  0.78274  0.07771  0.44609  1.0000
  H   H2842     1.0  0.81229  0.05883  0.44126  1.0000
  H   H2843     1.0  0.81616  0.02907  0.43815  1.0000
  C   C3551     1.0  0.69275  0.00169  0.48057  1.0000
  H   H2844     1.0  0.64380  0.01470  0.48240  1.0000
  H   H2845     1.0  0.93879  0.20194  0.45590  1.0000
  C   C3552     1.0  0.96530  0.39826  0.40843  1.0000
  H   H2846     1.0  0.76461  0.00810  0.46874  1.0000
  H   H2847     1.0  0.80103  0.03678  0.40673  1.0000
  C   C3553     1.0  0.93558  0.25652  0.48547  1.0000
  H   H2848     1.0  0.73651  0.99990  0.47635  1.0000
  H   H2849     1.0  0.71589  0.02398  0.43762  1.0000
  H   H2850     1.0  0.76077  0.14488  0.50857  1.0000
  C   C3554     1.0  0.64603  0.01636  0.56401  1.0000
  C   C3555     1.0  0.80767  0.99453  0.45025  1.0000
  C   C3556     1.0  0.68980  0.00604  0.41646  1.0000
  S   S502      1.0  0.84522  0.03559  0.41167  1.0000
  H   H2851     1.0  0.57591  0.05535  0.50861  1.0000
  H   H2852     1.0  0.55525  0.04511  0.54164  1.0000
  H   H2853     1.0  0.77718  0.18979  0.47344  1.0000
  H   H2854     1.0  0.77266  0.09141  0.52820  1.0000
  C   C3557     1.0  0.73287  0.09961  0.42502  1.0000
  H   H2855     1.0  0.97142  0.20554  0.58081  1.0000
  H   H2856     1.0  0.98126  0.07724  0.51344  1.0000
  H   H2857     1.0  0.92247  0.28679  0.44314  1.0000
  H   H2858     1.0  0.84487  0.35577  0.53996  1.0000
  H   H2859     1.0  0.50287  0.04800  0.53947  1.0000
  H   H2860     1.0  0.95325  0.20051  0.41895  1.0000
  H   H2861     1.0  0.94352  0.48405  0.41430  1.0000
  C   C3558     1.0  0.90183  0.23223  0.46590  1.0000
  H   H2862     1.0  0.66236  0.99947  0.39570  1.0000
  H   H2863     1.0  0.91794  0.09953  0.57235  1.0000
  C   C3559     1.0  0.76649  0.99686  0.43122  1.0000
  H   H2864     1.0  0.83365  0.12192  0.41925  1.0000
  H   H2865     1.0  0.95690  0.08860  0.40113  1.0000
  C   C3560     1.0  0.80496  0.00942  0.49426  1.0000
  H   H2866     1.0  0.95497  0.17969  0.40140  1.0000
  C   C3561     1.0  0.99009  0.18207  0.53674  1.0000
  C   C3562     1.0  0.76054  0.07223  0.39496  1.0000
  C   C3563     1.0  0.73937  0.11346  0.49865  1.0000
  H   H2867     1.0  0.71613  0.10316  0.44950  1.0000
  C   C3564     1.0  0.70299  0.10038  0.56162  1.0000
  C   C3565     1.0  0.59954  0.06723  0.52962  1.0000
  H   H2868     1.0  0.90956  0.30587  0.50324  1.0000
  H   H2869     1.0  0.90592  0.32767  0.51998  1.0000
  H   H2870     1.0  0.70197  0.00015  0.42059  1.0000
  P   P118      1.0  0.90561  0.99207  0.42102  1.0000
  C   C3566     1.0  0.75570  0.04328  0.40938  1.0000
  C   C3567     1.0  0.96089  0.34257  0.57067  1.0000
  C   C3568     1.0  0.88110  0.02665  0.57715  1.0000
  C   C3569     1.0  0.90311  0.28023  0.54394  1.0000
  C   C3570     1.0  0.98164  0.09257  0.48737  1.0000
  H   H2871     1.0  0.86779  0.00036  0.42349  1.0000
  C   C3571     1.0  0.95664  0.19275  0.39505  1.0000
  H   H2872     1.0  0.90283  0.35988  0.56012  1.0000
  H   H2873     1.0  0.77451  0.99605  0.41850  1.0000
  C   C3572     1.0  0.67711  0.10886  0.58275  1.0000
  C   C3573     1.0  0.79699  0.14695  0.47637  1.0000
  C   C3574     1.0  0.70218  0.06739  0.43589  1.0000
  H   H2874     1.0  0.95294  0.02108  0.38487  1.0000
  H   H2875     1.0  0.98413  0.11015  0.46236  1.0000
  C   C3575     1.0  0.95651  0.41373  0.39913  1.0000
  H   H2876     1.0  0.92177  0.19803  0.43750  1.0000
  C   C3576     1.0  0.59457  0.00546  0.57392  1.0000
  C   C3577     1.0  0.88223  0.99689  0.56635  1.0000
  P   P119      1.0  0.53300  0.99223  0.57209  1.0000
  C   C3578     1.0  0.52908  0.04836  0.53894  1.0000
  H   H2877     1.0  0.90151  0.03127  0.55475  1.0000
  H   H2878     1.0  0.96163  0.32284  0.55759  1.0000
  C   C3579     1.0  0.81651  0.02375  0.38671  1.0000
  H   H2879     1.0  0.80865  0.13887  0.47036  1.0000
  C   C3580     1.0  0.85263  0.35344  0.54950  1.0000
  H   H2880     1.0  0.89789  0.23150  0.53821  1.0000
  C   C3581     1.0  0.64685  0.03333  0.49497  1.0000
  H   H2881     1.0  0.65845  0.02766  0.45351  1.0000
  C   C3582     1.0  0.76918  0.01207  0.50162  1.0000
  C   C3583     1.0  0.92592  0.21003  0.45575  1.0000
  C   C3584     1.0  0.81736  0.10030  0.54319  1.0000
  Fe  Fe251     1.0  0.58441  0.04561  0.57802  1.0000
  C   C3585     1.0  0.78489  0.13948  0.49003  1.0000
  H   H2882     1.0  0.98706  0.18667  0.48963  1.0000
  C   C3586     1.0  0.96271  0.22016  0.45551  1.0000
  C   C3587     1.0  0.98933  0.16700  0.42932  1.0000
  C   C3588     1.0  0.51194  0.05761  0.58183  1.0000
  C   C3589     1.0  0.90681  0.30221  0.51732  1.0000
  H   H2883     1.0  0.87903  0.23728  0.45556  1.0000
  Fe  Fe252     1.0  0.59353  0.07825  0.57917  1.0000
  H   H2884     1.0  0.94000  0.24812  0.49696  1.0000
  H   H2885     1.0  0.81971  0.07393  0.54173  1.0000
  H   H2886     1.0  0.72313  0.09617  0.42089  1.0000
  C   C3590     1.0  0.86912  0.34243  0.54764  1.0000
  C   C3591     1.0  0.91891  0.22264  0.46581  1.0000
  H   H2887     1.0  0.79182  0.08639  0.39038  1.0000
  H   H2888     1.0  0.71257  0.10388  0.55005  1.0000
  H   H2889     1.0  0.72832  0.02667  0.55403  1.0000
  C   C3592     1.0  0.72282  0.11790  0.38668  1.0000
  C   C3593     1.0  0.79431  0.02383  0.48565  1.0000
  H   H2890     1.0  0.73005  0.11925  0.49035  1.0000
  C   C3594     1.0  0.65264  0.04862  0.49208  1.0000
  C   C3595     1.0  0.98008  0.21211  0.45047  1.0000
  C   C3596     1.0  0.82925  0.01590  0.58151  1.0000
  H   H2891     1.0  0.89193  0.21555  0.43719  1.0000
  H   H2892     1.0  0.98354  0.09616  0.56567  1.0000
  H   H2893     1.0  0.60526  0.00797  0.53147  1.0000
  P   P120      1.0  0.78856  0.11616  0.49803  1.0000
  H   H2894     1.0  0.81883  0.00835  0.49134  1.0000
  H   H2895     1.0  0.70584  0.00927  0.56675  1.0000
  H   H2896     1.0  0.90296  0.26680  0.55054  1.0000
  C   C3597     1.0  0.75551  0.11786  0.49383  1.0000
  H   H2897     1.0  0.63894  0.01396  0.57736  1.0000
  C   C3598     1.0  0.87925  0.33927  0.55996  1.0000
  P   P121      1.0  0.93139  0.22666  0.47870  1.0000
  C   C3599     1.0  0.60164  0.04168  0.51223  1.0000
  H   H2898     1.0  0.68163  0.08691  0.39065  1.0000
  H   H2899     1.0  0.95608  0.22952  0.44584  1.0000
  C   C3600     1.0  0.54567  0.02186  0.55405  1.0000
  C   C3601     1.0  0.66375  0.02902  0.41678  1.0000
  C   C3602     1.0  0.89424  0.00663  0.45041  1.0000
  C   C3603     1.0  0.93464  0.27439  0.48208  1.0000
  Fe  Fe253     1.0  0.95224  0.25777  0.54954  1.0000
  C   C3604     1.0  0.66416  0.02210  0.52943  1.0000
  C   C3605     1.0  0.51621  0.02336  0.55277  1.0000
  C   C3606     1.0  0.80284  0.10599  0.48084  1.0000
  C   C3607     1.0  0.79636  0.10400  0.46751  1.0000
  C   C3608     1.0  0.80766  0.09700  0.45375  1.0000
  C   C3609     1.0  0.82542  0.09174  0.45331  1.0000
  C   C3610     1.0  0.83197  0.09399  0.46632  1.0000
  C   C3611     1.0  0.82080  0.10115  0.47996  1.0000
  P   P122      1.0  0.90082  0.32555  0.55737  1.0000
  H   H2900     1.0  0.93209  0.31594  0.57197  1.0000
  C   C3612     1.0  0.61540  0.04075  0.51972  1.0000
  H   H2901     1.0  0.75643  0.01442  0.53684  1.0000
  H   H2902     1.0  0.75842  0.12729  0.48183  1.0000
  H   H2903     1.0  0.89931  0.28826  0.56753  1.0000
  C   C3613     1.0  0.64869  0.02608  0.48081  1.0000
  C   C3614     1.0  0.54444  0.03899  0.54438  1.0000
  H   H2904     1.0  0.60249  0.03221  0.50499  1.0000
  H   H2905     1.0  0.55454  0.99562  0.53639  1.0000
  C   C3615     1.0  0.91397  0.35522  0.55072  1.0000
  C   C3616     1.0  0.77933  0.17577  0.47807  1.0000
  C   C3617     1.0  0.71048  0.06165  0.40685  1.0000
  Fe  Fe254     1.0  0.96900  0.28318  0.55701  1.0000
  C   C3618     1.0  0.61441  0.05390  0.52804  1.0000
  S   S503      1.0  0.58631  0.02634  0.56252  1.0000
  H   H2906     1.0  0.80264  0.09529  0.44360  1.0000
  H   H2907     1.0  0.83418  0.08590  0.44291  1.0000
  H   H2908     1.0  0.84576  0.09012  0.46585  1.0000
  H   H2909     1.0  0.82631  0.10290  0.48974  1.0000
  C   C3619     1.0  0.66070  0.05617  0.47539  1.0000
  H   H2910     1.0  0.95065  0.36736  0.52503  1.0000
  H   H2911     1.0  0.96960  0.09009  0.48677  1.0000
  H   H2912     1.0  0.94841  0.42380  0.40580  1.0000
  C   C3620     1.0  0.70329  0.08287  0.56951  1.0000
  C   C3621     1.0  0.87272  0.34761  0.57396  1.0000
  C   C3622     1.0  0.93416  0.21974  0.56398  1.0000
  H   H2913     1.0  0.59888  0.07727  0.53613  1.0000
  C   C3623     1.0  0.93285  0.18597  0.56331  1.0000
  C   C3624     1.0  0.94104  0.35956  0.53096  1.0000
  C   C3625     1.0  0.71466  0.04378  0.41402  1.0000
  C   C3626     1.0  0.87012  0.00089  0.58122  1.0000
  H   H2914     1.0  0.75586  0.17677  0.49780  1.0000
  S   S504      1.0  0.93316  0.24114  0.56512  1.0000
  C   C3627     1.0  0.58556  0.06760  0.52286  1.0000
  C   C3628     1.0  0.89936  0.21745  0.44528  1.0000
  C   C3629     1.0  0.93087  0.24959  0.47405  1.0000
  S   S505      1.0  0.93090  0.16492  0.56394  1.0000
  H   H2915     1.0  0.90190  0.01619  0.44361  1.0000
  C   C3630     1.0  0.98830  0.14931  0.46401  1.0000
  C   C3631     1.0  0.89363  0.00773  0.55694  1.0000
  H   H2916     1.0  0.89756  0.09363  0.50647  1.0000
  C   C3632     1.0  0.92942  0.28534  0.46707  1.0000
  C   C3633     1.0  0.95801  0.22147  0.39690  1.0000
  C   C3634     1.0  0.88526  0.00716  0.46744  1.0000
  H   H2917     1.0  0.97914  0.19931  0.51536  1.0000
  C   C3635     1.0  0.72888  0.10345  0.44138  1.0000
  H   H2918     1.0  0.58627  0.99225  0.55947  1.0000
  C   C3636     1.0  0.63211  0.00323  0.51785  1.0000
  C   C3637     1.0  0.76161  0.10450  0.42021  1.0000
  H   H2919     1.0  0.96840  0.25571  0.46478  1.0000
  H   H2920     1.0  0.77440  0.10496  0.41235  1.0000
  C   C3638     1.0  0.97544  0.38513  0.39989  1.0000
  C   C3639     1.0  0.76779  0.11011  0.50439  1.0000
  H   H2921     1.0  0.98198  0.37296  0.40714  1.0000
  H   H2922     1.0  0.92457  0.37767  0.54634  1.0000
  C   C3640     1.0  0.81458  0.08761  0.53663  1.0000
  H   H2923     1.0  0.79991  0.03407  0.47632  1.0000
  C   C3641     1.0  0.90483  0.31455  0.52689  1.0000
  H   H2924     1.0  0.75531  0.01323  0.50420  1.0000
  C   C3642     1.0  0.74923  0.10022  0.41420  1.0000
  C   C3643     1.0  0.65754  0.02112  0.40744  1.0000
  H   H2925     1.0  0.80419  0.08249  0.51780  1.0000
  C   C3644     1.0  0.77011  0.15036  0.49780  1.0000
  H   H2926     1.0  0.68774  0.00873  0.46904  1.0000
  C   C3645     1.0  0.73091  0.01355  0.55221  1.0000
  H   H2927     1.0  0.85962  0.10369  0.40413  1.0000
  S   S506      1.0  0.98227  0.29080  0.52915  1.0000
  C   C3646     1.0  0.71273  0.03780  0.43204  1.0000
  C   C3647     1.0  0.64661  0.02162  0.53320  1.0000
  C   C3648     1.0  0.97214  0.33848  0.39998  1.0000
  C   C3649     1.0  0.91522  0.01056  0.40992  1.0000
  C   C3650     1.0  0.81084  0.11790  0.53651  1.0000
  C   C3651     1.0  0.87224  0.98963  0.38521  1.0000
  C   C3652     1.0  0.74997  0.98989  0.53926  1.0000
  C   C3653     1.0  0.96292  0.20437  0.48524  1.0000
  H   H2928     1.0  0.95502  0.33880  0.51777  1.0000
  C   C3654     1.0  0.53152  0.01397  0.55849  1.0000
  H   H2929     1.0  0.78858  0.01988  0.57640  1.0000
  H   H2930     1.0  0.71227  0.06631  0.39291  1.0000
  S   S507      1.0  0.94345  0.28602  0.55052  1.0000
  H   H2931     1.0  0.74225  0.06608  0.41921  1.0000
  C   C3655     1.0  0.70672  0.04957  0.44293  1.0000
  H   H2932     1.0  0.80984  0.03762  0.57192  1.0000
  C   C3656     1.0  0.89300  0.02263  0.56229  1.0000
  H   H2933     1.0  0.65608  0.04097  0.42057  1.0000
  H   H2934     1.0  0.55755  0.01491  0.55844  1.0000
  C   C3657     1.0  0.91212  0.22965  0.51224  1.0000
  C   C3658     1.0  0.92661  0.26056  0.45853  1.0000
  C   C3659     1.0  0.80166  0.12283  0.52317  1.0000
  H   H2935     1.0  0.81313  0.12773  0.54153  1.0000
  C   C3660     1.0  0.76097  0.00342  0.45947  1.0000
  H   H2936     1.0  0.63034  0.12163  0.55957  1.0000
  C   C3661     1.0  0.59297  0.99074  0.56963  1.0000
  H   H2937     1.0  0.68596  0.02068  0.53989  1.0000
  C   C3662     1.0  0.67767  0.06423  0.38543  1.0000
  H   H2938     1.0  0.95058  0.05950  0.40677  1.0000
  C   C3663     1.0  0.92948  0.03961  0.39209  1.0000
  C   C3664     1.0  0.73959  0.99349  0.45183  1.0000
  H   H2939     1.0  0.80355  0.17074  0.45985  1.0000
  C   C3665     1.0  0.93251  0.00832  0.40075  1.0000
  H   H2940     1.0  0.62418  0.01798  0.55369  1.0000
  C   C3666     1.0  0.76732  0.16844  0.49178  1.0000
  H   H2941     1.0  0.66990  0.01559  0.57055  1.0000
  H   H2942     1.0  0.62958  0.07248  0.55142  1.0000
  H   H2943     1.0  0.52789  0.06183  0.53197  1.0000
  C   C3667     1.0  0.90498  0.02747  0.40945  1.0000
  C   C3668     1.0  0.66749  0.00573  0.40254  1.0000
  H   H2944     1.0  0.82480  0.09645  0.55326  1.0000
  C   C3669     1.0  0.85623  0.35862  0.57576  1.0000
  H   H2945     1.0  0.79696  0.13654  0.51811  1.0000
  C   C3670     1.0  0.79417  0.16503  0.47040  1.0000
  H   H2946     1.0  0.87386  0.33645  0.53657  1.0000
  H   H2947     1.0  0.98616  0.33000  0.42053  1.0000
  H   H2948     1.0  0.94221  0.07475  0.57888  1.0000
  H   H2949     1.0  0.65892  0.99340  0.50641  1.0000
  C   C3671     1.0  0.98827  0.08526  0.50243  1.0000
  H   H2950     1.0  0.88040  0.03848  0.58097  1.0000
  H   H2951     1.0  0.98795  0.17056  0.53446  1.0000
  C   C3672     1.0  0.96624  0.16094  0.58262  1.0000
  H   H2952     1.0  0.72703  0.99018  0.45514  1.0000
  H   H2953     1.0  0.96713  0.17028  0.57028  1.0000
  C   C3673     1.0  0.92710  0.11734  0.58066  1.0000
  H   H2954     1.0  0.83341  0.37008  0.56494  1.0000
  C   C3674     1.0  0.84617  0.36151  0.56356  1.0000
  S   S508      1.0  0.98904  0.14621  0.39171  1.0000
  C   C3675     1.0  0.98890  0.20012  0.46278  1.0000
  C   C3676     1.0  0.81298  0.02376  0.57748  1.0000
  H   H2955     1.0  0.91659  0.12831  0.57751  1.0000
  H   H2956     1.0  0.68194  0.05553  0.39686  1.0000
  S   S509      1.0  0.88443  0.99037  0.52548  1.0000
  H   H2957     1.0  0.71311  0.07283  0.56399  1.0000
  C   C3677     1.0  0.92400  0.19306  0.57775  1.0000
  C   C3678     1.0  0.97036  0.14315  0.58300  1.0000
  H   H2958     1.0  0.88042  0.34568  0.58344  1.0000
  C   C3679     1.0  0.51139  0.98918  0.58296  1.0000
  H   H2959     1.0  0.75422  0.98716  0.38952  1.0000
  H   H2960     1.0  0.65692  0.02285  0.70334  1.0000
  Fe  Fe255     1.0  0.61354  0.07071  0.70582  1.0000
  S   S510      1.0  0.60196  0.04836  0.72279  1.0000
  S   S511      1.0  0.61487  0.08094  0.67707  1.0000
  Fe  Fe256     1.0  0.62253  0.07923  0.73594  1.0000
  S   S512      1.0  0.61231  0.05724  0.75546  1.0000
  S   S513      1.0  0.63093  0.10112  0.74081  1.0000
  Fe  Fe257     1.0  0.62497  0.04158  0.73502  1.0000
  S   S514      1.0  0.64091  0.01419  0.74085  1.0000
  Fe  Fe258     1.0  0.59031  0.06581  0.74162  1.0000
  S   S515      1.0  0.56363  0.06884  0.75806  1.0000
  S   S516      1.0  0.63755  0.06280  0.71658  1.0000
  S   S517      1.0  0.59942  0.08889  0.72352  1.0000
  H   H2961     1.0  0.61464  0.04417  0.68576  1.0000
  C   C3680     1.0  0.61394  0.99789  0.74645  1.0000
  H   H2962     1.0  0.53306  0.11753  0.71230  1.0000
  H   H2963     1.0  0.55068  0.09369  0.64525  1.0000
  C   C3681     1.0  0.63048  0.99662  0.74891  1.0000
  C   C3682     1.0  0.68539  0.07479  0.62922  1.0000
  H   H2964     1.0  0.64373  0.00479  0.65639  1.0000
  C   C3683     1.0  0.53473  0.14425  0.67445  1.0000
  C   C3684     1.0  0.55037  0.00564  0.60766  1.0000
  H   H2965     1.0  0.61953  0.12272  0.65453  1.0000
  H   H2966     1.0  0.60918  0.08805  0.64268  1.0000
  H   H2967     1.0  0.91733  0.36188  0.70693  1.0000
  H   H2968     1.0  0.56120  0.02934  0.75242  1.0000
  H   H2969     1.0  0.57853  0.10302  0.62954  1.0000
  C   C3685     1.0  0.51447  0.07284  0.66735  1.0000
  C   C3686     1.0  0.57639  0.12327  0.66682  1.0000
  H   H2970     1.0  0.93769  0.42573  0.70625  1.0000
  H   H2971     1.0  0.61029  0.99097  0.63577  1.0000
  H   H2972     1.0  0.60339  0.06994  0.62639  1.0000
  C   C3687     1.0  0.51699  0.03023  0.74351  1.0000
  H   H2973     1.0  0.54898  0.00295  0.64356  1.0000
  H   H2974     1.0  0.70464  0.06683  0.64494  1.0000
  H   H2975     1.0  0.93836  0.31130  0.64397  1.0000
  C   C3688     1.0  0.97331  0.31494  0.59627  1.0000
  C   C3689     1.0  0.53575  0.12203  0.75735  1.0000
  H   H2976     1.0  0.92599  0.44127  0.73231  1.0000
  C   C3690     1.0  0.50932  0.12471  0.68742  1.0000
  C   C3691     1.0  0.50167  0.99179  0.64922  1.0000
  C   C3692     1.0  0.93505  0.26776  0.69062  1.0000
  H   H2977     1.0  0.91472  0.28911  0.62413  1.0000
  C   C3693     1.0  0.58675  0.12912  0.68921  1.0000
  H   H2978     1.0  0.58183  0.02182  0.72359  1.0000
  C   C3694     1.0  0.55049  0.07603  0.72879  1.0000
  S   S518      1.0  0.53027  0.08518  0.60388  1.0000
  C   C3695     1.0  0.64323  0.04047  0.61851  1.0000
  H   H2979     1.0  0.61390  0.12896  0.68360  1.0000
  H   H2980     1.0  0.94076  0.39042  0.70201  1.0000
  H   H2981     1.0  0.95664  0.45255  0.64819  1.0000
  C   C3696     1.0  0.53690  0.00678  0.66941  1.0000
  C   C3697     1.0  0.49510  0.17228  0.65156  1.0000
  H   H2982     1.0  0.55519  0.15286  0.75554  1.0000
  C   C3698     1.0  0.60184  0.00638  0.70770  1.0000
  C   C3699     1.0  0.95428  0.10567  0.59050  1.0000
  H   H2983     1.0  0.52730  0.07811  0.76962  1.0000
  H   H2984     1.0  0.93118  0.25541  0.69570  1.0000
  C   C3700     1.0  0.96520  0.45539  0.63569  1.0000
  C   C3701     1.0  0.51871  0.12471  0.73633  1.0000
  H   H2985     1.0  0.98206  0.36083  0.67014  1.0000
  C   C3702     1.0  0.54226  0.15936  0.76104  1.0000
  C   C3703     1.0  0.99011  0.23483  0.59730  1.0000
  C   C3704     1.0  0.63366  0.10122  0.76143  1.0000
  C   C3705     1.0  0.63382  0.11704  0.76471  1.0000
  C   C3706     1.0  0.65414  0.01881  0.69307  1.0000
  H   H2986     1.0  0.61192  0.00072  0.66084  1.0000
  H   H2987     1.0  0.51600  0.19993  0.75856  1.0000
  S   S519      1.0  0.59981  0.03417  0.63598  1.0000
  H   H2988     1.0  0.63191  0.12888  0.75479  1.0000
  H   H2989     1.0  0.50006  0.18378  0.64939  1.0000
  H   H2990     1.0  0.56876  0.04453  0.67777  1.0000
  H   H2991     1.0  0.55568  0.02011  0.69402  1.0000
  H   H2992     1.0  0.50121  0.06901  0.69415  1.0000
  H   H2993     1.0  0.56374  0.07352  0.72167  1.0000
  H   H2994     1.0  0.57715  0.05926  0.69554  1.0000
  C   C3707     1.0  0.95811  0.15473  0.61398  1.0000
  H   H2995     1.0  0.64128  0.99940  0.71087  1.0000
  C   C3708     1.0  0.61866  0.98770  0.65938  1.0000
  H   H2996     1.0  0.50623  0.12725  0.73300  1.0000
  H   H2997     1.0  0.91662  0.45646  0.76302  1.0000
  C   C3709     1.0  0.95148  0.42377  0.70112  1.0000
  C   C3710     1.0  0.89553  0.29884  0.60826  1.0000
  H   H2998     1.0  0.60712  0.01006  0.73970  1.0000
  S   S520      1.0  0.98996  0.48631  0.78316  1.0000
  C   C3711     1.0  0.60483  0.04697  0.64708  1.0000
  C   C3712     1.0  0.60544  0.06436  0.63944  1.0000
  C   C3713     1.0  0.60896  0.07455  0.64861  1.0000
  C   C3714     1.0  0.61191  0.06741  0.66547  1.0000
  C   C3715     1.0  0.61203  0.04983  0.67289  1.0000
  C   C3716     1.0  0.60842  0.03965  0.66372  1.0000
  H   H2999     1.0  0.60630  0.22964  0.74060  1.0000
  C   C3717     1.0  0.66114  0.07612  0.66048  1.0000
  C   C3718     1.0  0.67881  0.07127  0.66051  1.0000
  H   H3000     1.0  0.65172  0.07663  0.67260  1.0000
  H   H3001     1.0  0.68305  0.06808  0.67267  1.0000
  Fe  Fe259     1.0  0.55808  0.07129  0.59730  1.0000
  H   H3002     1.0  0.97118  0.28423  0.67766  1.0000
  C   C3719     1.0  0.51658  0.07774  0.59593  1.0000
  C   C3720     1.0  0.52540  0.11780  0.67784  1.0000
  H   H3003     1.0  0.96057  0.12786  0.62690  1.0000
  H   H3004     1.0  0.95593  0.37791  0.72659  1.0000
  C   C3721     1.0  0.51163  0.29164  0.76069  1.0000
  H   H3005     1.0  0.97282  0.33474  0.60919  1.0000
  C   C3722     1.0  0.56937  0.08488  0.68008  1.0000
  H   H3006     1.0  0.56164  0.11068  0.72040  1.0000
  H   H3007     1.0  0.56511  0.14473  0.58702  1.0000
  H   H3008     1.0  0.52396  0.06066  0.66927  1.0000
  H   H3009     1.0  0.52833  0.30368  0.71746  1.0000
  C   C3723     1.0  0.51861  0.15108  0.68408  1.0000
  C   C3724     1.0  0.93829  0.34379  0.71784  1.0000
  C   C3725     1.0  0.53080  0.14966  0.77305  1.0000
  H   H3010     1.0  0.52697  0.27726  0.74135  1.0000
  H   H3011     1.0  0.69501  0.07421  0.61731  1.0000
  C   C3726     1.0  0.56650  0.00876  0.65507  1.0000
  H   H3012     1.0  0.85128  0.36500  0.58659  1.0000
  H   H3013     1.0  0.51600  0.16390  0.68665  1.0000
  H   H3014     1.0  0.52453  0.07978  0.63989  1.0000
  S   S521      1.0  0.96303  0.48604  0.64380  1.0000
  C   C3727     1.0  0.52059  0.29004  0.74390  1.0000
  P   P123      1.0  0.85481  0.98742  0.59311  1.0000
  C   C3728     1.0  0.95097  0.08568  0.64866  1.0000
  H   H3015     1.0  0.92314  0.34899  0.68177  1.0000
  C   C3729     1.0  0.97036  0.33218  0.59796  1.0000
  H   H3016     1.0  0.60449  0.29751  0.76084  1.0000
  C   C3730     1.0  0.60080  0.28799  0.77251  1.0000
  C   C3731     1.0  0.54383  0.99106  0.58902  1.0000
  H   H3017     1.0  0.98824  0.18150  0.60606  1.0000
  C   C3732     1.0  0.95462  0.08931  0.58809  1.0000
  H   H3018     1.0  0.96031  0.32441  0.72533  1.0000
  C   C3733     1.0  0.54898  0.02908  0.75004  1.0000
  H   H3019     1.0  0.54590  0.18488  0.74667  1.0000
  S   S522      1.0  0.95973  0.36792  0.58684  1.0000
  Fe  Fe260     1.0  0.59009  0.04940  0.61156  1.0000
  H   H3020     1.0  0.60406  0.14458  0.60572  1.0000
  C   C3734     1.0  0.96033  0.37629  0.68449  1.0000
  H   H3021     1.0  0.50309  0.08588  0.75446  1.0000
  H   H3022     1.0  0.87939  0.30949  0.58945  1.0000
  C   C3735     1.0  0.94015  0.33343  0.65234  1.0000
  C   C3736     1.0  0.55538  0.15061  0.61244  1.0000
  C   C3737     1.0  0.50438  0.32302  0.75071  1.0000
  C   C3738     1.0  0.52139  0.30490  0.73049  1.0000
  P   P124      1.0  0.53674  0.12627  0.77741  1.0000
  C   C3739     1.0  0.97949  0.43040  0.75802  1.0000
  H   H3023     1.0  0.50302  0.24257  0.74969  1.0000
  H   H3024     1.0  0.95169  0.22790  0.59596  1.0000
  P   P125      1.0  0.51612  0.00395  0.66894  1.0000
  H   H3025     1.0  0.96707  0.43091  0.62965  1.0000
  C   C3740     1.0  0.92790  0.35066  0.70551  1.0000
  C   C3741     1.0  0.58509  0.01104  0.71733  1.0000
  H   H3026     1.0  0.98045  0.33132  0.67488  1.0000
  C   C3742     1.0  0.96378  0.47898  0.69176  1.0000
  S   S523      1.0  0.56840  0.04255  0.60514  1.0000
  C   C3743     1.0  0.55916  0.06824  0.66041  1.0000
  H   H3027     1.0  0.93790  0.30025  0.60078  1.0000
  C   C3744     1.0  0.98683  0.46301  0.60311  1.0000
  C   C3745     1.0  0.96928  0.09467  0.62051  1.0000
  H   H3028     1.0  0.94405  0.46279  0.72104  1.0000
  H   H3029     1.0  0.91642  0.18562  0.58871  1.0000
  H   H3030     1.0  0.77022  0.27701  0.77397  1.0000
  C   C3746     1.0  0.90926  0.46126  0.77450  1.0000
  C   C3747     1.0  0.80510  0.99584  0.58698  1.0000
  C   C3748     1.0  0.51656  0.98991  0.65537  1.0000
  C   C3749     1.0  0.95303  0.38114  0.70046  1.0000
  C   C3750     1.0  0.64100  0.00052  0.68423  1.0000
  C   C3751     1.0  0.98436  0.35660  0.69670  1.0000
  C   C3752     1.0  0.89300  0.40772  0.76770  1.0000
  H   H3031     1.0  0.93924  0.13227  0.58920  1.0000
  H   H3032     1.0  0.62151  0.26714  0.76481  1.0000
  H   H3033     1.0  0.89450  0.45028  0.73253  1.0000
  C   C3753     1.0  0.90242  0.45983  0.72750  1.0000
  C   C3754     1.0  0.50593  0.14129  0.69060  1.0000
  C   C3755     1.0  0.54992  0.11557  0.72909  1.0000
  C   C3756     1.0  0.56174  0.12663  0.63683  1.0000
  H   H3034     1.0  0.53922  0.08031  0.70657  1.0000
  C   C3757     1.0  0.95302  0.09631  0.63193  1.0000
  H   H3035     1.0  0.93070  0.37545  0.62958  1.0000
  H   H3036     1.0  0.54928  0.16400  0.60749  1.0000
  C   C3758     1.0  0.98180  0.44703  0.60884  1.0000
  C   C3759     1.0  0.62149  0.20608  0.78376  1.0000
  S   S524      1.0  0.50250  0.08580  0.71965  1.0000
  S   S525      1.0  0.97741  0.35832  0.63055  1.0000
  C   C3760     1.0  0.93148  0.34347  0.69102  1.0000
  H   H3037     1.0  0.50438  0.01248  0.59316  1.0000
  H   H3038     1.0  0.56633  0.23342  0.75330  1.0000
  C   C3761     1.0  0.50555  0.02552  0.65954  1.0000
  H   H3039     1.0  0.93090  0.40411  0.73751  1.0000
  S   S526      1.0  0.95134  0.37511  0.76311  1.0000
  C   C3762     1.0  0.95773  0.45639  0.75082  1.0000
  C   C3763     1.0  0.52993  0.07855  0.75588  1.0000
  C   C3764     1.0  0.57250  0.12269  0.60720  1.0000
  H   H3040     1.0  0.60810  0.02622  0.66972  1.0000
  C   C3765     1.0  0.56847  0.01350  0.66935  1.0000
  C   C3766     1.0  0.98728  0.41878  0.68761  1.0000
  H   H3041     1.0  0.95612  0.18061  0.59761  1.0000
  H   H3042     1.0  0.52793  0.01452  0.69410  1.0000
  C   C3767     1.0  0.52323  0.06432  0.58692  1.0000
  H   H3043     1.0  0.58083  0.25585  0.73248  1.0000
  C   C3768     1.0  0.96159  0.37401  0.71441  1.0000
  H   H3044     1.0  0.57042  0.99071  0.62174  1.0000
  Fe  Fe261     1.0  0.98380  0.40535  0.60903  1.0000
  H   H3045     1.0  0.90893  0.28294  0.69126  1.0000
  C   C3769     1.0  0.97102  0.44320  0.62517  1.0000
  C   C3770     1.0  0.50340  0.30813  0.76420  1.0000
  C   C3771     1.0  0.95256  0.26819  0.68676  1.0000
  H   H3046     1.0  0.58069  0.01606  0.66931  1.0000
  H   H3047     1.0  0.50444  0.03090  0.74120  1.0000
  C   C3772     1.0  0.98514  0.32415  0.66473  1.0000
  C   C3773     1.0  0.64793  0.05466  0.62073  1.0000
  H   H3048     1.0  0.94227  0.35805  0.65536  1.0000
  H   H3049     1.0  0.56357  0.11450  0.74818  1.0000
  H   H3050     1.0  0.62480  0.18242  0.77564  1.0000
  H   H3051     1.0  0.63819  0.03120  0.62972  1.0000
  C   C3774     1.0  0.96298  0.41842  0.71235  1.0000
  C   C3775     1.0  0.97714  0.36148  0.71267  1.0000
  H   H3052     1.0  0.54450  0.15192  0.66972  1.0000
  C   C3776     1.0  0.49516  0.03702  0.67002  1.0000
  C   C3777     1.0  0.93608  0.32533  0.64144  1.0000
  C   C3778     1.0  0.97682  0.21334  0.58573  1.0000
  H   H3053     1.0  0.57955  0.11441  0.59815  1.0000
  C   C3779     1.0  0.50828  0.03114  0.64142  1.0000
  C   C3780     1.0  0.52209  0.23963  0.78283  1.0000
  H   H3054     1.0  0.59112  0.18293  0.77595  1.0000
  C   C3781     1.0  0.89127  0.46338  0.77890  1.0000
  C   C3782     1.0  0.96250  0.43828  0.75601  1.0000
  H   H3055     1.0  0.91032  0.41402  0.71763  1.0000
  C   C3783     1.0  0.54700  0.07490  0.74670  1.0000
  H   H3056     1.0  0.95816  0.41618  0.72627  1.0000
  C   C3784     1.0  0.92014  0.45474  0.72729  1.0000
  C   C3785     1.0  0.96229  0.13688  0.61444  1.0000
  C   C3786     1.0  0.65473  0.22663  0.77989  1.0000
  C   C3787     1.0  0.59306  0.12222  0.65628  1.0000
  H   H3057     1.0  0.92730  0.32898  0.61789  1.0000
  C   C3788     1.0  0.55416  0.14407  0.63033  1.0000
  H   H3058     1.0  0.57747  0.28415  0.73973  1.0000
  C   C3789     1.0  0.52063  0.02237  0.75998  1.0000
  C   C3790     1.0  0.51962  0.08278  0.72973  1.0000
  C   C3791     1.0  0.64171  0.10340  0.60909  1.0000
  C   C3792     1.0  0.57162  0.11621  0.62504  1.0000
  H   H3059     1.0  0.59593  0.11881  0.64384  1.0000
  C   C3793     1.0  0.61039  0.22310  0.75272  1.0000
  C   C3794     1.0  0.66763  0.07975  0.62908  1.0000
  H   H3060     1.0  0.58448  0.13125  0.70218  1.0000
  C   C3795     1.0  0.95568  0.32225  0.70143  1.0000
  C   C3796     1.0  0.60334  0.12791  0.67871  1.0000
  H   H3061     1.0  0.55455  0.04322  0.72344  1.0000
  C   C3797     1.0  0.91199  0.29621  0.61152  1.0000
  H   H3062     1.0  0.94457  0.46267  0.74977  1.0000
  C   C3798     1.0  0.54522  0.03708  0.73358  1.0000
  C   C3799     1.0  0.50008  0.04778  0.63391  1.0000
  H   H3063     1.0  0.64637  0.05618  0.63377  1.0000
  C   C3800     1.0  0.57334  0.12675  0.68332  1.0000
  C   C3801     1.0  0.65403  0.06694  0.60622  1.0000
  C   C3802     1.0  0.55448  0.01563  0.68331  1.0000
  H   H3064     1.0  0.94894  0.42990  0.67449  1.0000
  C   C3803     1.0  0.53874  0.01236  0.68334  1.0000
  H   H3065     1.0  0.96631  0.48038  0.74238  1.0000
  H   H3066     1.0  0.49848  0.33591  0.75312  1.0000
  C   C3804     1.0  0.53696  0.17746  0.75582  1.0000
  H   H3067     1.0  0.93585  0.34970  0.72879  1.0000
  S   S527      1.0  0.95764  0.39898  0.61658  1.0000
  H   H3068     1.0  0.92004  0.39977  0.76910  1.0000
  H   H3069     1.0  0.50179  0.05169  0.61999  1.0000
  C   C3805     1.0  0.55066  0.00570  0.65499  1.0000
  H   H3070     1.0  0.54841  0.01726  0.61230  1.0000
  C   C3806     1.0  0.51624  0.08262  0.74738  1.0000
  H   H3071     1.0  0.56078  0.12706  0.69188  1.0000
  C   C3807     1.0  0.94579  0.32957  0.68854  1.0000
  C   C3808     1.0  0.93039  0.46706  0.72090  1.0000
  C   C3809     1.0  0.51965  0.12622  0.75257  1.0000
  S   S528      1.0  0.57815  0.07793  0.60638  1.0000
  Fe  Fe262     1.0  0.96623  0.38259  0.64108  1.0000
  H   H3072     1.0  0.86762  0.41588  0.76127  1.0000
  S   S529      1.0  0.60713  0.05015  0.58492  1.0000
  C   C3810     1.0  0.65940  0.02686  0.67571  1.0000
  C   C3811     1.0  0.65581  0.02155  0.66257  1.0000
  C   C3812     1.0  0.64653  0.00851  0.66678  1.0000
  H   H3073     1.0  0.53701  0.05889  0.58416  1.0000
  C   C3813     1.0  0.98038  0.30922  0.64544  1.0000
  H   H3074     1.0  0.53174  0.23344  0.75749  1.0000
  H   H3075     1.0  0.52764  0.10480  0.67587  1.0000
  H   H3076     1.0  0.50781  0.13068  0.76143  1.0000
  C   C3814     1.0  0.55502  0.24865  0.77295  1.0000
  H   H3077     1.0  0.93838  0.08704  0.65738  1.0000
  C   C3815     1.0  0.90549  0.41250  0.73154  1.0000
  H   H3078     1.0  0.52615  0.04443  0.71776  1.0000
  H   H3079     1.0  0.57369  0.09094  0.68776  1.0000
  C   C3816     1.0  0.53671  0.02149  0.76334  1.0000
  C   C3817     1.0  0.95781  0.42628  0.68320  1.0000
  H   H3080     1.0  0.95442  0.47512  0.68740  1.0000
  C   C3818     1.0  0.53834  0.12746  0.67139  1.0000
  H   H3081     1.0  0.63625  0.07367  0.77190  1.0000
  C   C3819     1.0  0.64518  0.00555  0.69731  1.0000
  C   C3820     1.0  0.56639  0.05853  0.67470  1.0000
  H   H3082     1.0  0.57198  0.16276  0.78246  1.0000
  C   C3821     1.0  0.51396  0.15822  0.77957  1.0000
  C   C3822     1.0  0.67175  0.22882  0.77493  1.0000
  H   H3083     1.0  0.66629  0.03718  0.67247  1.0000
  H   H3084     1.0  0.66017  0.02761  0.64913  1.0000
  C   C3823     1.0  0.52015  0.18593  0.76249  1.0000
  C   C3824     1.0  0.49402  0.06414  0.58586  1.0000
  Fe  Fe263     1.0  0.97094  0.37528  0.60542  1.0000
  H   H3085     1.0  0.60686  0.24676  0.76057  1.0000
  C   C3825     1.0  0.93817  0.35157  0.64789  1.0000
  C   C3826     1.0  0.64029  0.11650  0.61765  1.0000
  C   C3827     1.0  0.57125  0.06684  0.68465  1.0000
  Fe  Fe264     1.0  0.96059  0.39731  0.76546  1.0000
  C   C3828     1.0  0.92769  0.35335  0.62245  1.0000
  C   C3829     1.0  0.97396  0.31737  0.65956  1.0000
  C   C3830     1.0  0.92750  0.29921  0.68165  1.0000
  C   C3831     1.0  0.49877  0.14352  0.64684  1.0000
  C   C3832     1.0  0.98334  0.08186  0.62594  1.0000
  C   C3833     1.0  0.91706  0.40691  0.74270  1.0000
  P   P126      1.0  0.66024  0.08527  0.60895  1.0000
  H   H3086     1.0  0.57710  0.00799  0.64386  1.0000
  C   C3834     1.0  0.95212  0.32953  0.71586  1.0000
  C   C3835     1.0  0.94507  0.29972  0.67753  1.0000
  C   C3836     1.0  0.55091  0.11718  0.74525  1.0000
  H   H3087     1.0  0.61531  0.19742  0.74801  1.0000
  H   H3088     1.0  0.96516  0.07832  0.59092  1.0000
  C   C3837     1.0  0.65556  0.08031  0.64485  1.0000
  H   H3089     1.0  0.64181  0.08400  0.64511  1.0000
  C   C3838     1.0  0.56227  0.09478  0.66564  1.0000
  P   P127      1.0  0.95120  0.32040  0.66959  1.0000
  C   C3839     1.0  0.53385  0.11935  0.72460  1.0000
  S   S530      1.0  0.94907  0.38462  0.66740  1.0000
  C   C3840     1.0  0.97048  0.47121  0.63015  1.0000
  C   C3841     1.0  0.88144  0.41354  0.75635  1.0000
  C   C3842     1.0  0.95758  0.28412  0.68031  1.0000
  C   C3843     1.0  0.60647  0.12455  0.66223  1.0000
  H   H3090     1.0  0.55573  0.06168  0.65249  1.0000
  H   H3091     1.0  0.60704  0.12186  0.58994  1.0000
  C   C3844     1.0  0.61552  0.20497  0.75683  1.0000
  H   H3092     1.0  0.88547  0.29378  0.61837  1.0000
  C   C3845     1.0  0.88767  0.41592  0.73836  1.0000
  H   H3093     1.0  0.87869  0.42013  0.72970  1.0000
  H   H3094     1.0  0.54729  0.15265  0.63903  1.0000
  H   H3095     1.0  0.68197  0.21919  0.76918  1.0000
  S   S531      1.0  0.98963  0.43174  0.59567  1.0000
  C   C3846     1.0  0.83372  0.99785  0.58803  1.0000
  C   C3847     1.0  0.92252  0.28326  0.68810  1.0000
  C   C3848     1.0  0.57291  0.00132  0.71950  1.0000
  C   C3849     1.0  0.61452  0.13311  0.60676  1.0000
  S   S532      1.0  0.94736  0.42562  0.75933  1.0000
  C   C3850     1.0  0.52925  0.03770  0.73032  1.0000
  H   H3096     1.0  0.91033  0.42461  0.78233  1.0000
  C   C3851     1.0  0.93177  0.36149  0.63314  1.0000
  C   C3852     1.0  0.91086  0.40452  0.76066  1.0000
  H   H3097     1.0  0.92356  0.36102  0.61056  1.0000
  C   C3853     1.0  0.56071  0.27770  0.76468  1.0000
  C   C3854     1.0  0.57111  0.27431  0.74891  1.0000
  C   C3855     1.0  0.57307  0.25833  0.74488  1.0000
  C   C3856     1.0  0.56495  0.24557  0.75679  1.0000
  C   C3857     1.0  0.97007  0.46646  0.74670  1.0000
  H   H3098     1.0  0.51776  0.15916  0.63594  1.0000
  H   H3099     1.0  0.51071  0.01734  0.77029  1.0000
  P   P128      1.0  0.55964  0.11815  0.66003  1.0000
  C   C3858     1.0  0.62668  0.13125  0.61655  1.0000
  C   C3859     1.0  0.98733  0.45843  0.74749  1.0000
  C   C3860     1.0  0.61079  0.23277  0.76412  1.0000
  C   C3861     1.0  0.53672  0.07995  0.72028  1.0000
  H   H3100     1.0  0.56008  0.00445  0.72743  1.0000
  H   H3101     1.0  0.98947  0.41132  0.71463  1.0000
  C   C3862     1.0  0.69093  0.07058  0.64489  1.0000
  C   C3863     1.0  0.55671  0.08636  0.65612  1.0000
  H   H3102     1.0  0.51400  0.33292  0.72352  1.0000
  C   C3864     1.0  0.92983  0.33528  0.62660  1.0000
  H   H3103     1.0  0.49349  0.14646  0.69821  1.0000
  C   C3865     1.0  0.50223  0.09914  0.64819  1.0000
  H   H3104     1.0  0.51654  0.02266  0.63302  1.0000
  C   C3866     1.0  0.62939  0.10534  0.59939  1.0000
  H   H3105     1.0  0.91766  0.31116  0.67993  1.0000
  C   C3867     1.0  0.64428  0.03859  0.60185  1.0000
  H   H3106     1.0  0.95312  0.15928  0.62594  1.0000
  H   H3107     1.0  0.64008  0.02787  0.60029  1.0000
  C   C3868     1.0  0.65008  0.05089  0.58734  1.0000
  C   C3869     1.0  0.67714  0.09128  0.59061  1.0000
  H   H3108     1.0  0.91734  0.21521  0.58919  1.0000
  H   H3109     1.0  0.50669  0.13301  0.64074  1.0000
  H   H3110     1.0  0.51122  0.28003  0.77101  1.0000
  C   C3870     1.0  0.50514  0.15837  0.64409  1.0000
  C   C3871     1.0  0.55249  0.26503  0.77650  1.0000
  H   H3111     1.0  0.61106  0.01392  0.70659  1.0000
  C   C3872     1.0  0.63656  0.11765  0.78069  1.0000
  H   H3112     1.0  0.60425  0.01475  0.59065  1.0000
  C   C3873     1.0  0.95992  0.16676  0.59806  1.0000
  C   C3874     1.0  0.52048  0.23854  0.76658  1.0000
  C   C3875     1.0  0.96812  0.13099  0.59890  1.0000
  C   C3876     1.0  0.62095  0.19649  0.77238  1.0000
  C   C3877     1.0  0.89492  0.47728  0.72131  1.0000
  H   H3113     1.0  0.49549  0.18269  0.77929  1.0000
  C   C3878     1.0  0.61037  0.27077  0.77478  1.0000
  Fe  Fe265     1.0  0.97917  0.36371  0.75344  1.0000
  C   C3879     1.0  0.63623  0.08595  0.77433  1.0000
  C   C3880     1.0  0.50038  0.00117  0.59270  1.0000
  H   H3114     1.0  0.96646  0.31120  0.70011  1.0000
  H   H3115     1.0  0.62568  0.14135  0.62309  1.0000
  C   C3881     1.0  0.55786  0.11831  0.78278  1.0000
  H   H3116     1.0  0.98304  0.41668  0.76337  1.0000
  H   H3117     1.0  0.49356  0.09494  0.60653  1.0000
  C   C3882     1.0  0.65492  0.06503  0.58949  1.0000
  H   H3118     1.0  0.69073  0.06467  0.58979  1.0000
  H   H3119     1.0  0.52825  0.98850  0.77250  1.0000
  C   C3883     1.0  0.54103  0.00583  0.59571  1.0000
  C   C3884     1.0  0.56251  0.99069  0.61316  1.0000
  H   H3120     1.0  0.94189  0.10581  0.62784  1.0000
  H   H3121     1.0  0.59178  0.08299  0.78277  1.0000
  H   H3122     1.0  0.96226  0.25619  0.68890  1.0000
  C   C3885     1.0  0.51476  0.08363  0.65079  1.0000
  H   H3123     1.0  0.98018  0.42583  0.66251  1.0000
  C   C3886     1.0  0.97221  0.23672  0.60018  1.0000
  H   H3124     1.0  0.98533  0.46289  0.67785  1.0000
  H   H3125     1.0  0.49339  0.03325  0.68403  1.0000
  H   H3126     1.0  0.55890  0.29018  0.76774  1.0000
  P   P129      1.0  0.97135  0.10832  0.59882  1.0000
  C   C3887     1.0  0.57725  0.98742  0.71141  1.0000
  C   C3888     1.0  0.89212  0.30779  0.59187  1.0000
  C   C3889     1.0  0.98081  0.41573  0.70566  1.0000
  S   S533      1.0  0.98811  0.38712  0.75313  1.0000
  H   H3127     1.0  0.97808  0.30425  0.60624  1.0000
  H   H3128     1.0  0.52019  0.04872  0.77777  1.0000
  C   C3890     1.0  0.92504  0.30250  0.59839  1.0000
  C   C3891     1.0  0.96557  0.22595  0.59443  1.0000
  C   C3892     1.0  0.98138  0.47189  0.68638  1.0000
  H   H3129     1.0  0.51323  0.10268  0.78274  1.0000
  C   C3893     1.0  0.97622  0.36434  0.68252  1.0000
  H   H3130     1.0  0.86047  0.01921  0.59802  1.0000
  H   H3131     1.0  0.64986  0.11549  0.62490  1.0000
  C   C3894     1.0  0.60301  0.00346  0.58725  1.0000
  C   C3895     1.0  0.60661  0.99174  0.70042  1.0000
  H   H3132     1.0  0.57520  0.98984  0.78286  1.0000
  C   C3896     1.0  0.61601  0.12023  0.59808  1.0000
  C   C3897     1.0  0.49869  0.08463  0.59952  1.0000
  C   C3898     1.0  0.57723  0.18779  0.77892  1.0000
  H   H3133     1.0  0.97190  0.30441  0.64082  1.0000
  C   C3899     1.0  0.56435  0.13984  0.60089  1.0000
  H   H3134     1.0  0.93178  0.46326  0.78177  1.0000
  C   C3900     1.0  0.86979  0.01576  0.58668  1.0000
  H   H3135     1.0  0.63671  0.12990  0.78296  1.0000
  C   C3901     1.0  0.94017  0.11958  0.58714  1.0000
  C   C3902     1.0  0.97563  0.42386  0.67644  1.0000
  S   S534      1.0  0.98465  0.34940  0.77991  1.0000
  H   H3136     1.0  0.96348  0.24702  0.60619  1.0000
  C   C3903     1.0  0.51329  0.32138  0.73389  1.0000
  H   H3137     1.0  0.65214  0.21533  0.77767  1.0000
  C   C3904     1.0  0.98133  0.47503  0.61383  1.0000
  H   H3138     1.0  0.90930  0.37170  0.78011  1.0000
  H   H3139     1.0  0.50254  0.10704  0.63510  1.0000
  H   H3140     1.0  0.88472  0.46033  0.77072  1.0000
  H   H3141     1.0  0.96347  0.06488  0.66701  1.0000
  C   C3905     1.0  0.50429  0.99612  0.69036  1.0000
  H   H3142     1.0  0.63024  0.09564  0.59243  1.0000
  C   C3906     1.0  0.50427  0.24374  0.76209  1.0000
  C   C3907     1.0  0.96405  0.34606  0.58517  1.0000
  C   C3908     1.0  0.50864  0.17628  0.77427  1.0000
  H   H3143     1.0  0.49958  0.11701  0.69265  1.0000
  C   C3909     1.0  0.98125  0.07125  0.64270  1.0000
  C   C3910     1.0  0.67574  0.24289  0.77818  1.0000
  H   H3144     1.0  0.68904  0.24416  0.77499  1.0000
  C   C3911     1.0  0.92297  0.48465  0.71471  1.0000
  C   C3912     1.0  0.96509  0.07318  0.65407  1.0000
  H   H3145     1.0  0.53204  0.01773  0.59133  1.0000
  C   C3913     1.0  0.61645  0.22434  0.77972  1.0000
  C   C3914     1.0  0.57032  0.20502  0.78054  1.0000
  C   C3915     1.0  0.50162  0.07752  0.68133  1.0000
  H   H3146     1.0  0.57904  0.21333  0.77885  1.0000
  H   H3147     1.0  0.88119  0.48126  0.72143  1.0000
  H   H3148     1.0  0.66700  0.11915  0.58746  1.0000
  C   C3916     1.0  0.56638  0.17629  0.78283  1.0000
  C   C3917     1.0  0.56763  0.10170  0.78082  1.0000
  H   H3149     1.0  0.56257  0.09349  0.77611  1.0000
  S   S535      1.0  0.98761  0.35133  0.73030  1.0000
  C   C3918     1.0  0.82141  0.98790  0.59096  1.0000
  H   H3150     1.0  0.79571  0.98811  0.58905  1.0000
  C   C3919     1.0  0.69048  0.07831  0.58401  1.0000
  H   H3151     1.0  0.93661  0.39267  0.85656  1.0000
  Fe  Fe266     1.0  0.74285  0.36826  0.86622  1.0000
  S   S536      1.0  0.73616  0.38534  0.88508  1.0000
  S   S537      1.0  0.76683  0.36567  0.84508  1.0000
  Fe  Fe267     1.0  0.71007  0.35368  0.88152  1.0000
  S   S538      1.0  0.70042  0.36972  0.90183  1.0000
  S   S539      1.0  0.69962  0.33033  0.88345  1.0000
  Fe  Fe268     1.0  0.70921  0.39142  0.88020  1.0000
  S   S540      1.0  0.69386  0.41930  0.87506  1.0000
  Fe  Fe269     1.0  0.72796  0.36241  0.90488  1.0000
  S   S541      1.0  0.73668  0.35054  0.93006  1.0000
  S   S542      1.0  0.71658  0.37596  0.85954  1.0000
  S   S543      1.0  0.73699  0.34486  0.88639  1.0000
  H   H3152     1.0  0.92404  0.48590  0.83825  1.0000
  S   S544      1.0  0.88702  0.46677  0.91360  1.0000
  Fe  Fe270     1.0  0.87949  0.36796  0.88924  1.0000
  S   S545      1.0  0.86811  0.38673  0.86743  1.0000
  S   S546      1.0  0.90840  0.35881  0.88394  1.0000
  Fe  Fe271     1.0  0.84448  0.36958  0.91403  1.0000
  S   S547      1.0  0.83035  0.38829  0.89402  1.0000
  S   S548      1.0  0.82821  0.36321  0.94078  1.0000
  Fe  Fe272     1.0  0.84749  0.37125  0.87615  1.0000
  S   S549      1.0  0.84121  0.36232  0.85548  1.0000
  Fe  Fe273     1.0  0.85240  0.40157  0.88768  1.0000
  S   S550      1.0  0.84705  0.43061  0.88336  1.0000
  S   S551      1.0  0.86012  0.35126  0.89671  1.0000
  S   S552      1.0  0.86533  0.38407  0.90893  1.0000
  S   S553      1.0  0.63206  0.17223  0.83408  1.0000
  Fe  Fe274     1.0  0.63452  0.14532  0.85103  1.0000
  S   S554      1.0  0.62656  0.14396  0.87988  1.0000
  C   C3920     1.0  0.50706  0.28168  0.81046  1.0000
  H   H3153     1.0  0.90376  0.34648  0.83061  1.0000
  H   H3154     1.0  0.84362  0.40240  0.83396  1.0000
  Fe  Fe275     1.0  0.66492  0.12244  0.95919  1.0000
  S   S555      1.0  0.64380  0.14626  0.96206  1.0000
  S   S556      1.0  0.67532  0.11291  0.93428  1.0000
  C   C3921     1.0  0.66552  0.16874  0.87360  1.0000
  C   C3922     1.0  0.64584  0.20556  0.90130  1.0000
  H   H3155     1.0  0.70971  0.21570  0.79954  1.0000
  H   H3156     1.0  0.51959  0.34720  0.91417  1.0000
  S   S557      1.0  0.68235  0.12947  0.97164  1.0000
  C   C3923     1.0  0.63950  0.10238  0.79347  1.0000
  Fe  Fe276     1.0  0.66532  0.25637  0.83493  1.0000
  S   S558      1.0  0.64722  0.28008  0.82292  1.0000
  S   S559      1.0  0.68742  0.24016  0.81905  1.0000
  Fe  Fe277     1.0  0.64825  0.26094  0.87160  1.0000
  S   S560      1.0  0.62856  0.28461  0.86277  1.0000
  S   S561      1.0  0.64834  0.24917  0.89975  1.0000
  Fe  Fe278     1.0  0.62660  0.26988  0.84454  1.0000
  S   S562      1.0  0.60162  0.26513  0.84279  1.0000
  Fe  Fe279     1.0  0.65095  0.29270  0.84241  1.0000
  S   S563      1.0  0.65470  0.32019  0.83679  1.0000
  S   S564      1.0  0.64454  0.24536  0.85516  1.0000
  S   S565      1.0  0.67086  0.26985  0.85248  1.0000
  S   S566      1.0  0.62614  0.30763  0.94230  1.0000
  Fe  Fe280     1.0  0.51105  0.31980  0.84629  1.0000
  S   S567      1.0  0.50978  0.30272  0.87290  1.0000
  S   S568      1.0  0.53654  0.32589  0.83048  1.0000
  C   C3924     1.0  0.72577  0.32162  0.83813  1.0000
  H   H3157     1.0  0.60541  0.02210  0.78815  1.0000
  P   P130      1.0  0.97190  0.39523  0.85357  1.0000
  C   C3925     1.0  0.64255  0.26537  0.91157  1.0000
  C   C3926     1.0  0.64121  0.28283  0.90295  1.0000
  C   C3927     1.0  0.63681  0.29572  0.91245  1.0000
  C   C3928     1.0  0.63323  0.29125  0.93060  1.0000
  C   C3929     1.0  0.63501  0.27374  0.93925  1.0000
  C   C3930     1.0  0.63985  0.26080  0.92971  1.0000
  H   H3158     1.0  0.64380  0.28643  0.88897  1.0000
  H   H3159     1.0  0.63623  0.30915  0.90572  1.0000
  H   H3160     1.0  0.63248  0.27013  0.95327  1.0000
  H   H3161     1.0  0.64167  0.24727  0.93637  1.0000
  C   C3931     1.0  0.58367  0.28274  0.84191  1.0000
  C   C3932     1.0  0.56706  0.27934  0.84746  1.0000
  C   C3933     1.0  0.55249  0.29279  0.84485  1.0000
  C   C3934     1.0  0.55448  0.30962  0.83617  1.0000
  C   C3935     1.0  0.63929  0.08652  0.79024  1.0000
  C   C3936     1.0  0.51942  0.27269  0.82056  1.0000
  H   H3162     1.0  0.56549  0.26617  0.85339  1.0000
  H   H3163     1.0  0.53979  0.28994  0.84881  1.0000
  S   S569      1.0  0.73221  0.46325  0.89717  1.0000
  C   C3937     1.0  0.53915  0.11033  0.92463  1.0000
  C   C3938     1.0  0.75880  0.30582  0.93613  1.0000
  C   C3939     1.0  0.97755  0.34247  0.86270  1.0000
  C   C3940     1.0  0.79355  0.32564  0.92385  1.0000
  C   C3941     1.0  0.84899  0.46910  0.84626  1.0000
  H   H3164     1.0  0.62484  0.21867  0.85500  1.0000
  H   H3165     1.0  0.79406  0.27046  0.89400  1.0000
  C   C3942     1.0  0.59751  0.14060  0.96816  1.0000
  C   C3943     1.0  0.58654  0.14374  0.95663  1.0000
  C   C3944     1.0  0.57185  0.13663  0.96190  1.0000
  C   C3945     1.0  0.81816  0.25293  0.89799  1.0000
  C   C3946     1.0  0.52352  0.30399  0.79682  1.0000
  H   H3166     1.0  0.60857  0.14644  0.96417  1.0000
  H   H3167     1.0  0.79060  0.26928  0.94341  1.0000
  P   P131      1.0  0.88508  0.40238  0.79104  1.0000
  H   H3168     1.0  0.82237  0.32593  0.96570  1.0000
  C   C3947     1.0  0.60179  0.25764  0.89059  1.0000
  S   S570      1.0  0.93613  0.34876  0.80681  1.0000
  H   H3169     1.0  0.84280  0.23781  0.90374  1.0000
  C   C3948     1.0  0.77688  0.46390  0.88837  1.0000
  H   H3170     1.0  0.82574  0.46357  0.86424  1.0000
  S   S571      1.0  0.53079  0.14164  0.84220  1.0000
  C   C3949     1.0  0.57826  0.15204  0.82432  1.0000
  C   C3950     1.0  0.56462  0.14338  0.83072  1.0000
  C   C3951     1.0  0.54756  0.15277  0.83472  1.0000
  C   C3952     1.0  0.74378  0.45595  0.84242  1.0000
  H   H3171     1.0  0.56728  0.12940  0.83231  1.0000
  C   C3953     1.0  0.66669  0.20028  0.81967  1.0000
  C   C3954     1.0  0.66909  0.21496  0.82362  1.0000
  H   H3172     1.0  0.67765  0.21147  0.86284  1.0000
  H   H3173     1.0  0.65465  0.19612  0.82519  1.0000
  H   H3174     1.0  0.65895  0.22190  0.83223  1.0000
  C   C3955     1.0  0.64053  0.13512  0.89454  1.0000
  C   C3956     1.0  0.65768  0.12636  0.88959  1.0000
  C   C3957     1.0  0.66837  0.11963  0.90183  1.0000
  C   C3958     1.0  0.66190  0.12159  0.91902  1.0000
  C   C3959     1.0  0.64467  0.13011  0.92396  1.0000
  C   C3960     1.0  0.63406  0.13690  0.91175  1.0000
  H   H3175     1.0  0.66272  0.12479  0.87636  1.0000
  H   H3176     1.0  0.68166  0.11295  0.89796  1.0000
  H   H3177     1.0  0.63934  0.13114  0.93726  1.0000
  H   H3178     1.0  0.62071  0.14341  0.91572  1.0000
  C   C3961     1.0  0.87542  0.45604  0.90648  1.0000
  C   C3962     1.0  0.86099  0.46561  0.89945  1.0000
  C   C3963     1.0  0.85222  0.45752  0.89281  1.0000
  C   C3964     1.0  0.85780  0.43974  0.89308  1.0000
  C   C3965     1.0  0.87196  0.42993  0.90055  1.0000
  C   C3966     1.0  0.88070  0.43807  0.90738  1.0000
  H   H3179     1.0  0.55632  0.14040  0.79300  1.0000
  H   H3180     1.0  0.84118  0.46518  0.88725  1.0000
  H   H3181     1.0  0.87645  0.41623  0.90068  1.0000
  H   H3182     1.0  0.89178  0.43054  0.91288  1.0000
  C   C3967     1.0  0.68580  0.32893  0.87104  1.0000
  C   C3968     1.0  0.68186  0.34184  0.85646  1.0000
  C   C3969     1.0  0.67209  0.33922  0.84610  1.0000
  C   C3970     1.0  0.66622  0.32375  0.85029  1.0000
  C   C3971     1.0  0.66978  0.31117  0.86513  1.0000
  C   C3972     1.0  0.67947  0.31377  0.87547  1.0000
  H   H3183     1.0  0.68662  0.35362  0.85297  1.0000
  H   H3184     1.0  0.66928  0.34907  0.83468  1.0000
  H   H3185     1.0  0.66514  0.29935  0.86861  1.0000
  H   H3186     1.0  0.68222  0.30387  0.88688  1.0000
  C   C3973     1.0  0.70228  0.43246  0.88266  1.0000
  C   C3974     1.0  0.71112  0.42506  0.89622  1.0000
  C   C3975     1.0  0.71935  0.43504  0.90120  1.0000
  C   C3976     1.0  0.71893  0.45243  0.89264  1.0000
  C   C3977     1.0  0.70911  0.46027  0.87984  1.0000
  C   C3978     1.0  0.70083  0.45022  0.87478  1.0000
  H   H3187     1.0  0.71184  0.41153  0.90274  1.0000
  H   H3188     1.0  0.72619  0.42921  0.91163  1.0000
  H   H3189     1.0  0.70874  0.47372  0.87321  1.0000
  H   H3190     1.0  0.69420  0.45590  0.86411  1.0000
  C   C3979     1.0  0.72896  0.36438  0.94448  1.0000
  C   C3980     1.0  0.73582  0.36011  0.95934  1.0000
  C   C3981     1.0  0.73011  0.37118  0.97093  1.0000
  C   C3982     1.0  0.71728  0.38631  0.96783  1.0000
  C   C3983     1.0  0.71086  0.39093  0.95262  1.0000
  C   C3984     1.0  0.71673  0.37994  0.94089  1.0000
  H   H3191     1.0  0.74568  0.34836  0.96183  1.0000
  H   H3192     1.0  0.62639  0.44666  0.86874  1.0000
  H   H3193     1.0  0.70115  0.40281  0.95010  1.0000
  H   H3194     1.0  0.71174  0.38343  0.92916  1.0000
  C   C3985     1.0  0.78712  0.36415  0.84931  1.0000
  C   C3986     1.0  0.78911  0.36574  0.86521  1.0000
  C   C3987     1.0  0.80573  0.36495  0.86753  1.0000
  C   C3988     1.0  0.82022  0.36250  0.85402  1.0000
  C   C3989     1.0  0.81814  0.36047  0.83841  1.0000
  C   C3990     1.0  0.80170  0.36139  0.83604  1.0000
  H   H3195     1.0  0.77787  0.36774  0.87556  1.0000
  H   H3196     1.0  0.80741  0.36616  0.87969  1.0000
  H   H3197     1.0  0.82925  0.35853  0.82792  1.0000
  H   H3198     1.0  0.80026  0.36010  0.82377  1.0000
  H   H3199     1.0  0.88863  0.44171  0.83403  1.0000
  C   C3991     1.0  0.68998  0.31681  0.80499  1.0000
  C   C3992     1.0  0.93280  0.35806  0.85369  1.0000
  C   C3993     1.0  0.91613  0.35597  0.86254  1.0000
  C   C3994     1.0  0.90554  0.35213  0.85406  1.0000
  H   H3200     1.0  0.50211  0.07072  0.87328  1.0000
  H   H3201     1.0  0.73472  0.46126  0.83384  1.0000
  H   H3202     1.0  0.94098  0.36100  0.86024  1.0000
  H   H3203     1.0  0.89264  0.35048  0.86080  1.0000
  H   H3204     1.0  0.96956  0.36185  0.87785  1.0000
  C   C3995     1.0  0.82609  0.47677  0.94186  1.0000
  C   C3996     1.0  0.77211  0.25464  0.79534  1.0000
  H   H3205     1.0  0.52702  0.11992  0.92575  1.0000
  H   H3206     1.0  0.54410  0.26799  0.78843  1.0000
  H   H3207     1.0  0.52166  0.17346  0.87565  1.0000
  H   H3208     1.0  0.71371  0.31848  0.84604  1.0000
  C   C3997     1.0  0.52221  0.11668  0.79611  1.0000
  C   C3998     1.0  0.73721  0.31031  0.82793  1.0000
  H   H3209     1.0  0.84532  0.42303  0.85010  1.0000
  H   H3210     1.0  0.49367  0.21100  0.85649  1.0000
  H   H3211     1.0  0.49805  0.23171  0.90307  1.0000
  C   C3999     1.0  0.98537  0.35278  0.83157  1.0000
  H   H3212     1.0  0.98255  0.38011  0.82213  1.0000
  C   C4000     1.0  0.51761  0.01909  0.81649  1.0000
  C   C4001     1.0  0.78013  0.47488  0.89682  1.0000
  H   H3213     1.0  0.66599  0.26516  0.78972  1.0000
  C   C4002     1.0  0.84234  0.46962  0.94610  1.0000
  H   H3214     1.0  0.69950  0.14764  0.89153  1.0000
  C   C4003     1.0  0.72601  0.28013  0.85080  1.0000
  H   H3215     1.0  0.96653  0.42777  0.93835  1.0000
  H   H3216     1.0  0.55513  0.06692  0.93759  1.0000
  Fe  Fe281     1.0  0.95698  0.36228  0.78954  1.0000
  C   C4004     1.0  0.97398  0.35952  0.86484  1.0000
  C   C4005     1.0  0.66272  0.25471  0.78654  1.0000
  C   C4006     1.0  0.75371  0.28298  0.79785  1.0000
  C   C4007     1.0  0.50151  0.09828  0.80982  1.0000
  H   H3217     1.0  0.71565  0.12516  0.91179  1.0000
  C   C4008     1.0  0.58880  0.24269  0.94110  1.0000
  H   H3218     1.0  0.75675  0.47724  0.83250  1.0000
  H   H3219     1.0  0.53433  0.31839  0.96231  1.0000
  C   C4009     1.0  0.61903  0.38334  0.96877  1.0000
  H   H3220     1.0  0.62877  0.22405  0.95018  1.0000
  H   H3221     1.0  0.65158  0.21579  0.89213  1.0000
  H   H3222     1.0  0.79828  0.43464  0.97427  1.0000
  C   C4010     1.0  0.71280  0.29587  0.81827  1.0000
  H   H3223     1.0  0.57740  0.16306  0.85824  1.0000
  C   C4011     1.0  0.89449  0.47098  0.85302  1.0000
  H   H3224     1.0  0.98596  0.32591  0.84436  1.0000
  H   H3225     1.0  0.62419  0.16934  0.93381  1.0000
  C   C4012     1.0  0.88530  0.39680  0.95559  1.0000
  H   H3226     1.0  0.52965  0.28361  0.92249  1.0000
  C   C4013     1.0  0.58056  0.12199  0.79423  1.0000
  C   C4014     1.0  0.74794  0.27666  0.81571  1.0000
  S   S572      1.0  0.65361  0.10561  0.98393  1.0000
  C   C4015     1.0  0.80586  0.42800  0.96407  1.0000
  H   H3227     1.0  0.96364  0.44742  0.79155  1.0000
  C   C4016     1.0  0.53992  0.19218  0.98199  1.0000
  C   C4017     1.0  0.75424  0.22224  0.96342  1.0000
  C   C4018     1.0  0.81136  0.47972  0.95495  1.0000
  H   H3228     1.0  0.86795  0.47045  0.79724  1.0000
  C   C4019     1.0  0.64855  0.03927  0.94881  1.0000
  H   H3229     1.0  0.63580  0.26170  0.79826  1.0000
  H   H3230     1.0  0.68284  0.33011  0.80147  1.0000
  P   P132      1.0  0.71056  0.26030  0.95654  1.0000
  C   C4020     1.0  0.98142  0.36987  0.83365  1.0000
  H   H3231     1.0  0.89991  0.46383  0.94378  1.0000
  C   C4021     1.0  0.76333  0.24582  0.94046  1.0000
  H   H3232     1.0  0.50191  0.25096  0.94502  1.0000
  H   H3233     1.0  0.79622  0.47770  0.91216  1.0000
  H   H3234     1.0  0.94369  0.42593  0.84504  1.0000
  H   H3235     1.0  0.58263  0.07601  0.92222  1.0000
  H   H3236     1.0  0.54428  0.16061  0.89316  1.0000
  C   C4022     1.0  0.70104  0.25373  0.94272  1.0000
  C   C4023     1.0  0.70455  0.23613  0.94206  1.0000
  C   C4024     1.0  0.69642  0.23094  0.93208  1.0000
  C   C4025     1.0  0.68499  0.24330  0.92246  1.0000
  C   C4026     1.0  0.68147  0.26081  0.92308  1.0000
  C   C4027     1.0  0.68909  0.26594  0.93348  1.0000
  C   C4028     1.0  0.85608  0.47877  0.83011  1.0000
  H   H3237     1.0  0.58556  0.12967  0.79968  1.0000
  H   H3238     1.0  0.71578  0.31570  0.91332  1.0000
  P   P133      1.0  0.87867  0.47965  0.82467  1.0000
  C   C4029     1.0  0.58405  0.09560  0.78484  1.0000
  H   H3239     1.0  0.86818  0.43241  0.98229  1.0000
  C   C4030     1.0  0.56227  0.03148  0.78868  1.0000
  H   H3240     1.0  0.56479  0.23954  0.95851  1.0000
  H   H3241     1.0  0.55746  0.11997  0.98245  1.0000
  H   H3242     1.0  0.71786  0.28401  0.92236  1.0000
  C   C4031     1.0  0.51388  0.18293  0.92123  1.0000
  C   C4032     1.0  0.64767  0.17540  0.91658  1.0000
  C   C4033     1.0  0.51922  0.08736  0.86978  1.0000
  Fe  Fe282     1.0  0.49649  0.15080  0.98131  1.0000
  C   C4034     1.0  0.61992  0.47466  0.86473  1.0000
  C   C4035     1.0  0.88943  0.46479  0.84134  1.0000
  H   H3243     1.0  0.69864  0.21728  0.93209  1.0000
  H   H3244     1.0  0.67856  0.23928  0.91483  1.0000
  H   H3245     1.0  0.67250  0.27042  0.91579  1.0000
  H   H3246     1.0  0.77780  0.30574  0.96328  1.0000
  C   C4036     1.0  0.92264  0.39565  0.88212  1.0000
  C   C4037     1.0  0.92338  0.39813  0.89802  1.0000
  C   C4038     1.0  0.93877  0.40029  0.90037  1.0000
  H   H3247     1.0  0.91080  0.39358  0.88047  1.0000
  H   H3248     1.0  0.91209  0.39807  0.90859  1.0000
  H   H3249     1.0  0.93942  0.40176  0.91287  1.0000
  C   C4039     1.0  0.63066  0.45810  0.86842  1.0000
  H   H3250     1.0  0.49427  0.19224  0.88704  1.0000
  H   H3251     1.0  0.71148  0.23983  0.86824  1.0000
  H   H3252     1.0  0.90941  0.34063  0.78868  1.0000
  P   P134      1.0  0.54023  0.01285  0.78528  1.0000
  C   C4040     1.0  0.63065  0.02054  0.96948  1.0000
  C   C4041     1.0  0.68206  0.16142  0.84632  1.0000
  C   C4042     1.0  0.51038  0.11224  0.82716  1.0000
  C   C4043     1.0  0.89922  0.40518  0.80298  1.0000
  H   H3253     1.0  0.98077  0.42512  0.85857  1.0000
  C   C4044     1.0  0.92115  0.41880  0.80476  1.0000
  C   C4045     1.0  0.92098  0.40932  0.82184  1.0000
  C   C4046     1.0  0.90965  0.39815  0.82969  1.0000
  C   C4047     1.0  0.89890  0.39597  0.82028  1.0000
  C   C4048     1.0  0.64150  0.23866  0.78797  1.0000
  C   C4049     1.0  0.77853  0.27874  0.94559  1.0000
  H   H3254     1.0  0.76242  0.30566  0.81071  1.0000
  C   C4050     1.0  0.79960  0.31549  0.91127  1.0000
  C   C4051     1.0  0.86766  0.40135  0.96284  1.0000
  H   H3255     1.0  0.97568  0.33188  0.87393  1.0000
  C   C4052     1.0  0.70210  0.31202  0.95692  1.0000
  C   C4053     1.0  0.87154  0.35547  0.81501  1.0000
  C   C4054     1.0  0.88501  0.34375  0.80699  1.0000
  C   C4055     1.0  0.52080  0.10325  0.87153  1.0000
  H   H3256     1.0  0.66487  0.46940  0.87439  1.0000
  C   C4056     1.0  0.82018  0.48110  0.84037  1.0000
  H   H3257     1.0  0.73821  0.47455  0.96412  1.0000
  C   C4057     1.0  0.63670  0.02881  0.95235  1.0000
  C   C4058     1.0  0.91781  0.46497  0.78511  1.0000
  C   C4059     1.0  0.86387  0.41598  0.79694  1.0000
  C   C4060     1.0  0.56417  0.12815  0.79012  1.0000
  H   H3258     1.0  0.92975  0.41048  0.82889  1.0000
  H   H3259     1.0  0.90945  0.39082  0.84295  1.0000
  H   H3260     1.0  0.89051  0.38692  0.82652  1.0000
  C   C4061     1.0  0.75398  0.25904  0.82316  1.0000
  C   C4062     1.0  0.75430  0.30074  0.88395  1.0000
  C   C4063     1.0  0.95342  0.39998  0.88681  1.0000
  P   P135      1.0  0.78939  0.29831  0.91213  1.0000
  H   H3261     1.0  0.68320  0.15603  0.83534  1.0000
  C   C4064     1.0  0.59294  0.02021  0.78799  1.0000
  C   C4065     1.0  0.65243  0.47105  0.87134  1.0000
  H   H3262     1.0  0.88536  0.32993  0.81106  1.0000
  H   H3263     1.0  0.91051  0.40137  0.95232  1.0000
  H   H3264     1.0  0.81379  0.44739  0.91402  1.0000
  C   C4066     1.0  0.50309  0.05342  0.80157  1.0000
  C   C4067     1.0  0.76736  0.22924  0.95103  1.0000
  H   H3265     1.0  0.91526  0.47340  0.80833  1.0000
  C   C4068     1.0  0.83111  0.47041  0.85139  1.0000
  H   H3266     1.0  0.70703  0.16782  0.83709  1.0000
  C   C4069     1.0  0.57183  0.27835  0.96562  1.0000
  C   C4070     1.0  0.65345  0.19507  0.97959  1.0000
  C   C4071     1.0  0.50050  0.24289  0.92271  1.0000
  H   H3267     1.0  0.80736  0.29742  0.96869  1.0000
  C   C4072     1.0  0.69556  0.16794  0.84741  1.0000
  H   H3268     1.0  0.50737  0.12739  0.87915  1.0000
  C   C4073     1.0  0.96520  0.43767  0.80345  1.0000
  H   H3269     1.0  0.70554  0.33376  0.93518  1.0000
  H   H3270     1.0  0.78136  0.24611  0.78746  1.0000
  H   H3271     1.0  0.66820  0.30728  0.92312  1.0000
  C   C4074     1.0  0.95331  0.42971  0.93711  1.0000
  C   C4075     1.0  0.49763  0.24198  0.94049  1.0000
  H   H3272     1.0  0.68045  0.17967  0.92939  1.0000
  C   C4076     1.0  0.69806  0.20445  0.89608  1.0000
  S   S573      1.0  0.49457  0.26212  0.87498  1.0000
  Fe  Fe283     1.0  0.66040  0.15238  0.97612  1.0000
  C   C4077     1.0  0.59260  0.37282  0.97680  1.0000
  C   C4078     1.0  0.50615  0.11497  0.87800  1.0000
  H   H3273     1.0  0.68883  0.27557  0.80583  1.0000
  C   C4079     1.0  0.65452  0.04132  0.96236  1.0000
  H   H3274     1.0  0.85378  0.46759  0.93599  1.0000
  C   C4080     1.0  0.50732  0.24618  0.79443  1.0000
  S   S574      1.0  0.52717  0.10783  0.97050  1.0000
  C   C4081     1.0  0.86201  0.43050  0.80371  1.0000
  C   C4082     1.0  0.86485  0.29059  0.95924  1.0000
  C   C4083     1.0  0.52119  0.32494  0.96703  1.0000
  H   H3275     1.0  0.50072  0.33117  0.80585  1.0000
  C   C4084     1.0  0.64567  0.25260  0.79147  1.0000
  C   C4085     1.0  0.52334  0.02584  0.79872  1.0000
  H   H3276     1.0  0.60322  0.10108  0.79466  1.0000
  C   C4086     1.0  0.60155  0.35823  0.96996  1.0000
  C   C4087     1.0  0.90840  0.47070  0.80017  1.0000
  H   H3277     1.0  0.87699  0.28108  0.95754  1.0000
  C   C4088     1.0  0.69855  0.15565  0.93614  1.0000
  H   H3278     1.0  0.82672  0.44093  0.95867  1.0000
  H   H3279     1.0  0.64158  0.07464  0.80003  1.0000
  C   C4089     1.0  0.49282  0.31524  0.92008  1.0000
  H   H3280     1.0  0.50697  0.25260  0.91338  1.0000
  H   H3281     1.0  0.87310  0.43341  0.80604  1.0000
  C   C4090     1.0  0.89030  0.47299  0.80466  1.0000
  S   S575      1.0  0.66621  0.17921  0.96795  1.0000
  C   C4091     1.0  0.54339  0.23179  0.81031  1.0000
  H   H3282     1.0  0.96528  0.40118  0.88915  1.0000
  H   H3283     1.0  0.65490  0.16203  0.91927  1.0000
  C   C4092     1.0  0.50878  0.29766  0.79888  1.0000
  C   C4093     1.0  0.52646  0.22280  0.97927  1.0000
  P   P136      1.0  0.65131  0.36547  0.95384  1.0000
  C   C4094     1.0  0.66268  0.36091  0.97114  1.0000
  C   C4095     1.0  0.65867  0.34706  0.94373  1.0000
  C   C4096     1.0  0.52952  0.17242  0.91456  1.0000
  H   H3284     1.0  0.81728  0.24434  0.89053  1.0000
  C   C4097     1.0  0.83247  0.36629  0.97173  1.0000
  H   H3285     1.0  0.64199  0.07218  0.97940  1.0000
  C   C4098     1.0  0.66075  0.34939  0.92571  1.0000
  C   C4099     1.0  0.68086  0.35630  0.96757  1.0000
  C   C4100     1.0  0.51248  0.10564  0.79497  1.0000
  C   C4101     1.0  0.92290  0.43087  0.95051  1.0000
  H   H3286     1.0  0.67312  0.48589  0.84122  1.0000
  C   C4102     1.0  0.83112  0.43784  0.80498  1.0000
  C   C4103     1.0  0.65521  0.38519  0.93811  1.0000
  C   C4104     1.0  0.66864  0.39277  0.93785  1.0000
  C   C4105     1.0  0.67173  0.40770  0.92527  1.0000
  C   C4106     1.0  0.66137  0.41532  0.91297  1.0000
  C   C4107     1.0  0.64777  0.40812  0.91333  1.0000
  C   C4108     1.0  0.64462  0.39318  0.92591  1.0000
  H   H3287     1.0  0.71762  0.06070  0.97360  1.0000
  C   C4109     1.0  0.84568  0.44130  0.80781  1.0000
  C   C4110     1.0  0.93726  0.39524  0.86857  1.0000
  H   H3288     1.0  0.95154  0.35842  0.82940  1.0000
  C   C4111     1.0  0.76587  0.27205  0.78775  1.0000
  C   C4112     1.0  0.80334  0.45198  0.90703  1.0000
  C   C4113     1.0  0.76672  0.27562  0.96143  1.0000
  C   C4114     1.0  0.83378  0.26038  0.91493  1.0000
  C   C4115     1.0  0.93242  0.43619  0.91907  1.0000
  H   H3289     1.0  0.65934  0.36219  0.91724  1.0000
  H   H3290     1.0  0.68807  0.35485  0.95468  1.0000
  H   H3291     1.0  0.97288  0.46812  0.84553  1.0000
  C   C4116     1.0  0.70667  0.31980  0.93932  1.0000
  C   C4117     1.0  0.74834  0.47575  0.96955  1.0000
  H   H3292     1.0  0.66407  0.21587  0.96101  1.0000
  H   H3293     1.0  0.67688  0.38728  0.94716  1.0000
  H   H3294     1.0  0.68236  0.41324  0.92489  1.0000
  H   H3295     1.0  0.66408  0.42667  0.90304  1.0000
  H   H3296     1.0  0.63987  0.41394  0.90366  1.0000
  H   H3297     1.0  0.63416  0.38760  0.92590  1.0000
  C   C4118     1.0  0.51947  0.17615  0.88838  1.0000
  C   C4119     1.0  0.77618  0.38403  0.90580  1.0000
  C   C4120     1.0  0.76168  0.38801  0.91871  1.0000
  C   C4121     1.0  0.75491  0.40516  0.92047  1.0000
  C   C4122     1.0  0.76213  0.41854  0.90865  1.0000
  C   C4123     1.0  0.77615  0.41477  0.89504  1.0000
  C   C4124     1.0  0.78348  0.39736  0.89405  1.0000
  C   C4125     1.0  0.50044  0.10159  0.82591  1.0000
  C   C4126     1.0  0.80211  0.42418  0.86301  1.0000
  C   C4127     1.0  0.81803  0.42816  0.86127  1.0000
  P   P137      1.0  0.67791  0.18293  0.89378  1.0000
  C   C4128     1.0  0.69417  0.17466  0.86171  1.0000
  C   C4129     1.0  0.81593  0.40594  0.84212  1.0000
  C   C4130     1.0  0.80103  0.41353  0.85279  1.0000
  H   H3298     1.0  0.78154  0.37064  0.90471  1.0000
  H   H3299     1.0  0.75579  0.37774  0.92743  1.0000
  H   H3300     1.0  0.74385  0.40807  0.93079  1.0000
  H   H3301     1.0  0.75642  0.43188  0.90976  1.0000
  C   C4131     1.0  0.70724  0.28233  0.81561  1.0000
  H   H3302     1.0  0.88999  0.38640  0.94863  1.0000
  H   H3303     1.0  0.54019  0.17283  0.79237  1.0000
  H   H3304     1.0  0.81514  0.39725  0.83474  1.0000
  H   H3305     1.0  0.78882  0.41047  0.85361  1.0000
  C   C4132     1.0  0.69318  0.28605  0.80769  1.0000
  C   C4133     1.0  0.60038  0.08105  0.86644  1.0000
  C   C4134     1.0  0.61608  0.08451  0.85600  1.0000
  C   C4135     1.0  0.62400  0.09540  0.85999  1.0000
  C   C4136     1.0  0.61618  0.10299  0.87427  1.0000
  C   C4137     1.0  0.60071  0.09917  0.88522  1.0000
  C   C4138     1.0  0.59268  0.08836  0.88097  1.0000
  P   P138      1.0  0.59057  0.10959  0.90339  1.0000
  C   C4139     1.0  0.60390  0.10360  0.91944  1.0000
  C   C4140     1.0  0.58612  0.13288  0.89487  1.0000
  C   C4141     1.0  0.58524  0.14427  0.90517  1.0000
  C   C4142     1.0  0.52577  0.34040  0.88940  1.0000
  C   C4143     1.0  0.58292  0.13982  0.87800  1.0000
  C   C4144     1.0  0.62198  0.09766  0.91515  1.0000
  C   C4145     1.0  0.63199  0.09389  0.92762  1.0000
  C   C4146     1.0  0.62410  0.09599  0.94448  1.0000
  C   C4147     1.0  0.60614  0.10148  0.94901  1.0000
  C   C4148     1.0  0.59609  0.10527  0.93658  1.0000
  C   C4149     1.0  0.57039  0.10319  0.91463  1.0000
  C   C4150     1.0  0.55459  0.11555  0.91582  1.0000
  C   C4151     1.0  0.82066  0.27523  0.91697  1.0000
  H   H3306     1.0  0.76910  0.33313  0.81069  1.0000
  H   H3307     1.0  0.94035  0.44821  0.81811  1.0000
  H   H3308     1.0  0.59404  0.07294  0.86306  1.0000
  H   H3309     1.0  0.62196  0.07918  0.84452  1.0000
  H   H3310     1.0  0.63595  0.09846  0.85161  1.0000
  H   H3311     1.0  0.62204  0.11221  0.87648  1.0000
  H   H3312     1.0  0.58029  0.08588  0.88846  1.0000
  H   H3313     1.0  0.58759  0.13931  0.91819  1.0000
  S   S576      1.0  0.67716  0.17365  0.80173  1.0000
  H   H3314     1.0  0.58333  0.13139  0.86980  1.0000
  H   H3315     1.0  0.51767  0.26073  0.83003  1.0000
  H   H3316     1.0  0.63198  0.09390  0.95382  1.0000
  H   H3317     1.0  0.59999  0.10332  0.96202  1.0000
  H   H3318     1.0  0.58222  0.10993  0.94027  1.0000
  H   H3319     1.0  0.55408  0.12924  0.91023  1.0000
  H   H3320     1.0  0.55366  0.28229  0.89826  1.0000
  C   C4152     1.0  0.53932  0.09281  0.93231  1.0000
  C   C4153     1.0  0.66245  0.45009  0.93357  1.0000
  C   C4154     1.0  0.67675  0.45588  0.92218  1.0000
  C   C4155     1.0  0.68753  0.46209  0.92835  1.0000
  C   C4156     1.0  0.68425  0.46227  0.94592  1.0000
  C   C4157     1.0  0.67018  0.45605  0.95752  1.0000
  C   C4158     1.0  0.65915  0.45020  0.95118  1.0000
  C   C4159     1.0  0.94006  0.42843  0.95201  1.0000
  C   C4160     1.0  0.84387  0.46519  0.96341  1.0000
  C   C4161     1.0  0.57052  0.08565  0.92276  1.0000
  C   C4162     1.0  0.62069  0.19664  0.92156  1.0000
  H   H3321     1.0  0.71364  0.26885  0.81977  1.0000
  C   C4163     1.0  0.55611  0.23752  0.81433  1.0000
  Fe  Fe284     1.0  0.50157  0.12169  0.96311  1.0000
  P   P139      1.0  0.66569  0.45620  0.98027  1.0000
  H   H3322     1.0  0.74906  0.25351  0.83663  1.0000
  C   C4164     1.0  0.98900  0.45365  0.82665  1.0000
  H   H3323     1.0  0.56074  0.31033  0.87526  1.0000
  C   C4165     1.0  0.71254  0.30957  0.92699  1.0000
  H   H3324     1.0  0.62528  0.34177  0.87653  1.0000
  H   H3325     1.0  0.65395  0.44550  0.92877  1.0000
  H   H3326     1.0  0.67939  0.45570  0.90855  1.0000
  H   H3327     1.0  0.69834  0.46702  0.91952  1.0000
  H   H3328     1.0  0.69269  0.46734  0.95030  1.0000
  H   H3329     1.0  0.86116  0.38190  0.81720  1.0000
  H   H3330     1.0  0.75222  0.27470  0.85445  1.0000
  C   C4166     1.0  0.50080  0.18999  0.91161  1.0000
  C   C4167     1.0  0.57941  0.15784  0.87141  1.0000
  C   C4168     1.0  0.83397  0.31571  0.96394  1.0000
  H   H3331     1.0  0.52766  0.20340  0.79396  1.0000
  C   C4169     1.0  0.50908  0.30496  0.91472  1.0000
  C   C4170     1.0  0.59469  0.32324  0.90752  1.0000
  C   C4171     1.0  0.74515  0.34137  0.82796  1.0000
  C   C4172     1.0  0.77460  0.29390  0.93280  1.0000
  H   H3332     1.0  0.74503  0.26091  0.88571  1.0000
  C   C4173     1.0  0.78187  0.35405  0.97074  1.0000
  C   C4174     1.0  0.89266  0.44677  0.84278  1.0000
  C   C4175     1.0  0.90074  0.43514  0.85583  1.0000
  C   C4176     1.0  0.90579  0.44144  0.86739  1.0000
  C   C4177     1.0  0.90266  0.45934  0.86599  1.0000
  C   C4178     1.0  0.54149  0.19936  0.78930  1.0000
  C   C4179     1.0  0.74622  0.25547  0.94234  1.0000
  C   C4180     1.0  0.96923  0.41210  0.83409  1.0000
  H   H3333     1.0  0.90267  0.42126  0.85723  1.0000
  H   H3334     1.0  0.91168  0.43251  0.87777  1.0000
  H   H3335     1.0  0.93013  0.42727  0.79856  1.0000
  H   H3336     1.0  0.58260  0.25125  0.93074  1.0000
  H   H3337     1.0  0.52726  0.08893  0.93916  1.0000
  H   H3338     1.0  0.52301  0.00586  0.82251  1.0000
  H   H3339     1.0  0.72056  0.34578  0.84584  1.0000
  Fe  Fe285     1.0  0.50445  0.15888  0.84131  1.0000
  C   C4181     1.0  0.91008  0.41700  0.79547  1.0000
  C   C4182     1.0  0.66426  0.33503  0.91839  1.0000
  H   H3340     1.0  0.81842  0.44603  0.80846  1.0000
  H   H3341     1.0  0.65904  0.32793  0.96816  1.0000
  P   P140      1.0  0.90539  0.43017  0.96942  1.0000
  C   C4183     1.0  0.61807  0.21801  0.84567  1.0000
  P   P141      1.0  0.78309  0.43242  0.87813  1.0000
  S   S577      1.0  0.49726  0.17720  0.81715  1.0000
  H   H3342     1.0  0.54278  0.27292  0.82737  1.0000
  C   C4184     1.0  0.59161  0.00433  0.78605  1.0000
  H   H3343     1.0  0.75367  0.42083  0.87459  1.0000
  C   C4185     1.0  0.68943  0.16583  0.90857  1.0000
  C   C4186     1.0  0.58692  0.29307  0.78561  1.0000
  H   H3344     1.0  0.59965  0.27380  0.95853  1.0000
  H   H3345     1.0  0.61689  0.32689  0.85878  1.0000
  C   C4187     1.0  0.75453  0.43320  0.86557  1.0000
  H   H3346     1.0  0.80758  0.42763  0.89998  1.0000
  H   H3347     1.0  0.73363  0.43291  0.85470  1.0000
  H   H3348     1.0  0.79462  0.39399  0.88413  1.0000
  C   C4188     1.0  0.74313  0.44000  0.85419  1.0000
  H   H3349     1.0  0.54422  0.28368  0.96852  1.0000
  C   C4189     1.0  0.55689  0.23542  0.83165  1.0000
  C   C4190     1.0  0.54413  0.17084  0.83255  1.0000
  H   H3350     1.0  0.81860  0.37083  0.97486  1.0000
  C   C4191     1.0  0.76786  0.45796  0.85280  1.0000
  C   C4192     1.0  0.76689  0.44223  0.86509  1.0000
  C   C4193     1.0  0.55235  0.21107  0.78521  1.0000
  C   C4194     1.0  0.55787  0.17941  0.82647  1.0000
  H   H3351     1.0  0.53095  0.17816  0.83560  1.0000
  C   C4195     1.0  0.57490  0.17005  0.82235  1.0000
  C   C4196     1.0  0.68449  0.22076  0.81614  1.0000
  Fe  Fe286     1.0  0.61670  0.16367  0.82074  1.0000
  H   H3352     1.0  0.77772  0.46477  0.85178  1.0000
  H   H3353     1.0  0.55544  0.19329  0.82485  1.0000
  C   C4197     1.0  0.75615  0.46494  0.84171  1.0000
  H   H3354     1.0  0.59130  0.14480  0.82057  1.0000
  C   C4198     1.0  0.60052  0.21649  0.82161  1.0000
  H   H3355     1.0  0.57239  0.28492  0.81136  1.0000
  C   C4199     1.0  0.79988  0.44085  0.89889  1.0000
  H   H3356     1.0  0.72709  0.22599  0.97473  1.0000
  H   H3357     1.0  0.60236  0.20130  0.86436  1.0000
  S   S578      1.0  0.61712  0.13781  0.83907  1.0000
  S   S579      1.0  0.59179  0.18110  0.81459  1.0000
  C   C4200     1.0  0.56085  0.01561  0.78654  1.0000
  C   C4201     1.0  0.78701  0.44691  0.88897  1.0000
  H   H3358     1.0  0.64598  0.09016  0.92396  1.0000
  H   H3359     1.0  0.58930  0.15187  0.94374  1.0000
  C   C4202     1.0  0.69952  0.25401  0.97890  1.0000
  S   S580      1.0  0.55763  0.14117  0.94793  1.0000
  Fe  Fe287     1.0  0.53243  0.13451  0.96327  1.0000
  H   H3360     1.0  0.54634  0.22498  0.85846  1.0000
  C   C4203     1.0  0.60526  0.20840  0.85099  1.0000
  H   H3361     1.0  0.58660  0.20014  0.84296  1.0000
  H   H3362     1.0  0.69146  0.27140  0.88320  1.0000
  S   S581      1.0  0.65882  0.13359  0.83387  1.0000
  C   C4204     1.0  0.73496  0.26599  0.87827  1.0000
  C   C4205     1.0  0.59639  0.20776  0.83898  1.0000
  C   C4206     1.0  0.77735  0.30432  0.89507  1.0000
  C   C4207     1.0  0.59038  0.31418  0.89770  1.0000
  Fe  Fe288     1.0  0.65512  0.16031  0.81605  1.0000
  C   C4208     1.0  0.67976  0.19133  0.80826  1.0000
  C   C4209     1.0  0.69774  0.21138  0.80531  1.0000
  C   C4210     1.0  0.80501  0.26779  0.89998  1.0000
  H   H3363     1.0  0.58821  0.07189  0.95453  1.0000
  H   H3364     1.0  0.66551  0.30278  0.95494  1.0000
  C   C4211     1.0  0.82314  0.33063  0.89818  1.0000
  H   H3365     1.0  0.77511  0.36490  0.94586  1.0000
  C   C4212     1.0  0.64690  0.45630  0.87180  1.0000
  C   C4213     1.0  0.54553  0.22692  0.84505  1.0000
  H   H3366     1.0  0.52528  0.31613  0.78775  1.0000
  C   C4214     1.0  0.69535  0.19682  0.80133  1.0000
  C   C4215     1.0  0.68908  0.03547  0.97960  1.0000
  C   C4216     1.0  0.70409  0.31318  0.81280  1.0000
  C   C4217     1.0  0.68864  0.16813  0.92508  1.0000
  C   C4218     1.0  0.80249  0.33783  0.92376  1.0000
  C   C4219     1.0  0.82188  0.43181  0.95507  1.0000
  H   H3367     1.0  0.70486  0.17942  0.86249  1.0000
  H   H3368     1.0  0.78061  0.22174  0.94957  1.0000
  H   H3369     1.0  0.57613  0.18299  0.87655  1.0000
  C   C4220     1.0  0.59801  0.31606  0.87995  1.0000
  C   C4221     1.0  0.57107  0.31313  0.83096  1.0000
  H   H3370     1.0  0.71552  0.13022  0.94021  1.0000
  H   H3371     1.0  0.59483  0.34840  0.97051  1.0000
  C   C4222     1.0  0.84916  0.41261  0.79415  1.0000
  H   H3372     1.0  0.62862  0.09635  0.90218  1.0000
  H   H3373     1.0  0.59355  0.21579  0.81249  1.0000
  C   C4223     1.0  0.53340  0.22050  0.84115  1.0000
  H   H3374     1.0  0.53520  0.33108  0.86573  1.0000
  H   H3375     1.0  0.52526  0.21309  0.85151  1.0000
  H   H3376     1.0  0.62576  0.34470  0.95731  1.0000
  H   H3377     1.0  0.53061  0.07837  0.86461  1.0000
  H   H3378     1.0  0.76627  0.46869  0.88167  1.0000
  H   H3379     1.0  0.57268  0.32615  0.82427  1.0000
  C   C4224     1.0  0.61372  0.22574  0.81606  1.0000
  C   C4225     1.0  0.62220  0.22676  0.82830  1.0000
  C   C4226     1.0  0.91181  0.34990  0.83695  1.0000
  H   H3380     1.0  0.85650  0.45992  0.96660  1.0000
  H   H3381     1.0  0.75541  0.46126  0.92860  1.0000
  C   C4227     1.0  0.95276  0.39750  0.87075  1.0000
  C   C4228     1.0  0.69431  0.22678  0.86402  1.0000
  C   C4229     1.0  0.49753  0.04667  0.81923  1.0000
  H   H3382     1.0  0.51591  0.30777  0.90146  1.0000
  H   H3383     1.0  0.59303  0.23966  0.88215  1.0000
  C   C4230     1.0  0.86155  0.30522  0.94590  1.0000
  H   H3384     1.0  0.77815  0.44291  0.94431  1.0000
  C   C4231     1.0  0.50384  0.18672  0.89499  1.0000
  H   H3385     1.0  0.84499  0.25758  0.92060  1.0000
  H   H3386     1.0  0.90608  0.43662  0.93254  1.0000
  H   H3387     1.0  0.49361  0.09025  0.80879  1.0000
  H   H3388     1.0  0.77374  0.39515  0.94632  1.0000
  H   H3389     1.0  0.81909  0.43691  0.86829  1.0000
  H   H3390     1.0  0.61527  0.25091  0.88815  1.0000
  H   H3391     1.0  0.67927  0.24582  0.97295  1.0000
  H   H3392     1.0  0.52861  0.12821  0.81356  1.0000
  C   C4232     1.0  0.70347  0.29404  0.96219  1.0000
  C   C4233     1.0  0.81277  0.47517  0.97246  1.0000
  C   C4234     1.0  0.79352  0.46902  0.90593  1.0000
  H   H3393     1.0  0.94328  0.42552  0.96460  1.0000
  C   C4235     1.0  0.75276  0.45011  0.93890  1.0000
  C   C4236     1.0  0.55451  0.31632  0.90071  1.0000
  H   H3394     1.0  0.75312  0.31420  0.85759  1.0000
  H   H3395     1.0  0.51504  0.20402  0.97529  1.0000
  C   C4237     1.0  0.58925  0.25128  0.88730  1.0000
  C   C4238     1.0  0.58151  0.16228  0.89863  1.0000
  H   H3396     1.0  0.53332  0.10668  0.86760  1.0000
  C   C4239     1.0  0.57827  0.03378  0.78931  1.0000
  H   H3397     1.0  0.71309  0.22631  0.94967  1.0000
  C   C4240     1.0  0.60474  0.22113  0.96807  1.0000
  C   C4241     1.0  0.76564  0.43959  0.94785  1.0000
  C   C4242     1.0  0.76612  0.24813  0.81301  1.0000
  C   C4243     1.0  0.59199  0.26368  0.80315  1.0000
  H   H3398     1.0  0.72662  0.45416  0.93592  1.0000
  C   C4244     1.0  0.80974  0.40760  0.94630  1.0000
  C   C4245     1.0  0.54311  0.32726  0.91135  1.0000
  H   H3399     1.0  0.95970  0.43489  0.90911  1.0000
  Fe  Fe289     1.0  0.64102  0.12847  0.82013  1.0000
  H   H3400     1.0  0.53946  0.16682  0.92218  1.0000
  H   H3401     1.0  0.69848  0.28518  0.85214  1.0000
  C   C4246     1.0  0.56813  0.06512  0.97656  1.0000
  C   C4247     1.0  0.55646  0.28474  0.95954  1.0000
  H   H3402     1.0  0.56217  0.25527  0.88762  1.0000
  C   C4248     1.0  0.75304  0.31437  0.81821  1.0000
  C   C4249     1.0  0.50873  0.28819  0.94415  1.0000
  H   H3403     1.0  0.65529  0.44348  0.87465  1.0000
  C   C4250     1.0  0.58257  0.28089  0.80087  1.0000
  C   C4251     1.0  0.93879  0.35658  0.83630  1.0000
  C   C4252     1.0  0.95206  0.43802  0.81839  1.0000
  H   H3404     1.0  0.69304  0.23531  0.85154  1.0000
  C   C4253     1.0  0.58661  0.22494  0.97056  1.0000
  C   C4254     1.0  0.57871  0.23597  0.95698  1.0000
  C   C4255     1.0  0.72962  0.33714  0.83799  1.0000
  C   C4256     1.0  0.57190  0.26017  0.89021  1.0000
  C   C4257     1.0  0.50298  0.08314  0.87460  1.0000
  H   H3405     1.0  0.54486  0.29633  0.93734  1.0000
  C   C4258     1.0  0.51699  0.29142  0.92670  1.0000
  C   C4259     1.0  0.53208  0.22316  0.82390  1.0000
  H   H3406     1.0  0.79816  0.34537  0.93363  1.0000
  C   C4260     1.0  0.80622  0.27909  0.90943  1.0000
  C   C4261     1.0  0.73650  0.44614  0.94301  1.0000
  C   C4262     1.0  0.98596  0.46179  0.84032  1.0000
  C   C4263     1.0  0.87140  0.37326  0.81028  1.0000
  C   C4264     1.0  0.59707  0.27298  0.89660  1.0000
  C   C4265     1.0  0.55686  0.29213  0.94186  1.0000
  H   H3407     1.0  0.52273  0.21779  0.82121  1.0000
  H   H3408     1.0  0.70788  0.32398  0.81464  1.0000
  H   H3409     1.0  0.58867  0.32240  0.92114  1.0000
  H   H3410     1.0  0.86474  0.35211  0.93951  1.0000
  S   S582      1.0  0.63947  0.15414  0.80091  1.0000
  C   C4266     1.0  0.83196  0.40895  0.84154  1.0000
  H   H3411     1.0  0.60696  0.27763  0.89923  1.0000
  H   H3412     1.0  0.82373  0.35019  0.91074  1.0000
  H   H3413     1.0  0.70388  0.35099  0.97760  1.0000
  C   C4267     1.0  0.58765  0.27923  0.95400  1.0000
  C   C4268     1.0  0.81453  0.31809  0.89845  1.0000
  C   C4269     1.0  0.82561  0.41168  0.93714  1.0000
  H   H3414     1.0  0.73558  0.31273  0.95478  1.0000
  C   C4270     1.0  0.75113  0.28776  0.96472  1.0000
  H   H3415     1.0  0.88235  0.35034  0.96030  1.0000
  C   C4271     1.0  0.57978  0.28230  0.89897  1.0000
  C   C4272     1.0  0.56715  0.27560  0.89609  1.0000
  C   C4273     1.0  0.57268  0.29363  0.93022  1.0000
  H   H3416     1.0  0.54541  0.32677  0.92387  1.0000
  C   C4274     1.0  0.70480  0.27187  0.87689  1.0000
  H   H3417     1.0  0.62112  0.22290  0.90716  1.0000
  C   C4275     1.0  0.81714  0.34044  0.91088  1.0000
  H   H3418     1.0  0.78202  0.32425  0.93378  1.0000
  H   H3419     1.0  0.74858  0.29631  0.79170  1.0000
  H   H3420     1.0  0.51240  0.32641  0.94410  1.0000
  C   C4276     1.0  0.66441  0.31577  0.94675  1.0000
  C   C4277     1.0  0.57873  0.16906  0.88171  1.0000
  C   C4278     1.0  0.58810  0.28685  0.93641  1.0000
  C   C4279     1.0  0.92842  0.35219  0.82802  1.0000
  C   C4280     1.0  0.52867  0.33910  0.90578  1.0000
  C   C4281     1.0  0.78283  0.31506  0.87894  1.0000
  H   H3421     1.0  0.59439  0.30971  0.87198  1.0000
  P   P142      1.0  0.57382  0.30183  0.90715  1.0000
  H   H3422     1.0  0.75550  0.31751  0.92637  1.0000
  H   H3423     1.0  0.84415  0.42672  0.93455  1.0000
  H   H3424     1.0  0.63189  0.23441  0.82454  1.0000
  H   H3425     1.0  0.62569  0.39310  0.96848  1.0000
  H   H3426     1.0  0.71455  0.22025  0.89698  1.0000
  C   C4282     1.0  0.62848  0.20964  0.90975  1.0000
  P   P143      1.0  0.73129  0.29070  0.82815  1.0000
  H   H3427     1.0  0.60053  0.28717  0.92761  1.0000
  C   C4283     1.0  0.76003  0.31121  0.86791  1.0000
  C   C4284     1.0  0.88468  0.37950  0.79719  1.0000
  C   C4285     1.0  0.74733  0.30296  0.95214  1.0000
  H   H3428     1.0  0.54611  0.30102  0.80649  1.0000
  H   H3429     1.0  0.83321  0.40537  0.92668  1.0000
  H   H3430     1.0  0.80541  0.39809  0.94269  1.0000
  H   H3431     1.0  0.75847  0.28885  0.90970  1.0000
  H   H3432     1.0  0.60725  0.19986  0.92812  1.0000
  C   C4286     1.0  0.53560  0.29522  0.80721  1.0000
  C   C4287     1.0  0.70884  0.27949  0.85917  1.0000
  S   S583      1.0  0.64359  0.10265  0.81350  1.0000
  C   C4288     1.0  0.68447  0.30326  0.80251  1.0000
  C   C4289     1.0  0.53740  0.33001  0.87848  1.0000
  H   H3433     1.0  0.79358  0.32108  0.87668  1.0000
  C   C4290     1.0  0.55176  0.31809  0.88405  1.0000
  C   C4291     1.0  0.76234  0.42489  0.96095  1.0000
  C   C4292     1.0  0.73309  0.43162  0.95603  1.0000
  C   C4293     1.0  0.91925  0.43460  0.93394  1.0000
  H   H3434     1.0  0.72051  0.42848  0.95911  1.0000
  C   C4294     1.0  0.86843  0.35483  0.96351  1.0000
  C   C4295     1.0  0.74599  0.42092  0.96485  1.0000
  C   C4296     1.0  0.83174  0.42371  0.94157  1.0000
  H   H3435     1.0  0.82184  0.28375  0.92434  1.0000
  C   C4297     1.0  0.82915  0.46771  0.97657  1.0000
  H   H3436     1.0  0.77824  0.32708  0.85313  1.0000
  H   H3437     1.0  0.50971  0.11483  0.83957  1.0000
  H   H3438     1.0  0.64041  0.48163  0.96061  1.0000
  C   C4298     1.0  0.76303  0.29713  0.89743  1.0000
  H   H3439     1.0  0.56657  0.24000  0.83475  1.0000
  C   C4299     1.0  0.55502  0.08047  0.93145  1.0000
  H   H3440     1.0  0.83442  0.33287  0.88802  1.0000
  C   C4300     1.0  0.61524  0.33445  0.88236  1.0000
  H   H3441     1.0  0.85652  0.47935  0.89897  1.0000
  C   C4301     1.0  0.77421  0.31844  0.86542  1.0000
  H   H3442     1.0  0.63206  0.02729  0.94182  1.0000
  H   H3443     1.0  0.59849  0.30239  0.82960  1.0000
  C   C4302     1.0  0.49521  0.23117  0.91686  1.0000
  C   C4303     1.0  0.68565  0.21317  0.87051  1.0000
  C   C4304     1.0  0.60712  0.33328  0.89987  1.0000
  C   C4305     1.0  0.61058  0.32596  0.87237  1.0000
  H   H3444     1.0  0.61087  0.33967  0.90772  1.0000
  H   H3445     1.0  0.74281  0.29584  0.88601  1.0000
  C   C4306     1.0  0.84610  0.31769  0.94823  1.0000
  H   H3446     1.0  0.90611  0.46425  0.87525  1.0000
  H   H3447     1.0  0.49179  0.09607  0.83735  1.0000
  C   C4307     1.0  0.84049  0.36159  0.95581  1.0000
  H   H3448     1.0  0.51574  0.23365  0.97658  1.0000
  C   C4308     1.0  0.85847  0.35588  0.95172  1.0000
  C   C4309     1.0  0.79980  0.41559  0.95998  1.0000
  H   H3449     1.0  0.71471  0.25918  0.90014  1.0000
  H   H3450     1.0  0.81956  0.31044  0.88863  1.0000
  H   H3451     1.0  0.69723  0.31992  0.96654  1.0000
  H   H3452     1.0  0.97833  0.45407  0.82110  1.0000
  C   C4310     1.0  0.70475  0.22932  0.87349  1.0000
  C   C4311     1.0  0.73900  0.27369  0.86056  1.0000
  P   P144      1.0  0.77921  0.41046  0.97183  1.0000
  H   H3453     1.0  0.74207  0.28554  0.97706  1.0000
  C   C4312     1.0  0.71787  0.26505  0.88642  1.0000
  C   C4313     1.0  0.77959  0.38841  0.97184  1.0000
  H   H3454     1.0  0.61169  0.05908  0.97100  1.0000
  C   C4314     1.0  0.65559  0.18843  0.90477  1.0000
  S   S584      1.0  0.96362  0.38560  0.79275  1.0000
  H   H3455     1.0  0.89212  0.48476  0.85222  1.0000
  C   C4315     1.0  0.95405  0.42533  0.83367  1.0000
  C   C4316     1.0  0.77752  0.36767  0.95694  1.0000
  C   C4317     1.0  0.62820  0.36852  0.96219  1.0000
  C   C4318     1.0  0.59054  0.10579  0.79147  1.0000
  C   C4319     1.0  0.71376  0.29159  0.93221  1.0000
  H   H3456     1.0  0.85027  0.40150  0.78896  1.0000
  H   H3457     1.0  0.84372  0.32912  0.93793  1.0000
  C   C4320     1.0  0.65526  0.21237  0.97322  1.0000
  H   H3458     1.0  0.87109  0.30710  0.93386  1.0000
  H   H3459     1.0  0.60722  0.47601  0.86238  1.0000
  C   C4321     1.0  0.63026  0.17950  0.92487  1.0000
  H   H3460     1.0  0.92926  0.43953  0.90636  1.0000
  H   H3461     1.0  0.50041  0.02424  0.84040  1.0000
  C   C4322     1.0  0.68980  0.47287  0.98250  1.0000
  H   H3462     1.0  0.64803  0.44566  0.95989  1.0000
  H   H3463     1.0  0.51437  0.34928  0.88525  1.0000
  C   C4323     1.0  0.61478  0.22759  0.95208  1.0000
  H   H3464     1.0  0.65652  0.15709  0.85837  1.0000
  H   H3465     1.0  0.85703  0.46109  0.85532  1.0000
  H   H3466     1.0  0.74349  0.26828  0.93409  1.0000
  C   C4324     1.0  0.89686  0.40529  0.95776  1.0000
  C   C4325     1.0  0.68767  0.20165  0.88650  1.0000
  C   C4326     1.0  0.58566  0.29974  0.83405  1.0000
  H   H3467     1.0  0.84423  0.45218  0.81350  1.0000
  H   H3468     1.0  0.68533  0.27939  0.93449  1.0000
  C   C4327     1.0  0.83254  0.24924  0.90543  1.0000
  C   C4328     1.0  0.53357  0.27958  0.81910  1.0000
  H   H3469     1.0  0.58105  0.17090  0.90665  1.0000
  H   H3470     1.0  0.49728  0.06661  0.79563  1.0000
  H   H3471     1.0  0.56570  0.24325  0.80419  1.0000
  C   C4329     1.0  0.69927  0.15023  0.90381  1.0000
  H   H3472     1.0  0.65381  0.16870  0.88359  1.0000
  C   C4330     1.0  0.77654  0.38478  0.95737  1.0000
  C   C4331     1.0  0.67913  0.17509  0.87494  1.0000
  H   H3473     1.0  0.74811  0.35343  0.82794  1.0000
  S   S585      1.0  0.49477  0.30645  0.83891  1.0000
  C   C4332     1.0  0.89371  0.45208  0.97130  1.0000
  H   H3474     1.0  0.50808  0.24699  0.80711  1.0000
  H   H3475     1.0  0.62611  0.19921  0.79561  1.0000
  C   C4333     1.0  0.50887  0.32957  0.95675  1.0000
  H   H3476     1.0  0.51190  0.18535  0.93404  1.0000
  C   C4334     1.0  0.60683  0.23847  0.93863  1.0000
  C   C4335     1.0  0.53226  0.16893  0.89821  1.0000
  H   H3477     1.0  0.69808  0.15776  0.94874  1.0000
  H   H3478     1.0  0.61465  0.24369  0.92633  1.0000
  P   P145      1.0  0.54325  0.23304  0.78799  1.0000
  H   H3479     1.0  0.66331  0.04990  0.95937  1.0000
  C   C4336     1.0  0.70845  0.14023  0.93129  1.0000
  S   S586      1.0  0.51943  0.27196  0.95902  1.0000
  H   H3480     1.0  0.68275  0.48439  0.97501  1.0000
  C   C4337     1.0  0.52113  0.11985  0.81234  1.0000
  C   C4338     1.0  0.75694  0.32991  0.81821  1.0000
  C   C4339     1.0  0.94948  0.43367  0.92064  1.0000
  C   C4340     1.0  0.83295  0.42042  0.85074  1.0000
  H   H3481     1.0  0.55777  0.07129  0.96953  1.0000
  H   H3482     1.0  0.58882  0.25479  0.81547  1.0000
  H   H3483     1.0  0.76970  0.26386  0.97123  1.0000
  C   C4341     1.0  0.70862  0.13743  0.91522  1.0000
  C   C4342     1.0  0.66076  0.33011  0.95419  1.0000
  H   H3484     1.0  0.82152  0.42068  0.79622  1.0000
  H   H3485     1.0  0.66531  0.33692  0.90457  1.0000
  C   C4343     1.0  0.61924  0.35612  0.96258  1.0000
  C   C4344     1.0  0.89316  0.46587  0.95655  1.0000
  H   H3486     1.0  0.69990  0.19599  0.90843  1.0000
  C   C4345     1.0  0.66603  0.31826  0.92887  1.0000
  C   C4346     1.0  0.66702  0.16201  0.85929  1.0000
  H   H3487     1.0  0.65301  0.04595  0.93556  1.0000
  H   H3488     1.0  0.77348  0.25122  0.93079  1.0000
  H   H3489     1.0  0.77062  0.23451  0.81878  1.0000
  H   H3490     1.0  0.86145  0.35067  0.82529  1.0000
  C   C4347     1.0  0.60594  0.25844  0.79009  1.0000
  S   S587      1.0  0.50793  0.14792  0.95385  1.0000
  H   H3491     1.0  0.62122  0.01269  0.97224  1.0000
  S   S588      1.0  0.64647  0.27514  0.98060  1.0000
  Fe  Fe290     1.0  0.62512  0.29604  0.97060  1.0000
  H   H3492     1.0  0.85874  0.39467  0.96128  1.0000
  C   C4348     1.0  0.58525  0.06558  0.96815  1.0000
  C   C4349     1.0  0.70652  0.21825  0.88959  1.0000
  C   C4350     1.0  0.73294  0.24857  0.95479  1.0000
  C   C4351     1.0  0.70932  0.28360  0.94992  1.0000
  C   C4352     1.0  0.54854  0.18199  0.78830  1.0000
  C   C4353     1.0  0.49232  0.29824  0.94960  1.0000
  C   C4354     1.0  0.88179  0.46920  0.79395  1.0000
  H   H3493     1.0  0.84804  0.41721  0.97876  1.0000
  C   C4355     1.0  0.53967  0.98998  0.79291  1.0000
  C   C4356     1.0  0.89075  0.41859  0.96705  1.0000
  C   C4357     1.0  0.73710  0.23180  0.96524  1.0000
  C   C4358     1.0  0.87309  0.42270  0.97462  1.0000
  H   H3494     1.0  0.50067  0.22614  0.87491  1.0000
  C   C4359     1.0  0.60131  0.38544  0.97610  1.0000
  C   C4360     1.0  0.88351  0.48259  0.95808  1.0000
  H   H3495     1.0  0.82500  0.48026  0.92836  1.0000
  C   C4361     1.0  0.83286  0.42351  0.79814  1.0000
  C   C4362     1.0  0.97594  0.37340  0.85031  1.0000
  C   C4363     1.0  0.59847  0.05830  0.97743  1.0000
  C   C4364     1.0  0.51600  0.04313  0.79141  1.0000
  C   C4365     1.0  0.86050  0.35980  0.97929  1.0000
  H   H3496     1.0  0.80631  0.48230  0.84460  1.0000
  H   H3497     1.0  0.70554  0.18993  0.79260  1.0000
  C   C4366     1.0  0.70573  0.05606  0.97821  1.0000
  C   C4367     1.0  0.63874  0.48509  0.97282  1.0000
  H   H3498     1.0  0.74323  0.40941  0.97457  1.0000
  H   H3499     1.0  0.67556  0.42082  0.97479  1.0000
  P   P146      1.0  0.61926  0.23663  0.79351  1.0000
  H   H3500     1.0  0.78308  0.34084  0.97013  1.0000
  C   C4368     1.0  0.86159  0.41414  0.97255  1.0000
  C   C4369     1.0  0.50476  0.02950  0.82671  1.0000
  H   H3501     1.0  0.75730  0.20930  0.97153  1.0000
  C   C4370     1.0  0.64877  0.03277  0.97957  1.0000
  C   C4371     1.0  0.85263  0.28837  0.97487  1.0000
  H   H3502     1.0  0.67317  0.30611  0.79697  1.0000
  H   H3503     1.0  0.49596  0.27638  0.81215  1.0000
  H   H3504     1.0  0.50098  0.13689  0.91752  1.0000
  C   C4372     1.0  0.89834  0.36754  0.78944  1.0000
  C   C4373     1.0  0.79671  0.30273  0.97819  1.0000
  H   H3505     1.0  0.73576  0.36808  0.98217  1.0000
  C   C4374     1.0  0.49392  0.23361  0.86462  1.0000
  C   C4375     1.0  0.98332  0.33909  0.84607  1.0000
  H   H3506     1.0  0.55119  0.04234  0.78933  1.0000
  H   H3507     1.0  0.61123  0.21308  0.97840  1.0000
  H   H3508     1.0  0.57148  0.27251  0.97928  1.0000
  H   H3509     1.0  0.69958  0.28852  0.97583  1.0000
  H   H3510     1.0  0.71550  0.03450  0.96559  1.0000
  C   C4376     1.0  0.56847  0.12594  0.97846  1.0000
  H   H3511     1.0  0.57935  0.04629  0.79034  1.0000
  H   H3512     1.0  0.59434  0.39678  0.98135  1.0000
  H   H3513     1.0  0.53955  0.17924  0.98147  1.0000
  C   C4377     1.0  0.89846  0.34978  0.79428  1.0000
  H   H3514     1.0  0.70423  0.48256  0.82824  1.0000
  H   H3515     1.0  0.64717  0.23846  0.97758  1.0000
  C   C4378     1.0  0.70450  0.04134  0.97368  1.0000
  H   H3516     1.0  0.59825  0.18678  0.97693  1.0000
  C   C4379     1.0  0.68988  0.35422  0.98044  1.0000
  C   C4380     1.0  0.52610  0.20615  0.97846  1.0000
  H   H3517     1.0  0.68831  0.02399  0.97609  1.0000
  C   C4381     1.0  0.75595  0.46170  0.98132  1.0000
  S   S589      1.0  0.70873  0.39904  0.98328  1.0000
  C   C4382     1.0  0.68472  0.24711  0.98300  1.0000
  C   C4383     1.0  0.63653  0.02265  0.98306  1.0000
  C   C4384     1.0  0.83698  0.30082  0.97728  1.0000
  C   C4385     1.0  0.98274  0.41249  0.81928  1.0000
  C   C4386     1.0  0.77992  0.30720  0.97516  1.0000
  H   H3518     1.0  0.79904  0.48566  0.95124  1.0000
  C   C4387     1.0  0.64572  0.22517  0.98258  1.0000
  H   H3519     1.0  0.50478  0.15092  0.78844  1.0000
  C   C4388     1.0  0.98057  0.42496  0.80394  1.0000
  C   C4389     1.0  0.54069  0.22553  0.98347  1.0000
  C   C4390     1.0  0.57573  0.00209  0.78501  1.0000
  H   H3520     1.0  0.57984  0.30653  0.78424  1.0000
  C   C4391     1.0  0.87453  0.48575  0.97437  1.0000
  H   H3521     1.0  0.98968  0.35024  0.81862  1.0000
  P   P147      1.0  0.49270  0.30973  0.78618  1.0000
  C   C4392     1.0  0.49186  0.33791  0.96293  1.0000
  Fe  Fe291     1.0  0.49147  0.29120  0.86636  1.0000
  H   H3522     1.0  0.99084  0.42471  0.79239  1.0000
  C   C4393     1.0  0.99016  0.39742  0.86033  1.0000
  C   C4394     1.0  0.49115  0.25141  0.78986  1.0000
  H   H3523     1.0  0.93038  0.47777  0.98332  1.0000
  H   H3524     1.0  0.57891  0.37430  0.98264  1.0000
  H   H3525     1.0  0.54084  0.23859  0.98375  1.0000
  C   C4395     1.0  0.84248  0.36559  0.98342  1.0000
  C   C4396     1.0  0.51656  0.32881  0.98343  1.0000
  C   C4397     1.0  0.77514  0.47861  0.98296  1.0000
  H   H3526     1.0  0.60304  0.99384  0.78497  1.0000
  Fe  Fe292     1.0  0.57920  0.78786  0.00153  1.0000
  S   S590      1.0  0.58727  0.78328  0.02664  1.0000
  H   H3527     1.0  0.55338  0.90956  0.99784  1.0000
  H   H3528     1.0  0.71363  0.97510  0.10409  1.0000
  S   S591      1.0  0.62524  0.79047  0.00275  1.0000
  Fe  Fe293     1.0  0.61219  0.76788  0.01396  1.0000
  S   S592      1.0  0.62412  0.74051  0.02657  1.0000
  Fe  Fe294     1.0  0.59942  0.80632  0.01375  1.0000
  S   S593      1.0  0.59369  0.82757  0.02855  1.0000
  H   H3529     1.0  0.56455  0.54265  0.04931  1.0000
  H   H3530     1.0  0.55630  0.61880  0.00419  1.0000
  Fe  Fe295     1.0  0.59313  0.64016  0.03305  1.0000
  S   S594      1.0  0.57285  0.63422  0.02355  1.0000
  S   S595      1.0  0.62078  0.62522  0.02893  1.0000
  Fe  Fe296     1.0  0.57033  0.67324  0.04266  1.0000
  S   S596      1.0  0.54779  0.67081  0.03382  1.0000
  S   S597      1.0  0.56756  0.69515  0.05539  1.0000
  Fe  Fe297     1.0  0.55446  0.64271  0.04681  1.0000
  S   S598      1.0  0.53206  0.63018  0.06098  1.0000
  Fe  Fe298     1.0  0.56742  0.66258  0.01113  1.0000
  S   S599      1.0  0.57534  0.64559  0.05796  1.0000
  S   S600      1.0  0.58939  0.66804  0.01834  1.0000
  Fe  Fe299     1.0  0.66337  0.53368  0.05821  1.0000
  S   S601      1.0  0.68701  0.54333  0.04224  1.0000
  S   S602      1.0  0.64235  0.54986  0.07493  1.0000
  H   H3531     1.0  0.53687  0.75299  0.05764  1.0000
  H   H3532     1.0  0.54840  0.71393  0.08556  1.0000
  Fe  Fe300     1.0  0.70103  0.51540  0.04786  1.0000
  C   C4398     1.0  0.50779  0.78830  0.07200  1.0000
  Fe  Fe301     1.0  0.68068  0.53669  0.02039  1.0000
  H   H3533     1.0  0.61029  0.95668  0.04728  1.0000
  S   S603      1.0  0.65602  0.52922  0.03582  1.0000
  Fe  Fe302     1.0  0.80219  0.54740  0.04158  1.0000
  S   S604      1.0  0.81996  0.52615  0.02900  1.0000
  S   S605      1.0  0.77629  0.55999  0.03419  1.0000
  Fe  Fe303     1.0  0.82706  0.54554  0.06407  1.0000
  S   S606      1.0  0.84660  0.52392  0.05352  1.0000
  S   S607      1.0  0.82943  0.55598  0.08592  1.0000
  Fe  Fe304     1.0  0.84094  0.53921  0.02752  1.0000
  C   C4399     1.0  0.52581  0.60149  0.00776  1.0000
  Fe  Fe305     1.0  0.82406  0.51265  0.05593  1.0000
  S   S608      1.0  0.82287  0.56191  0.03778  1.0000
  S   S609      1.0  0.80470  0.53300  0.06871  1.0000
  Fe  Fe306     1.0  0.63533  0.85209  0.09098  1.0000
  S   S610      1.0  0.61091  0.87275  0.09423  1.0000
  S   S611      1.0  0.64321  0.83317  0.07322  1.0000
  Fe  Fe307     1.0  0.64802  0.85969  0.11943  1.0000
  S   S612      1.0  0.62459  0.88082  0.12497  1.0000
  S   S613      1.0  0.67084  0.85011  0.13254  1.0000
  Fe  Fe308     1.0  0.60992  0.86253  0.12274  1.0000
  S   S614      1.0  0.58600  0.85652  0.14200  1.0000
  Fe  Fe309     1.0  0.62785  0.88917  0.09594  1.0000
  S   S615      1.0  0.62291  0.91762  0.08239  1.0000
  S   S616      1.0  0.63303  0.84074  0.11955  1.0000
  S   S617      1.0  0.65253  0.86935  0.09036  1.0000
  H   H3534     1.0  0.88653  0.49362  0.11754  1.0000
  C   C4400     1.0  0.51165  0.60695  0.10289  1.0000
  S   S618      1.0  0.67269  0.96106  0.08872  1.0000
  H   H3535     1.0  0.55550  0.59847  0.03824  1.0000
  P   P148      1.0  0.50670  0.57346  0.07662  1.0000
  H   H3536     1.0  0.87959  0.50653  0.00218  1.0000
  H   H3537     1.0  0.86394  0.50516  0.09259  1.0000
  S   S619      1.0  0.53411  0.84560  0.10426  1.0000
  Fe  Fe310     1.0  0.91381  0.56157  0.11188  1.0000
  S   S620      1.0  0.93558  0.53890  0.10656  1.0000
  S   S621      1.0  0.89796  0.57328  0.09090  1.0000
  Fe  Fe311     1.0  0.92419  0.56108  0.14555  1.0000
  S   S622      1.0  0.94624  0.53820  0.14248  1.0000
  H   H3538     1.0  0.52163  0.80754  0.99227  1.0000
  Fe  Fe312     1.0  0.95176  0.55190  0.11447  1.0000
  C   C4401     1.0  0.88760  0.57543  0.99504  1.0000
  Fe  Fe313     1.0  0.92778  0.52774  0.13497  1.0000
  H   H3539     1.0  0.66827  0.97321  0.02216  1.0000
  S   S623      1.0  0.93069  0.57573  0.11771  1.0000
  S   S624      1.0  0.90495  0.54949  0.14007  1.0000
  S   S625      1.0  0.69667  0.50948  0.02452  1.0000
  C   C4402     1.0  0.59065  0.97832  0.10564  1.0000
  H   H3540     1.0  0.60939  0.58970  0.01829  1.0000
  H   H3541     1.0  0.53513  0.54389  0.06743  1.0000
  C   C4403     1.0  0.57478  0.91581  0.13817  1.0000
  H   H3542     1.0  0.91037  0.57246  0.05368  1.0000
  H   H3543     1.0  0.78870  0.54591  0.00221  1.0000
  H   H3544     1.0  0.91930  0.51109  0.11229  1.0000
  C   C4404     1.0  0.60119  0.80936  0.12674  1.0000
  S   S626      1.0  0.60318  0.77071  0.98984  1.0000
  C   C4405     1.0  0.52351  0.66061  0.08529  1.0000
  H   H3545     1.0  0.50605  0.96787  0.14753  1.0000
  H   H3546     1.0  0.64316  0.57629  0.00130  1.0000
  C   C4406     1.0  0.96653  0.58830  0.12941  1.0000
  C   C4407     1.0  0.89133  0.52793  0.03660  1.0000
  S   S627      1.0  0.55446  0.78483  0.99740  1.0000
  C   C4408     1.0  0.49588  0.96071  0.15282  1.0000
  H   H3547     1.0  0.54916  0.71485  0.02325  1.0000
  H   H3548     1.0  0.73327  0.59227  0.00452  1.0000
  H   H3549     1.0  0.64434  0.86647  0.15890  1.0000
  H   H3550     1.0  0.97810  0.54617  0.13479  1.0000
  H   H3551     1.0  0.61152  0.53995  0.05371  1.0000
  C   C4409     1.0  0.56807  0.95688  0.06646  1.0000
  C   C4410     1.0  0.54218  0.79632  0.13452  1.0000
  H   H3552     1.0  0.63503  0.76759  0.03461  1.0000
  H   H3553     1.0  0.71501  0.49171  0.12173  1.0000
  C   C4411     1.0  0.57193  0.85200  0.13206  1.0000
  C   C4412     1.0  0.55462  0.85259  0.14051  1.0000
  C   C4413     1.0  0.54312  0.84968  0.13236  1.0000
  C   C4414     1.0  0.54891  0.84618  0.11576  1.0000
  C   C4415     1.0  0.56643  0.84458  0.10773  1.0000
  C   C4416     1.0  0.57783  0.84787  0.11574  1.0000
  C   C4417     1.0  0.57192  0.77870  0.07327  1.0000
  H   H3554     1.0  0.66756  0.52411  0.00140  1.0000
  H   H3555     1.0  0.57098  0.84186  0.09488  1.0000
  H   H3556     1.0  0.59117  0.84729  0.10920  1.0000
  C   C4418     1.0  0.67131  0.85444  0.15226  1.0000
  H   H3557     1.0  0.88203  0.52003  0.03918  1.0000
  C   C4419     1.0  0.58243  0.73172  0.99555  1.0000
  H   H3558     1.0  0.60168  0.96574  0.14275  1.0000
  C   C4420     1.0  0.55039  0.73652  0.09276  1.0000
  C   C4421     1.0  0.68715  0.84915  0.15751  1.0000
  S   S628      1.0  0.67787  0.50593  0.06608  1.0000
  H   H3559     1.0  0.52973  0.85034  0.13887  1.0000
  H   H3560     1.0  0.63226  0.96075  0.14410  1.0000
  H   H3561     1.0  0.69853  0.84273  0.14948  1.0000
  C   C4422     1.0  0.63681  0.92954  0.08419  1.0000
  C   C4423     1.0  0.65338  0.92128  0.08732  1.0000
  C   C4424     1.0  0.66430  0.93109  0.08860  1.0000
  C   C4425     1.0  0.65861  0.94913  0.08711  1.0000
  C   C4426     1.0  0.64204  0.95736  0.08393  1.0000
  C   C4427     1.0  0.63122  0.94762  0.08235  1.0000
  H   H3562     1.0  0.65781  0.90734  0.08867  1.0000
  H   H3563     1.0  0.67714  0.92463  0.09093  1.0000
  H   H3564     1.0  0.63761  0.97123  0.08241  1.0000
  H   H3565     1.0  0.61840  0.95406  0.07997  1.0000
  C   C4428     1.0  0.84920  0.55839  0.08854  1.0000
  C   C4429     1.0  0.86522  0.55184  0.07855  1.0000
  C   C4430     1.0  0.88047  0.55543  0.08006  1.0000
  C   C4431     1.0  0.87976  0.56544  0.09171  1.0000
  C   C4432     1.0  0.86378  0.57152  0.10201  1.0000
  C   C4433     1.0  0.84864  0.56781  0.10059  1.0000
  H   H3566     1.0  0.86576  0.54437  0.06943  1.0000
  H   H3567     1.0  0.89270  0.55088  0.07186  1.0000
  H   H3568     1.0  0.86301  0.57958  0.11070  1.0000
  H   H3569     1.0  0.83632  0.57290  0.10836  1.0000
  C   C4434     1.0  0.74121  0.52147  0.04787  1.0000
  C   C4435     1.0  0.75844  0.51553  0.04984  1.0000
  C   C4436     1.0  0.76921  0.52730  0.04583  1.0000
  C   C4437     1.0  0.76285  0.54509  0.03969  1.0000
  C   C4438     1.0  0.74566  0.55103  0.03759  1.0000
  C   C4439     1.0  0.73486  0.53926  0.04175  1.0000
  C   C4440     1.0  0.57510  0.94418  0.16598  1.0000
  H   H3570     1.0  0.78245  0.52258  0.04749  1.0000
  H   H3571     1.0  0.74066  0.56477  0.03291  1.0000
  H   H3572     1.0  0.72160  0.54399  0.04031  1.0000
  C   C4441     1.0  0.62560  0.60422  0.04193  1.0000
  C   C4442     1.0  0.61660  0.59969  0.05909  1.0000
  C   C4443     1.0  0.62186  0.58303  0.06940  1.0000
  C   C4444     1.0  0.63573  0.57078  0.06234  1.0000
  C   C4445     1.0  0.64415  0.57522  0.04500  1.0000
  C   C4446     1.0  0.63931  0.59195  0.03498  1.0000
  H   H3573     1.0  0.60586  0.60908  0.06450  1.0000
  H   H3574     1.0  0.61516  0.57959  0.08276  1.0000
  H   H3575     1.0  0.65442  0.56579  0.03922  1.0000
  H   H3576     1.0  0.64611  0.59536  0.02170  1.0000
  C   C4447     1.0  0.51697  0.63486  0.04772  1.0000
  C   C4448     1.0  0.61782  0.87534  0.02986  1.0000
  H   H3577     1.0  0.61689  0.54355  0.99940  1.0000
  C   C4449     1.0  0.52150  0.64129  0.02977  1.0000
  C   C4450     1.0  0.85621  0.60134  0.06560  1.0000
  H   H3578     1.0  0.53411  0.64420  0.02396  1.0000
  C   C4451     1.0  0.60720  0.82809  0.04177  1.0000
  C   C4452     1.0  0.62391  0.81759  0.04102  1.0000
  C   C4453     1.0  0.63474  0.81922  0.05083  1.0000
  C   C4454     1.0  0.62892  0.83122  0.06158  1.0000
  C   C4455     1.0  0.61198  0.84126  0.06283  1.0000
  C   C4456     1.0  0.60122  0.83979  0.05285  1.0000
  H   H3579     1.0  0.62862  0.80854  0.03254  1.0000
  H   H3580     1.0  0.64777  0.81128  0.04991  1.0000
  H   H3581     1.0  0.60728  0.85045  0.07116  1.0000
  H   H3582     1.0  0.58828  0.84791  0.05357  1.0000
  C   C4457     1.0  0.60827  0.72804  0.03401  1.0000
  C   C4458     1.0  0.61177  0.71159  0.03028  1.0000
  C   C4459     1.0  0.59922  0.70152  0.03649  1.0000
  C   C4460     1.0  0.58324  0.70775  0.04668  1.0000
  C   C4461     1.0  0.57976  0.72417  0.05040  1.0000
  C   C4462     1.0  0.59218  0.73436  0.04395  1.0000
  H   H3583     1.0  0.62407  0.70668  0.02243  1.0000
  H   H3584     1.0  0.60206  0.68880  0.03371  1.0000
  H   H3585     1.0  0.56728  0.72921  0.05792  1.0000
  H   H3586     1.0  0.58935  0.74702  0.04687  1.0000
  C   C4463     1.0  0.52096  0.75246  0.04091  1.0000
  C   C4464     1.0  0.51855  0.75700  0.02389  1.0000
  C   C4465     1.0  0.52888  0.76696  0.01077  1.0000
  C   C4466     1.0  0.54245  0.77158  0.01428  1.0000
  C   C4467     1.0  0.54577  0.76596  0.03109  1.0000
  C   C4468     1.0  0.53491  0.75648  0.04449  1.0000
  C   C4469     1.0  0.53247  0.67398  0.07822  1.0000
  H   H3587     1.0  0.96489  0.58086  0.12119  1.0000
  H   H3588     1.0  0.55635  0.76930  0.03383  1.0000
  H   H3589     1.0  0.61404  0.92011  0.12169  1.0000
  C   C4470     1.0  0.54072  0.96237  0.16708  1.0000
  C   C4471     1.0  0.50172  0.92449  0.10610  1.0000
  C   C4472     1.0  0.50541  0.81123  0.08629  1.0000
  H   H3590     1.0  0.51504  0.62541  0.99161  1.0000
  H   H3591     1.0  0.57481  0.56982  0.03452  1.0000
  H   H3592     1.0  0.52215  0.88134  0.15701  1.0000
  C   C4473     1.0  0.92814  0.60796  0.01608  1.0000
  H   H3593     1.0  0.51333  0.64880  0.00535  1.0000
  H   H3594     1.0  0.97807  0.55242  0.18005  1.0000
  C   C4474     1.0  0.86471  0.52633  0.14737  1.0000
  S   S629      1.0  0.52168  0.96647  0.09873  1.0000
  C   C4475     1.0  0.85531  0.58577  0.03976  1.0000
  C   C4476     1.0  0.55097  0.58654  0.04436  1.0000
  C   C4477     1.0  0.99075  0.54786  0.12752  1.0000
  H   H3595     1.0  0.88114  0.49047  0.03201  1.0000
  C   C4478     1.0  0.50136  0.52317  0.09699  1.0000
  Fe  Fe314     1.0  0.67246  0.50236  0.04204  1.0000
  H   H3596     1.0  0.50647  0.91062  0.10765  1.0000
  H   H3597     1.0  0.63971  0.90218  0.17365  1.0000
  C   C4479     1.0  0.61216  0.56813  0.00667  1.0000
  C   C4480     1.0  0.98534  0.60010  0.13907  1.0000
  H   H3598     1.0  0.63300  0.77294  0.09383  1.0000
  H   H3599     1.0  0.54843  0.76053  0.09945  1.0000
  C   C4481     1.0  0.54133  0.75201  0.09801  1.0000
  H   H3600     1.0  0.51645  0.72242  0.08990  1.0000
  C   C4482     1.0  0.60927  0.56578  0.03748  1.0000
  C   C4483     1.0  0.50061  0.63109  0.05500  1.0000
  H   H3601     1.0  0.55389  0.93926  0.06532  1.0000
  H   H3602     1.0  0.70820  0.49406  0.09337  1.0000
  H   H3603     1.0  0.52600  0.59981  0.05598  1.0000
  C   C4484     1.0  0.67068  0.52887  0.98751  1.0000
  H   H3604     1.0  0.82773  0.59028  0.04988  1.0000
  C   C4485     1.0  0.52824  0.57208  0.06301  1.0000
  C   C4486     1.0  0.51431  0.74596  0.09777  1.0000
  H   H3605     1.0  0.82862  0.60363  0.07295  1.0000
  H   H3606     1.0  0.85665  0.60688  0.07594  1.0000
  H   H3607     1.0  0.94507  0.60705  0.03247  1.0000
  H   H3608     1.0  0.68661  0.91902  0.16530  1.0000
  H   H3609     1.0  0.56614  0.73648  0.01988  1.0000
  P   P149      1.0  0.67406  0.95392  0.17203  1.0000
  H   H3610     1.0  0.60206  0.81736  0.13483  1.0000
  C   C4487     1.0  0.54139  0.72567  0.09017  1.0000
  H   H3611     1.0  0.59305  0.88799  0.02376  1.0000
  H   H3612     1.0  0.90260  0.54246  0.17920  1.0000
  H   H3613     1.0  0.61987  0.71538  0.99237  1.0000
  C   C4488     1.0  0.89121  0.49689  0.00466  1.0000
  C   C4489     1.0  0.87062  0.49714  0.14262  1.0000
  H   H3614     1.0  0.53595  0.57570  0.02161  1.0000
  H   H3615     1.0  0.54858  0.80170  0.14102  1.0000
  C   C4490     1.0  0.59201  0.79617  0.13375  1.0000
  H   H3616     1.0  0.60735  0.90582  0.06153  1.0000
  P   P150      1.0  0.51171  0.77729  0.10657  1.0000
  C   C4491     1.0  0.90817  0.58860  0.02809  1.0000
  C   C4492     1.0  0.54692  0.95565  0.18243  1.0000
  H   H3617     1.0  0.50604  0.69295  0.02233  1.0000
  C   C4493     1.0  0.50326  0.82358  0.07090  1.0000
  C   C4494     1.0  0.56916  0.95146  0.15038  1.0000
  C   C4495     1.0  0.61428  0.54999  0.00993  1.0000
  C   C4496     1.0  0.60740  0.88911  0.17205  1.0000
  C   C4497     1.0  0.56325  0.70734  0.99918  1.0000
  H   H3618     1.0  0.87205  0.55166  0.03656  1.0000
  C   C4498     1.0  0.70529  0.97886  0.13030  1.0000
  H   H3619     1.0  0.85463  0.57990  0.02977  1.0000
  H   H3620     1.0  0.50807  0.75360  0.02094  1.0000
  H   H3621     1.0  0.58336  0.59783  0.00897  1.0000
  H   H3622     1.0  0.61307  0.80587  0.08470  1.0000
  C   C4499     1.0  0.84044  0.59956  0.06389  1.0000
  C   C4500     1.0  0.55882  0.78750  0.06402  1.0000
  C   C4501     1.0  0.89217  0.48770  0.02164  1.0000
  H   H3623     1.0  0.58941  0.74149  0.99429  1.0000
  H   H3624     1.0  0.93349  0.58432  0.05645  1.0000
  C   C4502     1.0  0.52350  0.69104  0.07278  1.0000
  C   C4503     1.0  0.50774  0.72632  0.98653  1.0000
  C   C4504     1.0  0.88005  0.50269  0.12585  1.0000
  C   C4505     1.0  0.69543  0.97371  0.14688  1.0000
  H   H3625     1.0  0.54659  0.96577  0.13951  1.0000
  C   C4506     1.0  0.64531  0.98135  0.16814  1.0000
  H   H3626     1.0  0.55721  0.96347  0.07491  1.0000
  C   C4507     1.0  0.86309  0.50906  0.15341  1.0000
  H   H3627     1.0  0.53047  0.70137  0.06665  1.0000
  C   C4508     1.0  0.53556  0.89264  0.08602  1.0000
  S   S630      1.0  0.86339  0.54082  0.00453  1.0000
  H   H3628     1.0  0.61738  0.74038  0.09190  1.0000
  H   H3629     1.0  0.52660  0.60788  0.01732  1.0000
  C   C4509     1.0  0.53068  0.78569  0.14416  1.0000
  C   C4510     1.0  0.60492  0.74011  0.10066  1.0000
  C   C4511     1.0  0.72876  0.54797  0.99759  1.0000
  C   C4512     1.0  0.60099  0.72396  0.10942  1.0000
  H   H3630     1.0  0.89531  0.50433  0.08422  1.0000
  S   S631      1.0  0.50469  0.74457  0.05765  1.0000
  H   H3631     1.0  0.51263  0.77166  0.14343  1.0000
  C   C4513     1.0  0.93488  0.60186  0.03116  1.0000
  C   C4514     1.0  0.61129  0.54779  0.04065  1.0000
  H   H3632     1.0  0.53396  0.56122  0.99973  1.0000
  C   C4515     1.0  0.64620  0.91185  0.17378  1.0000
  C   C4516     1.0  0.61023  0.89774  0.05229  1.0000
  H   H3633     1.0  0.49889  0.65372  0.09198  1.0000
  H   H3634     1.0  0.55556  0.69814  0.00051  1.0000
  H   H3635     1.0  0.60760  0.57185  0.04812  1.0000
  C   C4517     1.0  0.78962  0.53371  0.99900  1.0000
  C   C4518     1.0  0.69725  0.58220  0.00988  1.0000
  C   C4519     1.0  0.68386  0.59029  0.02164  1.0000
  C   C4520     1.0  0.67747  0.60828  0.01760  1.0000
  C   C4521     1.0  0.68485  0.61830  0.00199  1.0000
  H   H3636     1.0  0.49882  0.51301  0.09263  1.0000
  C   C4522     1.0  0.80576  0.52391  0.99254  1.0000
  H   H3637     1.0  0.50937  0.77479  0.07200  1.0000
  C   C4523     1.0  0.60730  0.80286  0.09842  1.0000
  H   H3638     1.0  0.66871  0.69539  0.98472  1.0000
  H   H3639     1.0  0.73064  0.55346  0.00728  1.0000
  C   C4524     1.0  0.88575  0.54591  0.03516  1.0000
  H   H3640     1.0  0.58578  0.79389  0.14739  1.0000
  C   C4525     1.0  0.49341  0.63996  0.02649  1.0000
  H   H3641     1.0  0.67172  0.89688  0.16527  1.0000
  H   H3642     1.0  0.52699  0.92971  0.10189  1.0000
  C   C4526     1.0  0.58121  0.60250  0.99591  1.0000
  C   C4527     1.0  0.72819  0.52261  0.98846  1.0000
  H   H3643     1.0  0.50942  0.53052  0.13251  1.0000
  H   H3644     1.0  0.56775  0.89107  0.14458  1.0000
  H   H3645     1.0  0.70130  0.56821  0.01299  1.0000
  H   H3646     1.0  0.67811  0.58254  0.03375  1.0000
  H   H3647     1.0  0.66669  0.61438  0.02653  1.0000
  H   H3648     1.0  0.67981  0.63225  0.99887  1.0000
  H   H3649     1.0  0.96560  0.49524  0.12353  1.0000
  H   H3650     1.0  0.64264  0.97480  0.15979  1.0000
  H   H3651     1.0  0.92532  0.55592  0.02500  1.0000
  C   C4528     1.0  0.57666  0.70992  0.98463  1.0000
  H   H3652     1.0  0.71146  0.94867  0.17112  1.0000
  H   H3653     1.0  0.54642  0.67106  0.07646  1.0000
  C   C4529     1.0  0.58393  0.96186  0.06149  1.0000
  C   C4530     1.0  0.90502  0.49343  0.99087  1.0000
  C   C4531     1.0  0.68698  0.96005  0.15052  1.0000
  C   C4532     1.0  0.88561  0.58723  0.00533  1.0000
  H   H3654     1.0  0.64178  0.86446  0.03879  1.0000
  H   H3655     1.0  0.57186  0.88968  0.11401  1.0000
  C   C4533     1.0  0.57657  0.75462  0.11418  1.0000
  S   S632      1.0  0.97826  0.55385  0.09801  1.0000
  H   H3656     1.0  0.53250  0.93201  0.14740  1.0000
  C   C4534     1.0  0.91525  0.58235  0.04306  1.0000
  C   C4535     1.0  0.73038  0.53000  0.00088  1.0000
  C   C4536     1.0  0.52410  0.78423  0.11750  1.0000
  C   C4537     1.0  0.69790  0.95731  0.12048  1.0000
  C   C4538     1.0  0.68807  0.95208  0.13705  1.0000
  C   C4539     1.0  0.79214  0.50145  0.99203  1.0000
  C   C4540     1.0  0.65719  0.59560  0.98582  1.0000
  H   H3657     1.0  0.95626  0.56001  0.16192  1.0000
  C   C4541     1.0  0.50975  0.64382  0.01921  1.0000
  C   C4542     1.0  0.66422  0.90894  0.16895  1.0000
  C   C4543     1.0  0.90892  0.52014  0.03420  1.0000
  C   C4544     1.0  0.56394  0.97105  0.10626  1.0000
  C   C4545     1.0  0.53424  0.58731  0.05453  1.0000
  H   H3658     1.0  0.56442  0.73313  0.09021  1.0000
  H   H3659     1.0  0.54999  0.85570  0.15318  1.0000
  H   H3660     1.0  0.76438  0.50633  0.00174  1.0000
  C   C4546     1.0  0.66075  0.68707  0.99416  1.0000
  H   H3661     1.0  0.61949  0.78897  0.16138  1.0000
  H   H3662     1.0  0.62064  0.88913  0.16521  1.0000
  C   C4547     1.0  0.87158  0.59521  0.05452  1.0000
  C   C4548     1.0  0.52175  0.77955  0.13570  1.0000
  H   H3663     1.0  0.50029  0.54161  0.07262  1.0000
  C   C4549     1.0  0.55600  0.55514  0.05068  1.0000
  C   C4550     1.0  0.56000  0.98628  0.09372  1.0000
  H   H3664     1.0  0.69839  0.95134  0.11009  1.0000
  H   H3665     1.0  0.68095  0.94229  0.13890  1.0000
  H   H3666     1.0  0.63327  0.49919  0.01571  1.0000
  H   H3667     1.0  0.57353  0.91588  0.15161  1.0000
  H   H3668     1.0  0.61609  0.52585  0.02929  1.0000
  C   C4551     1.0  0.50872  0.69963  0.00877  1.0000
  C   C4552     1.0  0.91560  0.54829  0.02866  1.0000
  H   H3669     1.0  0.57563  0.76464  0.07563  1.0000
  C   C4553     1.0  0.53914  0.91398  0.17060  1.0000
  C   C4554     1.0  0.61384  0.53989  0.02687  1.0000
  C   C4555     1.0  0.60215  0.88773  0.03119  1.0000
  C   C4556     1.0  0.55440  0.80569  0.05999  1.0000
  C   C4557     1.0  0.54503  0.80051  0.11642  1.0000
  H   H3670     1.0  0.52735  0.96932  0.16754  1.0000
  S   S633      1.0  0.91855  0.57139  0.16997  1.0000
  H   H3671     1.0  0.64350  0.72433  0.99838  1.0000
  C   C4558     1.0  0.87411  0.53173  0.13067  1.0000
  H   H3672     1.0  0.83441  0.49513  0.15108  1.0000
  H   H3673     1.0  0.52569  0.88698  0.09591  1.0000
  H   H3674     1.0  0.52216  0.61050  0.10568  1.0000
  H   H3675     1.0  0.85889  0.53554  0.15565  1.0000
  Fe  Fe315     1.0  0.50703  0.85713  0.11687  1.0000
  C   C4559     1.0  0.55949  0.71686  0.01192  1.0000
  C   C4560     1.0  0.64902  0.68124  0.98892  1.0000
  C   C4561     1.0  0.50392  0.51999  0.11386  1.0000
  H   H3676     1.0  0.62958  0.66592  0.99716  1.0000
  C   C4562     1.0  0.87248  0.49664  0.08430  1.0000
  H   H3677     1.0  0.58554  0.97224  0.06620  1.0000
  H   H3678     1.0  0.87583  0.54495  0.12624  1.0000
  H   H3679     1.0  0.88903  0.52426  0.10696  1.0000
  H   H3680     1.0  0.52598  0.77146  0.99798  1.0000
  H   H3681     1.0  0.95945  0.52247  0.17349  1.0000
  H   H3682     1.0  0.72896  0.50875  0.99124  1.0000
  C   C4563     1.0  0.52690  0.89046  0.16081  1.0000
  C   C4564     1.0  0.63603  0.80271  0.16620  1.0000
  H   H3683     1.0  0.87565  0.61399  0.00772  1.0000
  H   H3684     1.0  0.65372  0.93523  0.13479  1.0000
  C   C4565     1.0  0.50803  0.54930  0.10825  1.0000
  C   C4566     1.0  0.50554  0.69482  0.07487  1.0000
  C   C4567     1.0  0.57172  0.90162  0.13423  1.0000
  H   H3685     1.0  0.50514  0.81567  0.09763  1.0000
  S   S634      1.0  0.68186  0.55433  0.99395  1.0000
  C   C4568     1.0  0.70476  0.59212  0.99416  1.0000
  H   H3686     1.0  0.52189  0.67610  0.99991  1.0000
  H   H3687     1.0  0.53808  0.79833  0.09400  1.0000
  C   C4569     1.0  0.51329  0.93534  0.10282  1.0000
  C   C4570     1.0  0.49455  0.61563  0.10809  1.0000
  C   C4571     1.0  0.49118  0.77565  0.12140  1.0000
  H   H3688     1.0  0.54417  0.92311  0.17402  1.0000
  H   H3689     1.0  0.58221  0.81393  0.07886  1.0000
  C   C4572     1.0  0.57274  0.73847  0.12306  1.0000
  H   H3690     1.0  0.66196  0.76650  0.04316  1.0000
  H   H3691     1.0  0.70089  0.84821  0.17671  1.0000
  C   C4573     1.0  0.68848  0.85226  0.17295  1.0000
  H   H3692     1.0  0.50043  0.74988  0.09866  1.0000
  C   C4574     1.0  0.74440  0.58892  0.99446  1.0000
  C   C4575     1.0  0.51534  0.59399  0.09360  1.0000
  C   C4576     1.0  0.95229  0.59535  0.14109  1.0000
  H   H3693     1.0  0.66937  0.97656  0.05094  1.0000
  C   C4577     1.0  0.62602  0.88557  0.05066  1.0000
  H   H3694     1.0  0.55233  0.78029  0.05961  1.0000
  H   H3695     1.0  0.54454  0.81253  0.05247  1.0000
  C   C4578     1.0  0.53926  0.55592  0.06098  1.0000
  C   C4579     1.0  0.63927  0.73025  0.98623  1.0000
  C   C4580     1.0  0.52322  0.75676  0.10077  1.0000
  C   C4581     1.0  0.57389  0.90091  0.11695  1.0000
  H   H3696     1.0  0.58187  0.71061  0.12735  1.0000
  C   C4582     1.0  0.61775  0.77332  0.07588  1.0000
  C   C4583     1.0  0.59273  0.75560  0.10301  1.0000
  H   H3697     1.0  0.56683  0.76639  0.11583  1.0000
  H   H3698     1.0  0.56019  0.73787  0.13160  1.0000
  C   C4584     1.0  0.65663  0.86270  0.16278  1.0000
  S   S635      1.0  0.56030  0.66995  0.98521  1.0000
  C   C4585     1.0  0.53610  0.79445  0.10795  1.0000
  H   H3699     1.0  0.61596  0.82289  0.10353  1.0000
  H   H3700     1.0  0.76235  0.53483  0.00757  1.0000
  C   C4586     1.0  0.57575  0.80630  0.07499  1.0000
  C   C4587     1.0  0.50709  0.95337  0.10128  1.0000
  C   C4588     1.0  0.53108  0.58340  0.01016  1.0000
  C   C4589     1.0  0.69857  0.61030  0.99041  1.0000
  P   P151      1.0  0.89096  0.57978  0.02657  1.0000
  P   P152      1.0  0.59720  0.77658  0.09110  1.0000
  C   C4590     1.0  0.50731  0.53303  0.11946  1.0000
  C   C4591     1.0  0.88163  0.51999  0.11986  1.0000
  H   H3701     1.0  0.62270  0.92918  0.18355  1.0000
  H   H3702     1.0  0.60490  0.87000  0.16004  1.0000
  H   H3703     1.0  0.64423  0.91456  0.12443  1.0000
  C   C4592     1.0  0.49606  0.94704  0.14581  1.0000
  C   C4593     1.0  0.51756  0.69009  0.99612  1.0000
  C   C4594     1.0  0.85804  0.54228  0.98475  1.0000
  C   C4595     1.0  0.63086  0.79443  0.15624  1.0000
  C   C4596     1.0  0.64042  0.79307  0.13954  1.0000
  C   C4597     1.0  0.65523  0.79987  0.13269  1.0000
  C   C4598     1.0  0.66043  0.80814  0.14248  1.0000
  C   C4599     1.0  0.65083  0.80971  0.15910  1.0000
  C   C4600     1.0  0.87215  0.61050  0.98399  1.0000
  P   P153      1.0  0.61369  0.58121  0.98472  1.0000
  C   C4601     1.0  0.67261  0.92154  0.16894  1.0000
  H   H3704     1.0  0.83132  0.55474  0.99257  1.0000
  C   C4602     1.0  0.66297  0.93741  0.17317  1.0000
  H   H3705     1.0  0.89306  0.56169  0.99918  1.0000
  C   C4603     1.0  0.52636  0.90731  0.15061  1.0000
  H   H3706     1.0  0.51082  0.55917  0.11280  1.0000
  H   H3707     1.0  0.63625  0.78695  0.13178  1.0000
  H   H3708     1.0  0.66243  0.79922  0.11959  1.0000
  H   H3709     1.0  0.67169  0.81381  0.13697  1.0000
  C   C4604     1.0  0.50192  0.58982  0.08915  1.0000
  C   C4605     1.0  0.60895  0.81258  0.10910  1.0000
  H   H3710     1.0  0.53060  0.64727  0.08866  1.0000
  H   H3711     1.0  0.60123  0.82468  0.16488  1.0000
  H   H3712     1.0  0.55580  0.87869  0.09977  1.0000
  C   C4606     1.0  0.55946  0.91760  0.00167  1.0000
  C   C4607     1.0  0.56398  0.91236  0.01790  1.0000
  C   C4608     1.0  0.57187  0.92266  0.02303  1.0000
  C   C4609     1.0  0.57542  0.93813  0.01154  1.0000
  P   P154      1.0  0.57815  0.91552  0.04382  1.0000
  C   C4610     1.0  0.59830  0.89924  0.04226  1.0000
  C   C4611     1.0  0.58027  0.93400  0.05033  1.0000
  H   H3713     1.0  0.63519  0.88459  0.05838  1.0000
  C   C4612     1.0  0.59786  0.95316  0.05073  1.0000
  C   C4613     1.0  0.59599  0.93947  0.04493  1.0000
  C   C4614     1.0  0.56148  0.90631  0.06010  1.0000
  C   C4615     1.0  0.56566  0.89414  0.07504  1.0000
  H   H3714     1.0  0.76346  0.50181  0.05460  1.0000
  C   C4616     1.0  0.63451  0.76889  0.04751  1.0000
  H   H3715     1.0  0.93320  0.61786  0.00563  1.0000
  C   C4617     1.0  0.54405  0.91203  0.05853  1.0000
  C   C4618     1.0  0.50547  0.80072  0.05669  1.0000
  H   H3716     1.0  0.95927  0.48757  0.09924  1.0000
  H   H3717     1.0  0.66647  0.59172  0.99410  1.0000
  H   H3718     1.0  0.56138  0.90021  0.02644  1.0000
  H   H3719     1.0  0.58169  0.94618  0.01506  1.0000
  H   H3720     1.0  0.81735  0.52853  0.99068  1.0000
  H   H3721     1.0  0.60697  0.93287  0.03663  1.0000
  H   H3722     1.0  0.57889  0.88977  0.07679  1.0000
  H   H3723     1.0  0.62050  0.86616  0.02170  1.0000
  C   C4619     1.0  0.87133  0.58714  0.04160  1.0000
  S   S636      1.0  0.92673  0.49999  0.14682  1.0000
  H   H3724     1.0  0.54032  0.92199  0.04753  1.0000
  C   C4620     1.0  0.83998  0.59188  0.05092  1.0000
  H   H3725     1.0  0.55365  0.80909  0.10896  1.0000
  H   H3726     1.0  0.61038  0.71207  0.10739  1.0000
  C   C4621     1.0  0.80708  0.50780  0.98914  1.0000
  H   H3727     1.0  0.55955  0.82917  0.06225  1.0000
  H   H3728     1.0  0.73295  0.52185  0.01326  1.0000
  C   C4622     1.0  0.56909  0.72904  0.01006  1.0000
  H   H3729     1.0  0.50127  0.83729  0.07056  1.0000
  H   H3730     1.0  0.58367  0.77591  0.12896  1.0000
  H   H3731     1.0  0.88351  0.59655  0.05652  1.0000
  C   C4623     1.0  0.70649  0.97070  0.11709  1.0000
  C   C4624     1.0  0.56184  0.57044  0.04238  1.0000
  H   H3732     1.0  0.52871  0.58752  0.08966  1.0000
  S   S637      1.0  0.50029  0.87718  0.13289  1.0000
  C   C4625     1.0  0.55176  0.96034  0.15113  1.0000
  C   C4626     1.0  0.61002  0.57589  0.02056  1.0000
  H   H3733     1.0  0.91304  0.50630  0.03504  1.0000
  S   S638      1.0  0.58903  0.81231  0.98940  1.0000
  C   C4627     1.0  0.92843  0.58904  0.04464  1.0000
  C   C4628     1.0  0.55267  0.88763  0.08805  1.0000
  H   H3734     1.0  0.49177  0.62579  0.11510  1.0000
  H   H3735     1.0  0.93476  0.52421  0.02848  1.0000
  C   C4629     1.0  0.77473  0.52744  0.00200  1.0000
  S   S639      1.0  0.72812  0.50630  0.05299  1.0000
  H   H3736     1.0  0.49888  0.70809  0.07024  1.0000
  C   C4630     1.0  0.95451  0.60451  0.15199  1.0000
  H   H3737     1.0  0.76224  0.59101  0.00836  1.0000
  H   H3738     1.0  0.49822  0.74769  0.13104  1.0000
  H   H3739     1.0  0.51777  0.90929  0.07012  1.0000
  H   H3740     1.0  0.69404  0.98073  0.15671  1.0000
  H   H3741     1.0  0.52131  0.91117  0.13885  1.0000
  H   H3742     1.0  0.60697  0.77225  0.05497  1.0000
  C   C4631     1.0  0.50211  0.53941  0.08573  1.0000
  C   C4632     1.0  0.62409  0.50495  0.99194  1.0000
  C   C4633     1.0  0.59852  0.87844  0.16903  1.0000
  H   H3743     1.0  0.50084  0.79452  0.98633  1.0000
  C   C4634     1.0  0.63448  0.49520  0.00382  1.0000
  H   H3744     1.0  0.97226  0.61404  0.15958  1.0000
  C   C4635     1.0  0.63864  0.67062  0.00111  1.0000
  C   C4636     1.0  0.91485  0.60135  0.01451  1.0000
  H   H3745     1.0  0.85621  0.50497  0.16658  1.0000
  C   C4637     1.0  0.50519  0.55269  0.09137  1.0000
  C   C4638     1.0  0.58036  0.78803  0.07903  1.0000
  C   C4639     1.0  0.61856  0.77155  0.05914  1.0000
  C   C4640     1.0  0.98658  0.51024  0.16768  1.0000
  H   H3746     1.0  0.50111  0.82796  0.04433  1.0000
  H   H3747     1.0  0.94348  0.60948  0.16140  1.0000
  H   H3748     1.0  0.93958  0.59334  0.14202  1.0000
  C   C4641     1.0  0.50381  0.71776  0.00397  1.0000
  C   C4642     1.0  0.92392  0.49715  0.11519  1.0000
  H   H3749     1.0  0.80670  0.49335  0.17200  1.0000
  C   C4643     1.0  0.50323  0.81835  0.05612  1.0000
  C   C4644     1.0  0.89784  0.55628  0.03125  1.0000
  H   H3750     1.0  0.50501  0.59571  0.04174  1.0000
  C   C4645     1.0  0.77596  0.51132  0.99865  1.0000
  C   C4646     1.0  0.65892  0.71212  0.05080  1.0000
  C   C4647     1.0  0.67004  0.70703  0.06239  1.0000
  C   C4648     1.0  0.67628  0.68935  0.06902  1.0000
  C   C4649     1.0  0.67142  0.67673  0.06407  1.0000
  C   C4650     1.0  0.66042  0.68173  0.05224  1.0000
  C   C4651     1.0  0.65414  0.69954  0.04577  1.0000
  P   P155      1.0  0.65330  0.66554  0.04651  1.0000
  C   C4652     1.0  0.65149  0.67191  0.02399  1.0000
  C   C4653     1.0  0.66910  0.64511  0.04949  1.0000
  C   C4654     1.0  0.68316  0.64127  0.03588  1.0000
  C   C4655     1.0  0.69540  0.62549  0.03822  1.0000
  C   C4656     1.0  0.69365  0.61340  0.05409  1.0000
  C   C4657     1.0  0.67986  0.61722  0.06777  1.0000
  C   C4658     1.0  0.66773  0.63307  0.06557  1.0000
  C   C4659     1.0  0.63984  0.66599  0.01855  1.0000
  C   C4660     1.0  0.89018  0.49613  0.07957  1.0000
  C   C4661     1.0  0.98301  0.59044  0.12857  1.0000
  C   C4662     1.0  0.87776  0.60480  0.99971  1.0000
  C   C4663     1.0  0.66207  0.68236  0.01160  1.0000
  C   C4664     1.0  0.63235  0.66305  0.05999  1.0000
  C   C4665     1.0  0.62089  0.67695  0.06683  1.0000
  C   C4666     1.0  0.60443  0.67522  0.07663  1.0000
  C   C4667     1.0  0.59933  0.65959  0.07981  1.0000
  C   C4668     1.0  0.61067  0.64567  0.07314  1.0000
  C   C4669     1.0  0.62701  0.64745  0.06306  1.0000
  H   H3751     1.0  0.65384  0.72583  0.04576  1.0000
  H   H3752     1.0  0.68484  0.68540  0.07808  1.0000
  H   H3753     1.0  0.67622  0.66313  0.06955  1.0000
  H   H3754     1.0  0.64538  0.70380  0.03694  1.0000
  H   H3755     1.0  0.68472  0.65041  0.02345  1.0000
  H   H3756     1.0  0.70615  0.62250  0.02765  1.0000
  H   H3757     1.0  0.70301  0.60106  0.05582  1.0000
  H   H3758     1.0  0.67855  0.60783  0.08010  1.0000
  H   H3759     1.0  0.65727  0.63587  0.07642  1.0000
  H   H3760     1.0  0.63163  0.65776  0.02768  1.0000
  C   C4670     1.0  0.56564  0.61433  0.99332  1.0000
  H   H3761     1.0  0.52825  0.78267  0.15822  1.0000
  H   H3762     1.0  0.67134  0.68690  0.01538  1.0000
  H   H3763     1.0  0.62429  0.68937  0.06417  1.0000
  H   H3764     1.0  0.59536  0.68624  0.08120  1.0000
  H   H3765     1.0  0.58640  0.65845  0.08702  1.0000
  H   H3766     1.0  0.60664  0.63364  0.07535  1.0000
  H   H3767     1.0  0.63526  0.63673  0.05737  1.0000
  C   C4671     1.0  0.62981  0.87434  0.03951  1.0000
  C   C4672     1.0  0.92108  0.53027  0.03038  1.0000
  C   C4673     1.0  0.58493  0.72314  0.12065  1.0000
  C   C4674     1.0  0.50792  0.79342  0.08694  1.0000
  H   H3768     1.0  0.66084  0.76920  0.07286  1.0000
  H   H3769     1.0  0.50648  0.94352  0.13528  1.0000
  P   P156      1.0  0.58337  0.94802  0.12988  1.0000
  C   C4675     1.0  0.57952  0.92968  0.12480  1.0000
  C   C4676     1.0  0.57909  0.96715  0.11270  1.0000
  C   C4677     1.0  0.65932  0.97389  0.17646  1.0000
  C   C4678     1.0  0.65798  0.86585  0.17839  1.0000
  C   C4679     1.0  0.76084  0.58816  0.99674  1.0000
  H   H3770     1.0  0.56989  0.82929  0.16699  1.0000
  C   C4680     1.0  0.56624  0.94300  0.06097  1.0000
  C   C4681     1.0  0.58198  0.92876  0.10745  1.0000
  C   C4682     1.0  0.57914  0.91443  0.10355  1.0000
  C   C4683     1.0  0.63319  0.77195  0.08090  1.0000
  H   H3771     1.0  0.58827  0.93681  0.16590  1.0000
  C   C4684     1.0  0.51936  0.61145  0.99305  1.0000
  C   C4685     1.0  0.60557  0.94340  0.13204  1.0000
  C   C4686     1.0  0.61768  0.92884  0.12707  1.0000
  C   C4687     1.0  0.63489  0.92569  0.12850  1.0000
  C   C4688     1.0  0.64023  0.93730  0.13440  1.0000
  C   C4689     1.0  0.62819  0.95166  0.13960  1.0000
  C   C4690     1.0  0.61088  0.95453  0.13872  1.0000
  C   C4691     1.0  0.59070  0.78609  0.12314  1.0000
  C   C4692     1.0  0.64972  0.76812  0.05240  1.0000
  H   H3772     1.0  0.49738  0.72525  0.01381  1.0000
  C   C4693     1.0  0.56281  0.81506  0.06555  1.0000
  C   C4694     1.0  0.50551  0.66433  0.08730  1.0000
  H   H3773     1.0  0.60254  0.97577  0.11003  1.0000
  C   C4695     1.0  0.53119  0.90502  0.07136  1.0000
  C   C4696     1.0  0.64907  0.76961  0.06911  1.0000
  C   C4697     1.0  0.52336  0.73039  0.09271  1.0000
  H   H3774     1.0  0.55503  0.96242  0.11101  1.0000
  H   H3775     1.0  0.58655  0.93886  0.09690  1.0000
  H   H3776     1.0  0.58141  0.91369  0.09013  1.0000
  C   C4698     1.0  0.59835  0.78939  0.10532  1.0000
  C   C4699     1.0  0.97093  0.60697  0.15095  1.0000
  C   C4700     1.0  0.53250  0.91906  0.15551  1.0000
  H   H3777     1.0  0.67372  0.71682  0.06627  1.0000
  H   H3778     1.0  0.92267  0.49434  0.09023  1.0000
  H   H3779     1.0  0.73296  0.97626  0.17766  1.0000
  H   H3780     1.0  0.57950  0.97571  0.17583  1.0000
  H   H3781     1.0  0.90992  0.60618  0.00270  1.0000
  C   C4701     1.0  0.63661  0.92712  0.17911  1.0000
  C   C4702     1.0  0.53366  0.88528  0.17585  1.0000
  C   C4703     1.0  0.95210  0.56039  0.17552  1.0000
  H   H3782     1.0  0.57353  0.95535  0.98654  1.0000
  C   C4704     1.0  0.64374  0.58692  0.98995  1.0000
  C   C4705     1.0  0.52993  0.57524  0.99784  1.0000
  H   H3783     1.0  0.65501  0.81656  0.16614  1.0000
  H   H3784     1.0  0.81981  0.50025  0.98466  1.0000
  C   C4706     1.0  0.97109  0.51644  0.17855  1.0000
  H   H3785     1.0  0.82940  0.49158  0.03090  1.0000
  S   S640      1.0  0.49125  0.83949  0.13644  1.0000
  C   C4707     1.0  0.56408  0.94645  0.18188  1.0000
  C   C4708     1.0  0.49634  0.68159  0.08276  1.0000
  H   H3786     1.0  0.57449  0.87059  0.17472  1.0000
  C   C4709     1.0  0.58128  0.87872  0.17748  1.0000
  H   H3787     1.0  0.49701  0.62627  0.06883  1.0000
  C   C4710     1.0  0.92826  0.48853  0.13128  1.0000
  H   H3788     1.0  0.59583  0.65261  0.98607  1.0000
  C   C4711     1.0  0.57084  0.94336  0.99531  1.0000
  H   H3789     1.0  0.98697  0.51148  0.15407  1.0000
  C   C4712     1.0  0.49329  0.59094  0.04690  1.0000
  C   C4713     1.0  0.64496  0.93977  0.17897  1.0000
  H   H3790     1.0  0.61455  0.51650  0.99463  1.0000
  C   C4714     1.0  0.53972  0.89707  0.18094  1.0000
  H   H3791     1.0  0.50527  0.79665  0.04529  1.0000
  C   C4715     1.0  0.66573  0.98613  0.02450  1.0000
  Fe  Fe316     1.0  0.66048  0.98663  0.09682  1.0000
  C   C4716     1.0  0.56285  0.93312  0.99039  1.0000
  H   H3792     1.0  0.87738  0.53367  0.17626  1.0000
  H   H3793     1.0  0.78833  0.58161  0.98679  1.0000
  H   H3794     1.0  0.50334  0.50739  0.12259  1.0000
  H   H3795     1.0  0.64198  0.76790  0.18277  1.0000
  H   H3796     1.0  0.93846  0.49581  0.17771  1.0000
  H   H3797     1.0  0.63724  0.95116  0.18373  1.0000
  C   C4717     1.0  0.59360  0.81755  0.17613  1.0000
  C   C4718     1.0  0.67400  0.86066  0.18345  1.0000
  C   C4719     1.0  0.59915  0.89979  0.18383  1.0000
  C   C4720     1.0  0.92552  0.48765  0.10282  1.0000
  H   H3798     1.0  0.53427  0.87203  0.18324  1.0000
  C   C4721     1.0  0.57581  0.82028  0.17732  1.0000
  C   C4722     1.0  0.77560  0.58277  0.98459  1.0000
  C   C4723     1.0  0.93447  0.56521  0.18278  1.0000
  C   C4724     1.0  0.57880  0.98433  0.18393  1.0000
  C   C4725     1.0  0.88632  0.52451  0.18387  1.0000
  Fe  Fe317     1.0  0.65552  0.87809  0.22109  1.0000
  S   S641      1.0  0.62925  0.89189  0.21595  1.0000
  S   S642      1.0  0.67694  0.86436  0.20255  1.0000
  Fe  Fe318     1.0  0.64649  0.88431  0.25808  1.0000
  S   S643      1.0  0.61901  0.89784  0.25591  1.0000
  S   S644      1.0  0.65285  0.88141  0.28424  1.0000
  Fe  Fe319     1.0  0.61965  0.87711  0.24273  1.0000
  S   S645      1.0  0.59994  0.86213  0.24446  1.0000
  Fe  Fe320     1.0  0.63119  0.91120  0.22949  1.0000
  S   S646      1.0  0.62205  0.93997  0.22025  1.0000
  S   S647      1.0  0.64595  0.86218  0.24727  1.0000
  S   S648      1.0  0.65867  0.89889  0.23217  1.0000
  Fe  Fe321     1.0  0.97456  0.76918  0.36173  1.0000
  H   H3799     1.0  0.97396  0.59222  0.18980  1.0000
  C   C4726     1.0  0.67431  0.95343  0.34201  1.0000
  C   C4727     1.0  0.51758  0.88807  0.33485  1.0000
  H   H3800     1.0  0.56824  0.85275  0.24744  1.0000
  H   H3801     1.0  0.66101  0.93494  0.32790  1.0000
  Fe  Fe322     1.0  0.50269  0.88390  0.27957  1.0000
  H   H3802     1.0  0.89650  0.98173  0.36809  1.0000
  S   S649      1.0  0.52551  0.88231  0.29045  1.0000
  H   H3803     1.0  0.76784  0.90888  0.24276  1.0000
  C   C4728     1.0  0.67029  0.98305  0.30606  1.0000
  S   S650      1.0  0.49889  0.86927  0.26204  1.0000
  C   C4729     1.0  0.80420  0.98119  0.29387  1.0000
  Fe  Fe323     1.0  0.98884  0.65486  0.35492  1.0000
  H   H3804     1.0  0.73368  0.82863  0.23356  1.0000
  C   C4730     1.0  0.94710  0.49307  0.23214  1.0000
  H   H3805     1.0  0.83349  0.96049  0.23377  1.0000
  H   H3806     1.0  0.92350  0.52176  0.19587  1.0000
  Fe  Fe324     1.0  0.96944  0.54684  0.24542  1.0000
  S   S651      1.0  0.97431  0.51987  0.26236  1.0000
  S   S652      1.0  0.97557  0.55010  0.21608  1.0000
  Fe  Fe325     1.0  0.96046  0.56429  0.27623  1.0000
  S   S653      1.0  0.96438  0.53877  0.29559  1.0000
  S   S654      1.0  0.95247  0.59071  0.28316  1.0000
  Fe  Fe326     1.0  0.98783  0.53055  0.27578  1.0000
  H   H3807     1.0  0.65202  0.74050  0.20281  1.0000
  Fe  Fe327     1.0  0.95043  0.53015  0.28067  1.0000
  S   S655      1.0  0.92914  0.51628  0.29592  1.0000
  S   S656      1.0  0.98518  0.55672  0.25749  1.0000
  S   S657      1.0  0.94433  0.55647  0.26280  1.0000
  H   H3808     1.0  0.72991  0.80053  0.28671  1.0000
  Fe  Fe328     1.0  0.98680  0.61916  0.35153  1.0000
  C   C4731     1.0  0.72083  0.97506  0.22116  1.0000
  C   C4732     1.0  0.69951  0.85871  0.23981  1.0000
  C   C4733     1.0  0.97513  0.59476  0.20164  1.0000
  C   C4734     1.0  0.80151  0.94498  0.27019  1.0000
  H   H3809     1.0  0.63680  0.97702  0.29073  1.0000
  S   S658      1.0  0.96664  0.64344  0.35567  1.0000
  H   H3810     1.0  0.87996  0.74009  0.29774  1.0000
  C   C4735     1.0  0.49537  0.91154  0.37640  1.0000
  H   H3811     1.0  0.53028  0.94238  0.33663  1.0000
  C   C4736     1.0  0.83241  0.98652  0.34564  1.0000
  H   H3812     1.0  0.81417  0.93698  0.30194  1.0000
  Fe  Fe329     1.0  0.72858  0.89405  0.31923  1.0000
  S   S659      1.0  0.71117  0.91686  0.32967  1.0000
  S   S660      1.0  0.72405  0.88642  0.29644  1.0000
  Fe  Fe330     1.0  0.75692  0.89251  0.33805  1.0000
  S   S661      1.0  0.74180  0.91585  0.34876  1.0000
  S   S662      1.0  0.78194  0.87929  0.34711  1.0000
  Fe  Fe331     1.0  0.71949  0.90316  0.35501  1.0000
  Fe  Fe332     1.0  0.73521  0.92716  0.32261  1.0000
  S   S663      1.0  0.73418  0.95480  0.30774  1.0000
  S   S664      1.0  0.73479  0.87903  0.34538  1.0000
  S   S665      1.0  0.75244  0.90504  0.31114  1.0000
  Fe  Fe333     1.0  0.88963  0.91384  0.34262  1.0000
  S   S666      1.0  0.86247  0.90987  0.35221  1.0000
  S   S667      1.0  0.91210  0.89457  0.35299  1.0000
  Fe  Fe334     1.0  0.87811  0.95017  0.32129  1.0000
  S   S668      1.0  0.85013  0.94908  0.32883  1.0000
  C   C4737     1.0  0.52885  0.96930  0.32362  1.0000
  Fe  Fe335     1.0  0.85548  0.93734  0.35561  1.0000
  Fe  Fe336     1.0  0.85957  0.92184  0.32474  1.0000
  S   S669      1.0  0.84699  0.91230  0.30903  1.0000
  S   S670      1.0  0.88288  0.94044  0.34824  1.0000
  S   S671      1.0  0.88737  0.92384  0.31473  1.0000
  C   C4738     1.0  0.79961  0.88908  0.33656  1.0000
  C   C4739     1.0  0.81096  0.88986  0.34621  1.0000
  C   C4740     1.0  0.82533  0.89733  0.33795  1.0000
  C   C4741     1.0  0.82891  0.90321  0.31990  1.0000
  C   C4742     1.0  0.81789  0.90187  0.31020  1.0000
  C   C4743     1.0  0.80303  0.89525  0.31854  1.0000
  H   H3813     1.0  0.80849  0.88487  0.36012  1.0000
  H   H3814     1.0  0.83375  0.89833  0.34551  1.0000
  H   H3815     1.0  0.82069  0.90629  0.29623  1.0000
  H   H3816     1.0  0.79444  0.89450  0.31100  1.0000
  C   C4744     1.0  0.93548  0.84441  0.33320  1.0000
  C   C4745     1.0  0.92189  0.85675  0.32646  1.0000
  C   C4746     1.0  0.91473  0.87235  0.33224  1.0000
  C   C4747     1.0  0.92134  0.87575  0.34461  1.0000
  C   C4748     1.0  0.93526  0.86365  0.35097  1.0000
  C   C4749     1.0  0.94220  0.84794  0.34543  1.0000
  H   H3817     1.0  0.90111  0.87514  0.27788  1.0000
  H   H3818     1.0  0.90409  0.88172  0.32719  1.0000
  H   H3819     1.0  0.94050  0.86629  0.36046  1.0000
  H   H3820     1.0  0.95268  0.83853  0.35072  1.0000
  C   C4750     1.0  0.68705  0.94472  0.18832  1.0000
  C   C4751     1.0  0.80252  0.98318  0.31063  1.0000
  C   C4752     1.0  0.53593  0.98099  0.30926  1.0000
  H   H3821     1.0  0.86478  0.95032  0.22248  1.0000
  C   C4753     1.0  0.59247  0.97016  0.29166  1.0000
  C   C4754     1.0  0.63205  0.84545  0.21035  1.0000
  C   C4755     1.0  0.96285  0.59294  0.29832  1.0000
  C   C4756     1.0  0.97580  0.57936  0.30454  1.0000
  C   C4757     1.0  0.98453  0.58143  0.31604  1.0000
  C   C4758     1.0  0.98010  0.59695  0.32180  1.0000
  C   C4759     1.0  0.96670  0.61040  0.31612  1.0000
  C   C4760     1.0  0.95823  0.60846  0.30421  1.0000
  H   H3822     1.0  0.97920  0.56729  0.30034  1.0000
  C   C4761     1.0  0.50092  0.82534  0.30324  1.0000
  H   H3823     1.0  0.96292  0.62221  0.32087  1.0000
  H   H3824     1.0  0.94802  0.61894  0.29962  1.0000
  H   H3825     1.0  0.68457  0.95317  0.33049  1.0000
  C   C4762     1.0  0.91795  0.51100  0.23482  1.0000
  H   H3826     1.0  0.84256  0.97583  0.35011  1.0000
  C   C4763     1.0  0.86499  0.94126  0.26550  1.0000
  H   H3827     1.0  0.90499  0.51441  0.23239  1.0000
  C   C4764     1.0  0.98357  0.53170  0.33760  1.0000
  C   C4765     1.0  0.85683  0.98655  0.27800  1.0000
  H   H3828     1.0  0.94102  0.52240  0.25659  1.0000
  H   H3829     1.0  0.86875  0.87813  0.32810  1.0000
  C   C4766     1.0  0.66252  0.98288  0.18705  1.0000
  C   C4767     1.0  0.64005  0.76780  0.19637  1.0000
  H   H3830     1.0  0.88499  0.93791  0.24276  1.0000
  P   P157      1.0  0.49528  0.84588  0.35179  1.0000
  C   C4768     1.0  0.67793  0.94337  0.35797  1.0000
  C   C4769     1.0  0.57284  0.88952  0.18923  1.0000
  Fe  Fe337     1.0  0.98071  0.79969  0.37089  1.0000
  C   C4770     1.0  0.64339  0.81867  0.20026  1.0000
  H   H3831     1.0  0.93771  0.56099  0.22461  1.0000
  C   C4771     1.0  0.58658  0.97814  0.19832  1.0000
  C   C4772     1.0  0.64448  0.93336  0.29493  1.0000
  H   H3832     1.0  0.77693  0.95849  0.28335  1.0000
  C   C4773     1.0  0.55025  0.97480  0.29708  1.0000
  H   H3833     1.0  0.74313  0.77525  0.23107  1.0000
  C   C4774     1.0  0.91238  0.51769  0.19501  1.0000
  C   C4775     1.0  0.85165  0.86441  0.36670  1.0000
  H   H3834     1.0  0.60636  0.85914  0.20700  1.0000
  H   H3835     1.0  0.80841  0.90467  0.26238  1.0000
  Fe  Fe338     1.0  0.96435  0.80616  0.34024  1.0000
  H   H3836     1.0  0.78271  0.97503  0.25155  1.0000
  H   H3837     1.0  0.51061  0.92539  0.29758  1.0000
  C   C4776     1.0  0.72471  0.97817  0.19006  1.0000
  C   C4777     1.0  0.80150  0.91670  0.26640  1.0000
  C   C4778     1.0  0.70665  0.92972  0.21416  1.0000
  H   H3838     1.0  0.55536  0.98403  0.28585  1.0000
  H   H3839     1.0  0.79261  0.95208  0.22087  1.0000
  H   H3840     1.0  0.59337  0.96937  0.25006  1.0000
  H   H3841     1.0  0.52199  0.93440  0.24728  1.0000
  H   H3842     1.0  0.70807  0.97647  0.33058  1.0000
  C   C4779     1.0  0.74234  0.98183  0.26011  1.0000
  C   C4780     1.0  0.84219  0.95525  0.24273  1.0000
  H   H3843     1.0  0.51470  0.80956  0.35332  1.0000
  C   C4781     1.0  0.60086  0.98376  0.28803  1.0000
  C   C4782     1.0  0.67216  0.88468  0.28708  1.0000
  C   C4783     1.0  0.68567  0.88851  0.27305  1.0000
  C   C4784     1.0  0.70125  0.88985  0.27608  1.0000
  C   C4785     1.0  0.70337  0.88761  0.29307  1.0000
  C   C4786     1.0  0.68959  0.88449  0.30702  1.0000
  C   C4787     1.0  0.67415  0.88282  0.30403  1.0000
  H   H3844     1.0  0.68430  0.88995  0.25995  1.0000
  H   H3845     1.0  0.71184  0.89231  0.26524  1.0000
  H   H3846     1.0  0.69112  0.88257  0.32017  1.0000
  H   H3847     1.0  0.66379  0.87978  0.31495  1.0000
  C   C4788     1.0  0.63237  0.95069  0.22867  1.0000
  C   C4789     1.0  0.64208  0.94129  0.24127  1.0000
  C   C4790     1.0  0.65152  0.94955  0.24697  1.0000
  C   C4791     1.0  0.65037  0.96745  0.24098  1.0000
  C   C4792     1.0  0.64026  0.97694  0.22880  1.0000
  C   C4793     1.0  0.63148  0.96853  0.22240  1.0000
  H   H3848     1.0  0.64233  0.92766  0.24668  1.0000
  H   H3849     1.0  0.65928  0.94214  0.25644  1.0000
  H   H3850     1.0  0.62415  0.97584  0.21251  1.0000
  C   C4794     1.0  0.57919  0.86826  0.25690  1.0000
  C   C4795     1.0  0.57597  0.87954  0.26791  1.0000
  C   C4796     1.0  0.55940  0.88371  0.27824  1.0000
  C   C4797     1.0  0.54588  0.87722  0.27701  1.0000
  C   C4798     1.0  0.54896  0.86633  0.26563  1.0000
  C   C4799     1.0  0.56572  0.86157  0.25586  1.0000
  H   H3851     1.0  0.58631  0.88480  0.26864  1.0000
  H   H3852     1.0  0.55690  0.89218  0.28702  1.0000
  H   H3853     1.0  0.53857  0.86126  0.26465  1.0000
  S   S672      1.0  0.66132  0.97773  0.24921  1.0000
  H   H3854     1.0  0.59212  0.98472  0.21949  1.0000
  C   C4800     1.0  0.73153  0.97251  0.20510  1.0000
  C   C4801     1.0  0.89088  0.72063  0.31807  1.0000
  C   C4802     1.0  0.80544  0.96858  0.32411  1.0000
  C   C4803     1.0  0.75096  0.93430  0.24214  1.0000
  H   H3855     1.0  0.60869  0.93517  0.29623  1.0000
  H   H3856     1.0  0.58662  0.93463  0.22625  1.0000
  C   C4804     1.0  0.64576  0.75218  0.20772  1.0000
  C   C4805     1.0  0.71468  0.93640  0.19716  1.0000
  C   C4806     1.0  0.93681  0.69131  0.37328  1.0000
  C   C4807     1.0  0.98724  0.69803  0.35034  1.0000
  C   C4808     1.0  0.91416  0.48878  0.30455  1.0000
  C   C4809     1.0  0.64345  0.75161  0.22538  1.0000
  C   C4810     1.0  0.93781  0.53539  0.34331  1.0000
  C   C4811     1.0  0.98324  0.72503  0.30077  1.0000
  H   H3857     1.0  0.68543  0.81753  0.25239  1.0000
  H   H3858     1.0  0.55682  0.94951  0.22157  1.0000
  C   C4812     1.0  0.49717  0.83801  0.33275  1.0000
  C   C4813     1.0  0.56044  0.94899  0.23346  1.0000
  H   H3859     1.0  0.73776  0.87834  0.23821  1.0000
  C   C4814     1.0  0.50997  0.83768  0.30239  1.0000
  H   H3860     1.0  0.73485  0.82316  0.32572  1.0000
  C   C4815     1.0  0.73968  0.80233  0.23074  1.0000
  C   C4816     1.0  0.65225  0.92766  0.30930  1.0000
  H   H3861     1.0  0.94166  0.52211  0.35029  1.0000
  C   C4817     1.0  0.52761  0.92638  0.23778  1.0000
  H   H3862     1.0  0.77876  0.89685  0.38028  1.0000
  C   C4818     1.0  0.93835  0.56594  0.33635  1.0000
  S   S673      1.0  0.83607  0.94476  0.37919  1.0000
  C   C4819     1.0  0.64980  0.82847  0.28306  1.0000
  H   H3863     1.0  0.62423  0.90503  0.30666  1.0000
  C   C4820     1.0  0.95966  0.74458  0.31542  1.0000
  H   H3864     1.0  0.65682  0.91387  0.31423  1.0000
  C   C4821     1.0  0.65463  0.93975  0.31702  1.0000
  C   C4822     1.0  0.71027  0.85063  0.25183  1.0000
  H   H3865     1.0  0.63218  0.95565  0.27772  1.0000
  C   C4823     1.0  0.71627  0.88086  0.22678  1.0000
  C   C4824     1.0  0.95090  0.50208  0.24224  1.0000
  H   H3866     1.0  0.81135  0.94054  0.33145  1.0000
  H   H3867     1.0  0.93950  0.69681  0.38253  1.0000
  H   H3868     1.0  0.64670  0.87220  0.18649  1.0000
  S   S674      1.0  0.70138  0.90344  0.38128  1.0000
  C   C4825     1.0  0.60136  0.80604  0.18955  1.0000
  S   S675      1.0  0.95676  0.79375  0.36831  1.0000
  C   C4826     1.0  0.64913  0.95769  0.31040  1.0000
  H   H3869     1.0  0.72238  0.76944  0.25920  1.0000
  C   C4827     1.0  0.71254  0.84163  0.29330  1.0000
  H   H3870     1.0  0.51957  0.91940  0.20220  1.0000
  C   C4828     1.0  0.78386  0.94709  0.27812  1.0000
  C   C4829     1.0  0.97657  0.74093  0.30580  1.0000
  H   H3871     1.0  0.90333  0.49704  0.31139  1.0000
  H   H3872     1.0  0.76056  0.94197  0.32823  1.0000
  P   P158      1.0  0.70779  0.83000  0.26645  1.0000
  H   H3873     1.0  0.55564  0.93134  0.31540  1.0000
  C   C4830     1.0  0.94937  0.73240  0.31989  1.0000
  C   C4831     1.0  0.51955  0.92860  0.22412  1.0000
  H   H3874     1.0  0.89430  0.86415  0.37831  1.0000
  C   C4832     1.0  0.90608  0.71101  0.32374  1.0000
  C   C4833     1.0  0.98566  0.50778  0.20261  1.0000
  H   H3875     1.0  0.58775  0.96419  0.30507  1.0000
  C   C4834     1.0  0.73655  0.78563  0.23787  1.0000
  H   H3876     1.0  0.97867  0.70038  0.30168  1.0000
  C   C4835     1.0  0.70722  0.98631  0.19097  1.0000
  H   H3877     1.0  0.80802  0.83415  0.36923  1.0000
  C   C4836     1.0  0.90058  0.52947  0.18547  1.0000
  H   H3878     1.0  0.92494  0.84155  0.38036  1.0000
  S   S676      1.0  0.49135  0.90987  0.26431  1.0000
  H   H3879     1.0  0.51535  0.85347  0.31607  1.0000
  H   H3880     1.0  0.71650  0.85114  0.31352  1.0000
  C   C4837     1.0  0.96618  0.67073  0.31435  1.0000
  H   H3881     1.0  0.56877  0.91537  0.28850  1.0000
  H   H3882     1.0  0.86943  0.94999  0.37923  1.0000
  C   C4838     1.0  0.67776  0.82231  0.26377  1.0000
  C   C4839     1.0  0.97067  0.51528  0.19595  1.0000
  H   H3883     1.0  0.90901  0.77406  0.36762  1.0000
  C   C4840     1.0  0.50822  0.84389  0.31710  1.0000
  H   H3884     1.0  0.66535  0.93840  0.20872  1.0000
  H   H3885     1.0  0.82406  0.92732  0.25890  1.0000
  H   H3886     1.0  0.53841  0.95765  0.19472  1.0000
  C   C4841     1.0  0.74474  0.96546  0.31590  1.0000
  H   H3887     1.0  0.65388  0.80745  0.19854  1.0000
  H   H3888     1.0  0.74783  0.96854  0.26610  1.0000
  C   C4842     1.0  0.92895  0.49504  0.29528  1.0000
  H   H3889     1.0  0.79446  0.92024  0.22901  1.0000
  C   C4843     1.0  0.72486  0.78237  0.25371  1.0000
  H   H3890     1.0  0.59321  0.96461  0.20159  1.0000
  H   H3891     1.0  0.92315  0.79841  0.35065  1.0000
  C   C4844     1.0  0.84734  0.94711  0.27194  1.0000
  H   H3892     1.0  0.70462  0.85397  0.28812  1.0000
  C   C4845     1.0  0.54829  0.95672  0.24623  1.0000
  C   C4846     1.0  0.58185  0.94059  0.25129  1.0000
  C   C4847     1.0  0.78098  0.94714  0.22675  1.0000
  C   C4848     1.0  0.78202  0.92920  0.23130  1.0000
  C   C4849     1.0  0.61667  0.84782  0.20502  1.0000
  C   C4850     1.0  0.88312  0.78947  0.36666  1.0000
  C   C4851     1.0  0.74980  0.95236  0.23758  1.0000
  C   C4852     1.0  0.96450  0.55626  0.18580  1.0000
  C   C4853     1.0  0.95211  0.52531  0.37873  1.0000
  P   P159      1.0  0.81281  0.96139  0.26871  1.0000
  H   H3893     1.0  0.83795  0.83281  0.37086  1.0000
  C   C4854     1.0  0.58191  0.90008  0.19235  1.0000
  C   C4855     1.0  0.64819  0.95298  0.37207  1.0000
  C   C4856     1.0  0.67911  0.93797  0.20541  1.0000
  H   H3894     1.0  0.58440  0.88533  0.29932  1.0000
  C   C4857     1.0  0.86660  0.87375  0.38284  1.0000
  H   H3895     1.0  0.57578  0.90866  0.20118  1.0000
  C   C4858     1.0  0.70254  0.87376  0.22736  1.0000
  C   C4859     1.0  0.71410  0.95611  0.25758  1.0000
  C   C4860     1.0  0.70464  0.94679  0.25313  1.0000
  C   C4861     1.0  0.69472  0.93624  0.26610  1.0000
  C   C4862     1.0  0.69394  0.93514  0.28356  1.0000
  C   C4863     1.0  0.70268  0.94496  0.28806  1.0000
  C   C4864     1.0  0.71281  0.95528  0.27515  1.0000
  P   P160      1.0  0.62422  0.80325  0.18822  1.0000
  C   C4865     1.0  0.66028  0.82156  0.26898  1.0000
  H   H3896     1.0  0.97182  0.64341  0.28788  1.0000
  H   H3897     1.0  0.95449  0.48888  0.27942  1.0000
  C   C4866     1.0  0.95648  0.57795  0.36373  1.0000
  H   H3898     1.0  0.98427  0.64661  0.31088  1.0000
  C   C4867     1.0  0.94180  0.56093  0.21093  1.0000
  C   C4868     1.0  0.78832  0.92018  0.37395  1.0000
  H   H3899     1.0  0.94627  0.71012  0.35138  1.0000
  C   C4869     1.0  0.95077  0.56269  0.37282  1.0000
  P   P161      1.0  0.72908  0.96744  0.24090  1.0000
  H   H3900     1.0  0.70506  0.94749  0.23970  1.0000
  H   H3901     1.0  0.68772  0.92879  0.26265  1.0000
  H   H3902     1.0  0.68668  0.92660  0.29358  1.0000
  H   H3903     1.0  0.70179  0.94456  0.30155  1.0000
  H   H3904     1.0  0.71949  0.96261  0.27903  1.0000
  C   C4870     1.0  0.58965  0.96475  0.27807  1.0000
  H   H3905     1.0  0.88299  0.89252  0.29934  1.0000
  H   H3906     1.0  0.97428  0.52745  0.33355  1.0000
  C   C4871     1.0  0.92901  0.56907  0.32345  1.0000
  C   C4872     1.0  0.92399  0.55544  0.32053  1.0000
  C   C4873     1.0  0.92836  0.53861  0.33048  1.0000
  H   H3907     1.0  0.92612  0.58202  0.31531  1.0000
  H   H3908     1.0  0.91718  0.55779  0.31019  1.0000
  H   H3909     1.0  0.92488  0.52798  0.32781  1.0000
  C   C4874     1.0  0.49503  0.95144  0.29626  1.0000
  H   H3910     1.0  0.71418  0.92384  0.22415  1.0000
  H   H3911     1.0  0.91685  0.85418  0.31683  1.0000
  C   C4875     1.0  0.60522  0.89337  0.30378  1.0000
  H   H3912     1.0  0.74507  0.96616  0.20411  1.0000
  C   C4876     1.0  0.80539  0.98171  0.25425  1.0000
  C   C4877     1.0  0.53724  0.81081  0.38181  1.0000
  H   H3913     1.0  0.51197  0.85176  0.37630  1.0000
  C   C4878     1.0  0.75685  0.95598  0.32612  1.0000
  C   C4879     1.0  0.57715  0.94070  0.23609  1.0000
  H   H3914     1.0  0.51814  0.84274  0.29025  1.0000
  C   C4880     1.0  0.58953  0.89629  0.29881  1.0000
  C   C4881     1.0  0.53160  0.80430  0.37084  1.0000
  H   H3915     1.0  0.85917  0.80758  0.36356  1.0000
  C   C4882     1.0  0.85989  0.94947  0.23629  1.0000
  C   C4883     1.0  0.96214  0.59930  0.23069  1.0000
  C   C4884     1.0  0.97842  0.59875  0.23325  1.0000
  C   C4885     1.0  0.55766  0.95686  0.29918  1.0000
  H   H3916     1.0  0.50544  0.90670  0.36617  1.0000
  H   H3917     1.0  0.81266  0.97907  0.36775  1.0000
  C   C4886     1.0  0.55048  0.94521  0.31365  1.0000
  C   C4887     1.0  0.68887  0.93051  0.21828  1.0000
  C   C4888     1.0  0.56979  0.94866  0.26402  1.0000
  C   C4889     1.0  0.55292  0.95636  0.26152  1.0000
  S   S677      1.0  0.98695  0.81435  0.34329  1.0000
  H   H3918     1.0  0.73297  0.85155  0.25984  1.0000
  H   H3919     1.0  0.94803  0.59678  0.21326  1.0000
  C   C4890     1.0  0.72667  0.81166  0.29244  1.0000
  C   C4891     1.0  0.49839  0.86791  0.34477  1.0000
  H   H3920     1.0  0.64790  0.73950  0.23414  1.0000
  C   C4892     1.0  0.73221  0.98527  0.24771  1.0000
  C   C4893     1.0  0.96051  0.59718  0.21494  1.0000
  C   C4894     1.0  0.63843  0.95115  0.28871  1.0000
  H   H3921     1.0  0.95090  0.60067  0.24123  1.0000
  C   C4895     1.0  0.81098  0.94992  0.30424  1.0000
  C   C4896     1.0  0.70513  0.97670  0.34419  1.0000
  C   C4897     1.0  0.93067  0.49770  0.22809  1.0000
  C   C4898     1.0  0.60311  0.92449  0.29702  1.0000
  C   C4899     1.0  0.61680  0.98644  0.32755  1.0000
  C   C4900     1.0  0.83579  0.95424  0.26062  1.0000
  C   C4901     1.0  0.49774  0.93361  0.29769  1.0000
  C   C4902     1.0  0.95602  0.71629  0.31506  1.0000
  H   H3922     1.0  0.98804  0.74082  0.34314  1.0000
  H   H3923     1.0  0.71857  0.89244  0.21701  1.0000
  H   H3924     1.0  0.65765  0.82970  0.21131  1.0000
  H   H3925     1.0  0.94667  0.66564  0.27856  1.0000
  H   H3926     1.0  0.90504  0.70182  0.33615  1.0000
  H   H3927     1.0  0.63612  0.82848  0.28669  1.0000
  H   H3928     1.0  0.59498  0.93453  0.25295  1.0000
  Fe  Fe339     1.0  0.50875  0.98627  0.27613  1.0000
  C   C4903     1.0  0.72963  0.82428  0.31457  1.0000
  C   C4904     1.0  0.93751  0.69156  0.34339  1.0000
  H   H3929     1.0  0.80393  0.97017  0.33714  1.0000
  H   H3930     1.0  0.93624  0.73548  0.32725  1.0000
  C   C4905     1.0  0.97307  0.71270  0.30545  1.0000
  P   P162      1.0  0.94217  0.70108  0.32033  1.0000
  C   C4906     1.0  0.97341  0.65645  0.30660  1.0000
  H   H3931     1.0  0.97430  0.68351  0.37410  1.0000
  H   H3932     1.0  0.93379  0.69084  0.29212  1.0000
  C   C4907     1.0  0.97835  0.54071  0.35103  1.0000
  H   H3933     1.0  0.85794  0.97273  0.27999  1.0000
  C   C4908     1.0  0.58073  0.91329  0.29269  1.0000
  C   C4909     1.0  0.93073  0.67652  0.34936  1.0000
  C   C4910     1.0  0.71933  0.81263  0.25532  1.0000
  H   H3934     1.0  0.68257  0.92530  0.23143  1.0000
  C   C4911     1.0  0.71616  0.82748  0.28550  1.0000
  C   C4912     1.0  0.53615  0.95145  0.32585  1.0000
  P   P163      1.0  0.57619  0.94929  0.28318  1.0000
  H   H3935     1.0  0.72847  0.93577  0.19396  1.0000
  C   C4913     1.0  0.79557  0.93037  0.37979  1.0000
  C   C4914     1.0  0.65748  0.96317  0.34088  1.0000
  H   H3936     1.0  0.50176  0.82100  0.29167  1.0000
  C   C4915     1.0  0.66488  0.94295  0.37294  1.0000
  H   H3937     1.0  0.53533  0.96321  0.24421  1.0000
  H   H3938     1.0  0.54335  0.96227  0.27128  1.0000
  C   C4916     1.0  0.51741  0.83855  0.37463  1.0000
  C   C4917     1.0  0.83447  0.83660  0.35833  1.0000
  C   C4918     1.0  0.59552  0.97305  0.26082  1.0000
  H   H3939     1.0  0.61238  0.88020  0.30792  1.0000
  H   H3940     1.0  0.90566  0.82717  0.34013  1.0000
  C   C4919     1.0  0.67434  0.83665  0.28693  1.0000
  C   C4920     1.0  0.97749  0.69590  0.36736  1.0000
  C   C4921     1.0  0.94493  0.68149  0.29621  1.0000
  H   H3941     1.0  0.89501  0.84664  0.35849  1.0000
  H   H3942     1.0  0.91200  0.53021  0.25010  1.0000
  H   H3943     1.0  0.74144  0.79788  0.31222  1.0000
  C   C4922     1.0  0.80944  0.95192  0.32096  1.0000
  C   C4923     1.0  0.95290  0.59198  0.37157  1.0000
  C   C4924     1.0  0.76415  0.96467  0.33375  1.0000
  C   C4925     1.0  0.64446  0.96303  0.35608  1.0000
  H   H3944     1.0  0.67923  0.84305  0.29380  1.0000
  C   C4926     1.0  0.81031  0.92963  0.26442  1.0000
  H   H3945     1.0  0.66825  0.97811  0.28214  1.0000
  H   H3946     1.0  0.83978  0.86563  0.36276  1.0000
  H   H3947     1.0  0.64856  0.84218  0.30237  1.0000
  H   H3948     1.0  0.98505  0.50738  0.21606  1.0000
  H   H3949     1.0  0.50526  0.91527  0.32905  1.0000
  H   H3950     1.0  0.87841  0.71874  0.32607  1.0000
  C   C4927     1.0  0.90986  0.50083  0.20325  1.0000
  C   C4928     1.0  0.95220  0.66718  0.28846  1.0000
  C   C4929     1.0  0.51888  0.81489  0.36173  1.0000
  C   C4930     1.0  0.97497  0.72633  0.36668  1.0000
  C   C4931     1.0  0.79031  0.98477  0.24795  1.0000
  C   C4932     1.0  0.97134  0.71005  0.37551  1.0000
  C   C4933     1.0  0.74041  0.98365  0.31275  1.0000
  H   H3951     1.0  0.95877  0.52067  0.20418  1.0000
  H   H3952     1.0  0.69084  0.93560  0.35870  1.0000
  S   S678      1.0  0.98003  0.78093  0.33305  1.0000
  H   H3953     1.0  0.59657  0.78857  0.21483  1.0000
  H   H3954     1.0  0.94250  0.57667  0.33786  1.0000
  C   C4934     1.0  0.96640  0.65466  0.29367  1.0000
  H   H3955     1.0  0.55176  0.81407  0.19282  1.0000
  H   H3956     1.0  0.79841  0.94250  0.37141  1.0000
  H   H3957     1.0  0.68894  0.85331  0.23979  1.0000
  H   H3958     1.0  0.77319  0.95730  0.34201  1.0000
  H   H3959     1.0  0.53709  0.79102  0.36936  1.0000
  C   C4935     1.0  0.64553  0.83109  0.20768  1.0000
  C   C4936     1.0  0.63208  0.78304  0.20260  1.0000
  H   H3960     1.0  0.63362  0.85488  0.21639  1.0000
  C   C4937     1.0  0.95943  0.55626  0.20359  1.0000
  C   C4938     1.0  0.52650  0.91788  0.21219  1.0000
  H   H3961     1.0  0.60609  0.90790  0.18635  1.0000
  P   P164      1.0  0.65252  0.97361  0.31972  1.0000
  C   C4939     1.0  0.50334  0.90208  0.33351  1.0000
  H   H3962     1.0  0.52640  0.86033  0.34073  1.0000
  H   H3963     1.0  0.96387  0.57891  0.35059  1.0000
  H   H3964     1.0  0.91580  0.56934  0.20624  1.0000
  C   C4940     1.0  0.62966  0.78231  0.22041  1.0000
  C   C4941     1.0  0.72710  0.87285  0.23862  1.0000
  H   H3965     1.0  0.98456  0.87675  0.35401  1.0000
  C   C4942     1.0  0.61449  0.83549  0.19750  1.0000
  C   C4943     1.0  0.72422  0.85772  0.25101  1.0000
  H   H3966     1.0  0.84296  0.94605  0.28578  1.0000
  C   C4944     1.0  0.89476  0.86870  0.29048  1.0000
  H   H3967     1.0  0.73957  0.92901  0.24826  1.0000
  C   C4945     1.0  0.98523  0.72829  0.34993  1.0000
  H   H3968     1.0  0.98727  0.55287  0.36624  1.0000
  S   S679      1.0  0.88677  0.97354  0.30279  1.0000
  C   C4946     1.0  0.51174  0.83213  0.36349  1.0000
  H   H3969     1.0  0.96361  0.49850  0.24530  1.0000
  C   C4947     1.0  0.87129  0.94247  0.24768  1.0000
  H   H3970     1.0  0.65467  0.81625  0.26169  1.0000
  C   C4948     1.0  0.78384  0.91910  0.27393  1.0000
  C   C4949     1.0  0.77502  0.93435  0.27962  1.0000
  H   H3971     1.0  0.77700  0.90904  0.27558  1.0000
  H   H3972     1.0  0.76137  0.93615  0.28561  1.0000
  H   H3973     1.0  0.63140  0.97040  0.35567  1.0000
  C   C4950     1.0  0.61194  0.90746  0.30299  1.0000
  C   C4951     1.0  0.95188  0.68335  0.30928  1.0000
  C   C4952     1.0  0.93827  0.51554  0.24856  1.0000
  C   C4953     1.0  0.70495  0.94383  0.18423  1.0000
  H   H3974     1.0  0.62332  0.79384  0.22557  1.0000
  H   H3975     1.0  0.87696  0.77881  0.37399  1.0000
  C   C4954     1.0  0.89029  0.98554  0.38033  1.0000
  C   C4955     1.0  0.76492  0.95869  0.22977  1.0000
  C   C4956     1.0  0.58746  0.92752  0.29176  1.0000
  H   H3976     1.0  0.69433  0.87983  0.21798  1.0000
  C   C4957     1.0  0.64089  0.96326  0.29627  1.0000
  H   H3977     1.0  0.90851  0.74440  0.27940  1.0000
  C   C4958     1.0  0.73333  0.81009  0.30694  1.0000
  C   C4959     1.0  0.92180  0.51995  0.24491  1.0000
  H   H3978     1.0  0.70714  0.79313  0.27461  1.0000
  H   H3979     1.0  0.64330  0.92401  0.28849  1.0000
  H   H3980     1.0  0.79928  0.84404  0.34088  1.0000
  H   H3981     1.0  0.97934  0.59963  0.24587  1.0000
  C   C4960     1.0  0.54258  0.91337  0.23958  1.0000
  C   C4961     1.0  0.63538  0.76667  0.23172  1.0000
  C   C4962     1.0  0.71924  0.84004  0.30773  1.0000
  C   C4963     1.0  0.92305  0.72548  0.29740  1.0000
  C   C4964     1.0  0.54168  0.90490  0.21378  1.0000
  C   C4965     1.0  0.54949  0.90255  0.22775  1.0000
  P   P165      1.0  0.55030  0.89020  0.19916  1.0000
  C   C4966     1.0  0.54723  0.86896  0.21164  1.0000
  C   C4967     1.0  0.68504  0.82955  0.27294  1.0000
  H   H3982     1.0  0.63353  0.76624  0.24541  1.0000
  C   C4968     1.0  0.76703  0.92280  0.23901  1.0000
  S   S680      1.0  0.96602  0.74420  0.37655  1.0000
  H   H3983     1.0  0.74864  0.80490  0.21840  1.0000
  C   C4969     1.0  0.92705  0.66898  0.36714  1.0000
  C   C4970     1.0  0.56140  0.85502  0.21455  1.0000
  C   C4971     1.0  0.55871  0.83856  0.22391  1.0000
  C   C4972     1.0  0.54187  0.83595  0.23052  1.0000
  C   C4973     1.0  0.52772  0.84984  0.22789  1.0000
  C   C4974     1.0  0.53040  0.86633  0.21867  1.0000
  H   H3984     1.0  0.92230  0.65709  0.37170  1.0000
  H   H3985     1.0  0.76427  0.97257  0.22598  1.0000
  C   C4975     1.0  0.62774  0.82063  0.19536  1.0000
  C   C4976     1.0  0.59102  0.79737  0.20419  1.0000
  C   C4977     1.0  0.94058  0.69887  0.35550  1.0000
  C   C4978     1.0  0.92940  0.56560  0.20050  1.0000
  H   H3986     1.0  0.54860  0.91142  0.25039  1.0000
  H   H3987     1.0  0.73728  0.89805  0.38358  1.0000
  C   C4979     1.0  0.73114  0.81579  0.23942  1.0000
  H   H3988     1.0  0.78544  0.92438  0.36106  1.0000
  H   H3989     1.0  0.56086  0.89225  0.22958  1.0000
  H   H3990     1.0  0.98458  0.75032  0.30251  1.0000
  H   H3991     1.0  0.56525  0.79358  0.21667  1.0000
  H   H3992     1.0  0.53055  0.89039  0.33090  1.0000
  S   S681      1.0  0.98830  0.64629  0.38353  1.0000
  C   C4980     1.0  0.88372  0.50776  0.19199  1.0000
  H   H3993     1.0  0.57452  0.85683  0.20994  1.0000
  H   H3994     1.0  0.56970  0.82792  0.22622  1.0000
  H   H3995     1.0  0.53974  0.82325  0.23785  1.0000
  H   H3996     1.0  0.51463  0.84792  0.23305  1.0000
  H   H3997     1.0  0.51936  0.87704  0.21687  1.0000
  H   H3998     1.0  0.71664  0.94955  0.35194  1.0000
  H   H3999     1.0  0.87269  0.50390  0.19070  1.0000
  C   C4981     1.0  0.92230  0.71337  0.31343  1.0000
  H   H4000     1.0  0.56889  0.94119  0.19377  1.0000
  P   P166      1.0  0.95594  0.54461  0.36237  1.0000
  H   H4001     1.0  0.87374  0.93570  0.27445  1.0000
  H   H4002     1.0  0.93543  0.72746  0.28921  1.0000
  C   C4982     1.0  0.70331  0.98331  0.22191  1.0000
  C   C4983     1.0  0.94262  0.54909  0.34661  1.0000
  C   C4984     1.0  0.90783  0.73508  0.29178  1.0000
  H   H4003     1.0  0.97162  0.67188  0.32447  1.0000
  H   H4004     1.0  0.50756  0.93821  0.22310  1.0000
  C   C4985     1.0  0.65681  0.83612  0.29193  1.0000
  H   H4005     1.0  0.95460  0.75682  0.31953  1.0000
  C   C4986     1.0  0.57321  0.80018  0.20532  1.0000
  S   S682      1.0  0.51242  0.96033  0.29448  1.0000
  C   C4987     1.0  0.67471  0.98388  0.28812  1.0000
  H   H4006     1.0  0.92852  0.67045  0.34027  1.0000
  H   H4007     1.0  0.60237  0.83754  0.19367  1.0000
  C   C4988     1.0  0.81258  0.84290  0.34147  1.0000
  C   C4989     1.0  0.82448  0.84788  0.32632  1.0000
  C   C4990     1.0  0.84142  0.84715  0.32710  1.0000
  C   C4991     1.0  0.84659  0.84147  0.34315  1.0000
  C   C4992     1.0  0.51515  0.87104  0.34041  1.0000
  P   P167      1.0  0.86820  0.84149  0.34444  1.0000
  C   C4993     1.0  0.88096  0.81978  0.35118  1.0000
  C   C4994     1.0  0.87890  0.85206  0.32343  1.0000
  C   C4995     1.0  0.88875  0.84232  0.31104  1.0000
  C   C4996     1.0  0.89676  0.85063  0.29467  1.0000
  C   C4997     1.0  0.70985  0.96143  0.35629  1.0000
  C   C4998     1.0  0.88465  0.87849  0.30259  1.0000
  C   C4999     1.0  0.87667  0.87024  0.31899  1.0000
  C   C5000     1.0  0.89912  0.81682  0.34758  1.0000
  C   C5001     1.0  0.90914  0.80043  0.35354  1.0000
  C   C5002     1.0  0.90116  0.78676  0.36310  1.0000
  C   C5003     1.0  0.89541  0.49595  0.20171  1.0000
  C   C5004     1.0  0.87305  0.80589  0.36071  1.0000
  C   C5005     1.0  0.86729  0.85390  0.35979  1.0000
  C   C5006     1.0  0.89175  0.73265  0.30211  1.0000
  C   C5007     1.0  0.56560  0.81168  0.19190  1.0000
  C   C5008     1.0  0.80897  0.96450  0.29046  1.0000
  C   C5009     1.0  0.71626  0.79581  0.26240  1.0000
  C   C5010     1.0  0.88261  0.85381  0.36426  1.0000
  S   S683      1.0  0.94346  0.82442  0.32669  1.0000
  C   C5011     1.0  0.81753  0.83733  0.35748  1.0000
  H   H4008     1.0  0.82036  0.85286  0.31403  1.0000
  H   H4009     1.0  0.85021  0.85150  0.31519  1.0000
  H   H4010     1.0  0.95743  0.60368  0.36432  1.0000
  H   H4011     1.0  0.89036  0.82833  0.31402  1.0000
  H   H4012     1.0  0.90470  0.84303  0.28531  1.0000
  C   C5012     1.0  0.69777  0.97705  0.37956  1.0000
  C   C5013     1.0  0.93016  0.67633  0.37908  1.0000
  H   H4013     1.0  0.67319  0.97746  0.19365  1.0000
  H   H4014     1.0  0.87405  0.98248  0.33698  1.0000
  S   S684      1.0  0.98557  0.60817  0.38002  1.0000
  H   H4015     1.0  0.63810  0.95268  0.38374  1.0000
  H   H4016     1.0  0.69483  0.98540  0.23415  1.0000
  H   H4017     1.0  0.71037  0.94960  0.38304  1.0000
  H   H4018     1.0  0.51727  0.97402  0.33258  1.0000
  C   C5014     1.0  0.70620  0.96155  0.37391  1.0000
  C   C5015     1.0  0.88226  0.86373  0.37567  1.0000
  H   H4019     1.0  0.61589  0.97298  0.33273  1.0000
  C   C5016     1.0  0.85129  0.87412  0.37835  1.0000
  H   H4020     1.0  0.98778  0.84478  0.35997  1.0000
  C   C5017     1.0  0.75935  0.98281  0.33111  1.0000
  H   H4021     1.0  0.92430  0.53238  0.38096  1.0000
  H   H4022     1.0  0.97906  0.51462  0.38022  1.0000
  H   H4023     1.0  0.83926  0.88255  0.38330  1.0000
  C   C5018     1.0  0.99085  0.54599  0.35587  1.0000
  C   C5019     1.0  0.60386  0.98669  0.25729  1.0000
  C   C5020     1.0  0.53014  0.82793  0.38372  1.0000
  H   H4024     1.0  0.68655  0.86454  0.54222  1.0000
  C   C5021     1.0  0.93579  0.97117  0.43129  1.0000
  C   C5022     1.0  0.66500  0.94163  0.42322  1.0000
  C   C5023     1.0  0.93483  0.70670  0.53034  1.0000
  H   H4025     1.0  0.79686  0.92719  0.56463  1.0000
  C   C5024     1.0  0.93245  0.72017  0.44290  1.0000
  H   H4026     1.0  0.93835  0.70577  0.54244  1.0000
  C   C5025     1.0  0.87501  0.98170  0.46940  1.0000
  C   C5026     1.0  0.93289  0.72202  0.45929  1.0000
  C   C5027     1.0  0.80548  0.94943  0.56521  1.0000
  S   S685      1.0  0.95175  0.80339  0.49218  1.0000
  H   H4027     1.0  0.66030  0.93285  0.41891  1.0000
  Fe  Fe340     1.0  0.94007  0.79166  0.51956  1.0000
  H   H4028     1.0  0.92565  0.73446  0.52570  1.0000
  S   S686      1.0  0.91603  0.80685  0.53425  1.0000
  H   H4029     1.0  0.86647  0.88187  0.39118  1.0000
  H   H4030     1.0  0.64920  0.92499  0.56592  1.0000
  H   H4031     1.0  0.93049  0.92967  0.42144  1.0000
  S   S687      1.0  0.93737  0.76795  0.51313  1.0000
  C   C5028     1.0  0.67621  0.95166  0.41142  1.0000
  H   H4032     1.0  0.94247  0.72679  0.41517  1.0000
  H   H4033     1.0  0.82933  0.84875  0.40650  1.0000
  Fe  Fe341     1.0  0.69127  0.90779  0.49694  1.0000
  S   S688      1.0  0.69476  0.92735  0.50922  1.0000
  S   S689      1.0  0.67255  0.89014  0.50683  1.0000
  Fe  Fe342     1.0  0.71994  0.91482  0.46515  1.0000
  S   S690      1.0  0.72614  0.93498  0.47473  1.0000
  S   S691      1.0  0.73595  0.90811  0.43982  1.0000
  Fe  Fe343     1.0  0.72327  0.91645  0.50072  1.0000
  S   S692      1.0  0.74105  0.91238  0.51878  1.0000
  Fe  Fe344     1.0  0.69738  0.94423  0.48223  1.0000
  H   H4034     1.0  0.87265  0.84018  0.42980  1.0000
  S   S693      1.0  0.71966  0.89534  0.49065  1.0000
  S   S694      1.0  0.69140  0.92557  0.47056  1.0000
  Fe  Fe345     1.0  0.87367  0.90071  0.49519  1.0000
  S   S695      1.0  0.86494  0.89863  0.47247  1.0000
  S   S696      1.0  0.90044  0.88724  0.49951  1.0000
  Fe  Fe346     1.0  0.84334  0.93063  0.50300  1.0000
  S   S697      1.0  0.83190  0.93091  0.48096  1.0000
  S   S698      1.0  0.83129  0.95111  0.51887  1.0000
  Fe  Fe347     1.0  0.83848  0.90189  0.48993  1.0000
  S   S699      1.0  0.82085  0.88606  0.48857  1.0000
  Fe  Fe348     1.0  0.85918  0.92770  0.46556  1.0000
  S   S700      1.0  0.87049  0.94311  0.43978  1.0000
  S   S701      1.0  0.84768  0.90163  0.51348  1.0000
  S   S702      1.0  0.87001  0.92959  0.48678  1.0000
  C   C5029     1.0  0.66622  0.95394  0.44625  1.0000
  C   C5030     1.0  0.86036  0.94451  0.42308  1.0000
  C   C5031     1.0  0.86965  0.94736  0.40591  1.0000
  H   H4035     1.0  0.95598  0.78910  0.40227  1.0000
  C   C5032     1.0  0.97389  0.71097  0.48699  1.0000
  C   C5033     1.0  0.83562  0.94351  0.41303  1.0000
  C   C5034     1.0  0.84327  0.94271  0.42667  1.0000
  C   C5035     1.0  0.92930  0.91667  0.57615  1.0000
  C   C5036     1.0  0.84527  0.94542  0.39591  1.0000
  H   H4036     1.0  0.82242  0.94213  0.41579  1.0000
  H   H4037     1.0  0.83597  0.94075  0.43992  1.0000
  C   C5037     1.0  0.84600  0.96197  0.52096  1.0000
  C   C5038     1.0  0.86377  0.95477  0.51774  1.0000
  C   C5039     1.0  0.98232  0.65522  0.42806  1.0000
  C   C5040     1.0  0.93730  0.61582  0.45722  1.0000
  H   H4038     1.0  0.92682  0.92409  0.46583  1.0000
  C   C5041     1.0  0.51115  0.94271  0.55190  1.0000
  H   H4039     1.0  0.86852  0.94237  0.51422  1.0000
  H   H4040     1.0  0.93255  0.82372  0.45907  1.0000
  H   H4041     1.0  0.94380  0.73426  0.47268  1.0000
  S   S703      1.0  0.96294  0.63902  0.50509  1.0000
  C   C5042     1.0  0.96591  0.51287  0.38506  1.0000
  C   C5043     1.0  0.91588  0.89012  0.40062  1.0000
  C   C5044     1.0  0.76318  0.90478  0.51045  1.0000
  C   C5045     1.0  0.76867  0.89944  0.49471  1.0000
  C   C5046     1.0  0.78641  0.89364  0.48817  1.0000
  C   C5047     1.0  0.79875  0.89359  0.49704  1.0000
  C   C5048     1.0  0.79329  0.89908  0.51272  1.0000
  C   C5049     1.0  0.77551  0.90446  0.51951  1.0000
  H   H4042     1.0  0.75924  0.89966  0.48766  1.0000
  H   H4043     1.0  0.79065  0.88930  0.47615  1.0000
  H   H4044     1.0  0.80275  0.89895  0.51969  1.0000
  H   H4045     1.0  0.77130  0.90865  0.53166  1.0000
  C   C5050     1.0  0.71102  0.90418  0.39780  1.0000
  C   C5051     1.0  0.92072  0.76692  0.40096  1.0000
  C   C5052     1.0  0.73639  0.90261  0.40840  1.0000
  C   C5053     1.0  0.72594  0.90639  0.42407  1.0000
  C   C5054     1.0  0.70796  0.90887  0.42670  1.0000
  C   C5055     1.0  0.70056  0.90764  0.41362  1.0000
  H   H4046     1.0  0.95104  0.87127  0.46370  1.0000
  H   H4047     1.0  0.75028  0.90050  0.40636  1.0000
  H   H4048     1.0  0.69977  0.91162  0.43879  1.0000
  H   H4049     1.0  0.68672  0.90928  0.41579  1.0000
  C   C5056     1.0  0.91160  0.82920  0.52456  1.0000
  C   C5057     1.0  0.89459  0.83916  0.52745  1.0000
  C   C5058     1.0  0.89091  0.85698  0.51952  1.0000
  C   C5059     1.0  0.90432  0.86490  0.50901  1.0000
  C   C5060     1.0  0.92130  0.85500  0.50632  1.0000
  C   C5061     1.0  0.92494  0.83719  0.51402  1.0000
  H   H4050     1.0  0.88425  0.83302  0.53565  1.0000
  H   H4051     1.0  0.87777  0.86461  0.52169  1.0000
  H   H4052     1.0  0.93166  0.86106  0.49813  1.0000
  H   H4053     1.0  0.93813  0.82971  0.51211  1.0000
  C   C5062     1.0  0.68270  0.96271  0.41705  1.0000
  C   C5063     1.0  0.87567  0.74851  0.47240  1.0000
  H   H4054     1.0  0.87159  0.76010  0.46290  1.0000
  H   H4055     1.0  0.97552  0.62207  0.41793  1.0000
  H   H4056     1.0  0.65503  0.96436  0.50790  1.0000
  C   C5064     1.0  0.54575  0.97649  0.55911  1.0000
  C   C5065     1.0  0.86426  0.74410  0.48816  1.0000
  C   C5066     1.0  0.96726  0.79041  0.44458  1.0000
  C   C5067     1.0  0.97693  0.84185  0.42212  1.0000
  H   H4057     1.0  0.98447  0.64131  0.43012  1.0000
  H   H4058     1.0  0.89057  0.70826  0.50765  1.0000
  H   H4059     1.0  0.94113  0.60167  0.39485  1.0000
  C   C5068     1.0  0.94022  0.89764  0.46564  1.0000
  C   C5069     1.0  0.86963  0.72948  0.50073  1.0000
  H   H4060     1.0  0.79031  0.93341  0.49468  1.0000
  C   C5070     1.0  0.55525  0.98196  0.54227  1.0000
  C   C5071     1.0  0.66004  0.94274  0.44064  1.0000
  S   S704      1.0  0.98216  0.80914  0.39334  1.0000
  H   H4061     1.0  0.91540  0.74262  0.40141  1.0000
  C   C5072     1.0  0.79588  0.90912  0.40732  1.0000
  H   H4062     1.0  0.76235  0.93864  0.48608  1.0000
  C   C5073     1.0  0.88643  0.71930  0.49757  1.0000
  C   C5074     1.0  0.83210  0.97324  0.46987  1.0000
  Fe  Fe349     1.0  0.98477  0.65146  0.48889  1.0000
  H   H4063     1.0  0.98740  0.80282  0.42786  1.0000
  H   H4064     1.0  0.77263  0.96355  0.45629  1.0000
  C   C5075     1.0  0.78159  0.95390  0.50874  1.0000
  H   H4065     1.0  0.86663  0.80020  0.40866  1.0000
  C   C5076     1.0  0.76406  0.94696  0.49338  1.0000
  H   H4066     1.0  0.92437  0.71233  0.44182  1.0000
  H   H4067     1.0  0.90120  0.74223  0.45700  1.0000
  H   H4068     1.0  0.71735  0.94397  0.41545  1.0000
  S   S705      1.0  0.61080  0.88473  0.57257  1.0000
  C   C5077     1.0  0.97321  0.56013  0.55514  1.0000
  C   C5078     1.0  0.62768  0.88783  0.55423  1.0000
  C   C5079     1.0  0.63327  0.87523  0.54431  1.0000
  C   C5080     1.0  0.64685  0.87648  0.52981  1.0000
  C   C5081     1.0  0.65513  0.89032  0.52496  1.0000
  C   C5082     1.0  0.64948  0.90327  0.53466  1.0000
  C   C5083     1.0  0.63565  0.90202  0.54935  1.0000
  H   H4069     1.0  0.62715  0.86430  0.54794  1.0000
  H   H4070     1.0  0.65109  0.86650  0.52237  1.0000
  H   H4071     1.0  0.65588  0.91399  0.53099  1.0000
  H   H4072     1.0  0.90706  0.94765  0.53922  1.0000
  S   S706      1.0  0.97761  0.76525  0.49077  1.0000
  C   C5084     1.0  0.91064  0.75450  0.40617  1.0000
  H   H4073     1.0  0.89632  0.88880  0.38860  1.0000
  C   C5085     1.0  0.97679  0.79734  0.42845  1.0000
  C   C5086     1.0  0.77973  0.94386  0.49845  1.0000
  H   H4074     1.0  0.88344  0.97086  0.44674  1.0000
  H   H4075     1.0  0.87069  0.88990  0.43295  1.0000
  H   H4076     1.0  0.91355  0.97084  0.47152  1.0000
  C   C5087     1.0  0.71758  0.97121  0.40454  1.0000
  C   C5088     1.0  0.90726  0.88513  0.54238  1.0000
  H   H4077     1.0  0.90252  0.92244  0.45432  1.0000
  H   H4078     1.0  0.70060  0.96094  0.50607  1.0000
  C   C5089     1.0  0.94144  0.56165  0.39009  1.0000
  H   H4079     1.0  0.84996  0.87604  0.45740  1.0000
  H   H4080     1.0  0.86532  0.88147  0.55239  1.0000
  H   H4081     1.0  0.73970  0.96697  0.54489  1.0000
  C   C5090     1.0  0.90741  0.94612  0.48546  1.0000
  C   C5091     1.0  0.64355  0.96892  0.55595  1.0000
  C   C5092     1.0  0.90033  0.98652  0.39114  1.0000
  H   H4082     1.0  0.98677  0.55377  0.50962  1.0000
  H   H4083     1.0  0.65160  0.93477  0.44985  1.0000
  C   C5093     1.0  0.83527  0.90308  0.41472  1.0000
  P   P168      1.0  0.92007  0.71110  0.47866  1.0000
  C   C5094     1.0  0.92618  0.65442  0.47589  1.0000
  C   C5095     1.0  0.77463  0.93105  0.43725  1.0000
  H   H4084     1.0  0.95140  0.83980  0.46970  1.0000
  C   C5096     1.0  0.92383  0.72429  0.50487  1.0000
  C   C5097     1.0  0.92704  0.88127  0.45437  1.0000
  H   H4085     1.0  0.77745  0.94396  0.54460  1.0000
  C   C5098     1.0  0.91317  0.91124  0.45622  1.0000
  H   H4086     1.0  0.90067  0.82701  0.39335  1.0000
  H   H4087     1.0  0.54035  0.95398  0.57906  1.0000
  C   C5099     1.0  0.75054  0.96068  0.49780  1.0000
  H   H4088     1.0  0.98401  0.84187  0.40886  1.0000
  H   H4089     1.0  0.98583  0.86673  0.50809  1.0000
  C   C5100     1.0  0.70012  0.97470  0.50133  1.0000
  C   C5101     1.0  0.97240  0.79744  0.41313  1.0000
  H   H4090     1.0  0.66251  0.98287  0.55474  1.0000
  H   H4091     1.0  0.81976  0.88075  0.45526  1.0000
  H   H4092     1.0  0.94222  0.82403  0.42844  1.0000
  C   C5102     1.0  0.95332  0.73820  0.42904  1.0000
  C   C5103     1.0  0.89754  0.86936  0.41252  1.0000
  C   C5104     1.0  0.92710  0.70940  0.49825  1.0000
  H   H4093     1.0  0.91900  0.50606  0.40338  1.0000
  C   C5105     1.0  0.88863  0.77268  0.42380  1.0000
  P   P169      1.0  0.89091  0.80475  0.42716  1.0000
  C   C5106     1.0  0.88754  0.79777  0.45058  1.0000
  C   C5107     1.0  0.68454  0.90164  0.56406  1.0000
  S   S707      1.0  0.96557  0.77851  0.52762  1.0000
  H   H4094     1.0  0.96128  0.74442  0.41737  1.0000
  C   C5108     1.0  0.85038  0.84623  0.41857  1.0000
  C   C5109     1.0  0.93810  0.69181  0.52390  1.0000
  C   C5110     1.0  0.89927  0.78347  0.45815  1.0000
  C   C5111     1.0  0.89698  0.77797  0.47622  1.0000
  C   C5112     1.0  0.88294  0.78662  0.48691  1.0000
  C   C5113     1.0  0.87109  0.80076  0.47953  1.0000
  C   C5114     1.0  0.87334  0.80632  0.46145  1.0000
  C   C5115     1.0  0.87143  0.81855  0.42036  1.0000
  C   C5116     1.0  0.86218  0.81287  0.41177  1.0000
  H   H4095     1.0  0.91985  0.90078  0.39036  1.0000
  C   C5117     1.0  0.97362  0.71413  0.51561  1.0000
  C   C5118     1.0  0.93209  0.94129  0.42403  1.0000
  H   H4096     1.0  0.79373  0.95104  0.51285  1.0000
  C   C5119     1.0  0.97120  0.72157  0.49862  1.0000
  H   H4097     1.0  0.95317  0.65447  0.46565  1.0000
  C   C5120     1.0  0.93798  0.57567  0.39798  1.0000
  C   C5121     1.0  0.87201  0.93448  0.57721  1.0000
  H   H4098     1.0  0.87625  0.77471  0.43273  1.0000
  H   H4099     1.0  0.83972  0.81912  0.40063  1.0000
  H   H4100     1.0  0.92128  0.62423  0.43822  1.0000
  H   H4101     1.0  0.68262  0.97203  0.43932  1.0000
  H   H4102     1.0  0.91047  0.77675  0.45013  1.0000
  H   H4103     1.0  0.90640  0.76725  0.48190  1.0000
  H   H4104     1.0  0.88141  0.78252  0.50092  1.0000
  H   H4105     1.0  0.86026  0.80757  0.48785  1.0000
  H   H4106     1.0  0.86398  0.81731  0.45617  1.0000
  C   C5122     1.0  0.62790  0.96985  0.52008  1.0000
  H   H4107     1.0  0.75352  0.87531  0.46934  1.0000
  H   H4108     1.0  0.86066  0.91372  0.54373  1.0000
  H   H4109     1.0  0.88277  0.94908  0.40307  1.0000
  H   H4110     1.0  0.98365  0.67136  0.51387  1.0000
  H   H4111     1.0  0.94954  0.68529  0.46574  1.0000
  H   H4112     1.0  0.89483  0.68882  0.48681  1.0000
  C   C5123     1.0  0.65970  0.97020  0.55716  1.0000
  C   C5124     1.0  0.97393  0.87593  0.51191  1.0000
  H   H4113     1.0  0.88739  0.86397  0.41156  1.0000
  H   H4114     1.0  0.95074  0.69207  0.42364  1.0000
  C   C5125     1.0  0.90982  0.93193  0.49952  1.0000
  C   C5126     1.0  0.54728  0.95857  0.56612  1.0000
  H   H4115     1.0  0.71151  0.97619  0.52141  1.0000
  C   C5127     1.0  0.89856  0.78535  0.41844  1.0000
  C   C5128     1.0  0.76788  0.94624  0.44357  1.0000
  H   H4116     1.0  0.84144  0.96498  0.47750  1.0000
  H   H4117     1.0  0.79805  0.84034  0.44688  1.0000
  H   H4118     1.0  0.93088  0.57483  0.41131  1.0000
  H   H4119     1.0  0.96693  0.73544  0.49448  1.0000
  H   H4120     1.0  0.86783  0.97187  0.47695  1.0000
  C   C5129     1.0  0.56774  0.95194  0.54017  1.0000
  C   C5130     1.0  0.93825  0.67965  0.46991  1.0000
  H   H4121     1.0  0.89881  0.65805  0.48644  1.0000
  P   P170      1.0  0.69547  0.97738  0.40199  1.0000
  H   H4122     1.0  0.67971  0.95073  0.39801  1.0000
  H   H4123     1.0  0.52984  0.95852  0.53898  1.0000
  C   C5131     1.0  0.89795  0.72352  0.48169  1.0000
  S   S708      1.0  0.98093  0.68019  0.47747  1.0000
  H   H4124     1.0  0.94404  0.67928  0.53107  1.0000
  C   C5132     1.0  0.90721  0.81746  0.41875  1.0000
  H   H4125     1.0  0.80625  0.98492  0.51255  1.0000
  C   C5133     1.0  0.90929  0.82673  0.40137  1.0000
  C   C5134     1.0  0.93437  0.69313  0.50788  1.0000
  C   C5135     1.0  0.98218  0.52973  0.56867  1.0000
  C   C5136     1.0  0.50511  0.97065  0.53202  1.0000
  H   H4126     1.0  0.60158  0.97876  0.53295  1.0000
  Fe  Fe350     1.0  0.97467  0.61852  0.48942  1.0000
  C   C5137     1.0  0.91029  0.81930  0.47893  1.0000
  C   C5138     1.0  0.92186  0.68949  0.47612  1.0000
  H   H4127     1.0  0.85188  0.97650  0.56328  1.0000
  H   H4128     1.0  0.93689  0.55010  0.39759  1.0000
  C   C5139     1.0  0.77786  0.95183  0.45131  1.0000
  S   S709      1.0  0.68570  0.97296  0.47569  1.0000
  C   C5140     1.0  0.90757  0.68167  0.48187  1.0000
  C   C5141     1.0  0.94289  0.89906  0.52260  1.0000
  S   S710      1.0  0.95688  0.60686  0.48170  1.0000
  H   H4129     1.0  0.93731  0.68137  0.50317  1.0000
  C   C5142     1.0  0.93495  0.83403  0.40364  1.0000
  C   C5143     1.0  0.96281  0.49802  0.39783  1.0000
  H   H4130     1.0  0.73849  0.96318  0.49361  1.0000
  C   C5144     1.0  0.81448  0.97416  0.47665  1.0000
  C   C5145     1.0  0.94332  0.88761  0.51254  1.0000
  C   C5146     1.0  0.73740  0.92982  0.56505  1.0000
  C   C5147     1.0  0.79571  0.94111  0.56005  1.0000
  H   H4131     1.0  0.83137  0.91115  0.40292  1.0000
  H   H4132     1.0  0.80205  0.94620  0.45935  1.0000
  H   H4133     1.0  0.95052  0.89830  0.47112  1.0000
  H   H4134     1.0  0.76890  0.84537  0.46614  1.0000
  H   H4135     1.0  0.68411  0.95654  0.56367  1.0000
  H   H4136     1.0  0.76756  0.95589  0.39954  1.0000
  H   H4137     1.0  0.75486  0.95357  0.44256  1.0000
  C   C5148     1.0  0.84604  0.88325  0.44529  1.0000
  H   H4138     1.0  0.90350  0.92136  0.50167  1.0000
  C   C5149     1.0  0.79914  0.92498  0.39646  1.0000
  C   C5150     1.0  0.75254  0.97107  0.50767  1.0000
  H   H4139     1.0  0.96211  0.74758  0.44637  1.0000
  C   C5151     1.0  0.90476  0.90330  0.53677  1.0000
  C   C5152     1.0  0.90975  0.66419  0.48170  1.0000
  C   C5153     1.0  0.94816  0.95558  0.43420  1.0000
  H   H4140     1.0  0.99001  0.56986  0.53164  1.0000
  H   H4141     1.0  0.76676  0.92682  0.43133  1.0000
  H   H4142     1.0  0.97350  0.48847  0.40267  1.0000
  C   C5154     1.0  0.49415  0.94119  0.55413  1.0000
  C   C5155     1.0  0.86337  0.94916  0.56683  1.0000
  C   C5156     1.0  0.85238  0.90069  0.41617  1.0000
  S   S711      1.0  0.97065  0.72732  0.53023  1.0000
  C   C5157     1.0  0.87626  0.88759  0.54848  1.0000
  C   C5158     1.0  0.92312  0.83493  0.39388  1.0000
  C   C5159     1.0  0.94041  0.88225  0.46143  1.0000
  C   C5160     1.0  0.75363  0.96023  0.40123  1.0000
  H   H4143     1.0  0.76701  0.89992  0.45401  1.0000
  C   C5161     1.0  0.79440  0.94199  0.45313  1.0000
  C   C5162     1.0  0.97825  0.69287  0.49242  1.0000
  C   C5163     1.0  0.76786  0.96742  0.51368  1.0000
  C   C5164     1.0  0.64000  0.95257  0.55876  1.0000
  C   C5165     1.0  0.78484  0.95065  0.54852  1.0000
  H   H4144     1.0  0.51999  0.93256  0.55901  1.0000
  H   H4145     1.0  0.81388  0.91928  0.44873  1.0000
  C   C5166     1.0  0.96775  0.61533  0.44596  1.0000
  H   H4146     1.0  0.92304  0.79146  0.40293  1.0000
  H   H4147     1.0  0.91829  0.73698  0.49771  1.0000
  C   C5167     1.0  0.93516  0.52280  0.38551  1.0000
  C   C5168     1.0  0.95938  0.78926  0.41393  1.0000
  C   C5169     1.0  0.80106  0.92664  0.44705  1.0000
  H   H4148     1.0  0.93720  0.98261  0.43441  1.0000
  C   C5170     1.0  0.91315  0.94494  0.56371  1.0000
  C   C5171     1.0  0.69337  0.98383  0.48658  1.0000
  C   C5172     1.0  0.86948  0.97934  0.52438  1.0000
  C   C5173     1.0  0.89247  0.73828  0.46912  1.0000
  C   C5174     1.0  0.95378  0.74003  0.44530  1.0000
  H   H4149     1.0  0.91475  0.80525  0.48130  1.0000
  C   C5175     1.0  0.98494  0.83233  0.43596  1.0000
  C   C5176     1.0  0.92777  0.72293  0.52081  1.0000
  H   H4150     1.0  0.59796  0.96274  0.57581  1.0000
  H   H4151     1.0  0.92798  0.64073  0.47640  1.0000
  C   C5177     1.0  0.94039  0.66218  0.46986  1.0000
  C   C5178     1.0  0.86216  0.94770  0.39238  1.0000
  C   C5179     1.0  0.92048  0.82990  0.46641  1.0000
  C   C5180     1.0  0.85771  0.89097  0.43152  1.0000
  C   C5181     1.0  0.78841  0.89904  0.40139  1.0000
  C   C5182     1.0  0.93211  0.50793  0.39825  1.0000
  C   C5183     1.0  0.67166  0.89190  0.57004  1.0000
  C   C5184     1.0  0.86557  0.83544  0.42344  1.0000
  H   H4152     1.0  0.62743  0.95156  0.55797  1.0000
  H   H4153     1.0  0.88705  0.81856  0.49879  1.0000
  H   H4154     1.0  0.70607  0.93504  0.54318  1.0000
  C   C5185     1.0  0.92672  0.91215  0.46287  1.0000
  C   C5186     1.0  0.94337  0.73230  0.46033  1.0000
  C   C5187     1.0  0.94260  0.72832  0.42783  1.0000
  H   H4155     1.0  0.93168  0.88755  0.50883  1.0000
  C   C5188     1.0  0.82887  0.88587  0.44400  1.0000
  H   H4156     1.0  0.78512  0.88708  0.40961  1.0000
  H   H4157     1.0  0.81167  0.86517  0.43087  1.0000
  C   C5189     1.0  0.77501  0.85618  0.45928  1.0000
  C   C5190     1.0  0.76636  0.87301  0.46117  1.0000
  C   C5191     1.0  0.77406  0.88707  0.45228  1.0000
  C   C5192     1.0  0.79054  0.88440  0.44142  1.0000
  C   C5193     1.0  0.79910  0.86745  0.43943  1.0000
  P   P171      1.0  0.80031  0.90250  0.42898  1.0000
  C   C5194     1.0  0.79132  0.92119  0.43876  1.0000
  C   C5195     1.0  0.82324  0.89613  0.42884  1.0000
  H   H4158     1.0  0.98561  0.88786  0.52464  1.0000
  C   C5196     1.0  0.92251  0.92185  0.54782  1.0000
  C   C5197     1.0  0.87545  0.96339  0.51951  1.0000
  H   H4159     1.0  0.91786  0.80959  0.44198  1.0000
  C   C5198     1.0  0.96345  0.68387  0.42438  1.0000
  C   C5199     1.0  0.98427  0.59852  0.56159  1.0000
  H   H4160     1.0  0.95952  0.54725  0.57951  1.0000
  H   H4161     1.0  0.86129  0.90708  0.40563  1.0000
  H   H4162     1.0  0.95851  0.90864  0.53362  1.0000
  H   H4163     1.0  0.62634  0.95693  0.52096  1.0000
  C   C5200     1.0  0.65245  0.93749  0.56319  1.0000
  C   C5201     1.0  0.67262  0.87832  0.56245  1.0000
  H   H4164     1.0  0.98094  0.57310  0.48187  1.0000
  H   H4165     1.0  0.75036  0.93184  0.56273  1.0000
  C   C5202     1.0  0.72887  0.93455  0.55130  1.0000
  H   H4166     1.0  0.89508  0.86326  0.55191  1.0000
  C   C5203     1.0  0.74314  0.94816  0.40846  1.0000
  C   C5204     1.0  0.72517  0.95363  0.41034  1.0000
  C   C5205     1.0  0.95841  0.84052  0.45634  1.0000
  H   H4167     1.0  0.93392  0.88901  0.41569  1.0000
  C   C5206     1.0  0.56615  0.96973  0.53287  1.0000
  H   H4168     1.0  0.74890  0.93443  0.41202  1.0000
  C   C5207     1.0  0.85837  0.96519  0.57160  1.0000
  H   H4169     1.0  0.97992  0.69017  0.53420  1.0000
  C   C5208     1.0  0.92881  0.94510  0.50710  1.0000
  H   H4170     1.0  0.94610  0.83978  0.39758  1.0000
  C   C5209     1.0  0.91886  0.81696  0.42867  1.0000
  C   C5210     1.0  0.90543  0.86257  0.42683  1.0000
  C   C5211     1.0  0.91329  0.89586  0.45202  1.0000
  H   H4171     1.0  0.66245  0.95484  0.45976  1.0000
  C   C5212     1.0  0.67774  0.96364  0.43461  1.0000
  H   H4172     1.0  0.97245  0.71677  0.47378  1.0000
  C   C5213     1.0  0.51667  0.95736  0.54073  1.0000
  C   C5214     1.0  0.72899  0.90144  0.39536  1.0000
  H   H4173     1.0  0.98032  0.51879  0.57951  1.0000
  H   H4174     1.0  0.93608  0.89718  0.56117  1.0000
  Fe  Fe351     1.0  0.98182  0.62353  0.52206  1.0000
  H   H4175     1.0  0.95599  0.92861  0.43261  1.0000
  H   H4176     1.0  0.57359  0.97406  0.52000  1.0000
  C   C5215     1.0  0.64406  0.97399  0.51278  1.0000
  C   C5216     1.0  0.88386  0.98119  0.45232  1.0000
  C   C5217     1.0  0.93270  0.82522  0.42107  1.0000
  C   C5218     1.0  0.70628  0.98335  0.51002  1.0000
  H   H4177     1.0  0.84593  0.85923  0.42104  1.0000
  C   C5219     1.0  0.98039  0.68533  0.50950  1.0000
  C   C5220     1.0  0.89463  0.82677  0.48867  1.0000
  C   C5221     1.0  0.95965  0.85091  0.42537  1.0000
  P   P172      1.0  0.92795  0.86202  0.44725  1.0000
  C   C5222     1.0  0.91369  0.93893  0.54921  1.0000
  P   P173      1.0  0.92282  0.91381  0.52939  1.0000
  C   C5223     1.0  0.84696  0.82368  0.40697  1.0000
  H   H4178     1.0  0.90114  0.85195  0.43682  1.0000
  C   C5224     1.0  0.96585  0.66582  0.42738  1.0000
  H   H4179     1.0  0.93330  0.76460  0.39230  1.0000
  C   C5225     1.0  0.70421  0.92365  0.57075  1.0000
  H   H4180     1.0  0.88916  0.95788  0.51688  1.0000
  H   H4181     1.0  0.85131  0.75214  0.49074  1.0000
  C   C5226     1.0  0.89463  0.75734  0.41764  1.0000
  H   H4182     1.0  0.97033  0.79095  0.45639  1.0000
  S   S712      1.0  0.94358  0.63254  0.40510  1.0000
  H   H4183     1.0  0.66069  0.89489  0.58040  1.0000
  C   C5227     1.0  0.95874  0.87594  0.50742  1.0000
  C   C5228     1.0  0.96482  0.62056  0.42889  1.0000
  H   H4184     1.0  0.90831  0.95678  0.41692  1.0000
  H   H4185     1.0  0.92010  0.87687  0.54214  1.0000
  C   C5229     1.0  0.88899  0.84487  0.48570  1.0000
  H   H4186     1.0  0.96449  0.57276  0.55547  1.0000
  C   C5230     1.0  0.68625  0.87451  0.54865  1.0000
  H   H4187     1.0  0.92663  0.61374  0.46811  1.0000
  H   H4188     1.0  0.57644  0.94243  0.53306  1.0000
  H   H4189     1.0  0.80447  0.93321  0.40087  1.0000
  H   H4190     1.0  0.95887  0.86677  0.50010  1.0000
  C   C5231     1.0  0.94797  0.62426  0.42610  1.0000
  C   C5232     1.0  0.91518  0.84813  0.46375  1.0000
  H   H4191     1.0  0.87692  0.85069  0.49338  1.0000
  C   C5233     1.0  0.88786  0.91351  0.53802  1.0000
  H   H4192     1.0  0.70961  0.88122  0.53181  1.0000
  C   C5234     1.0  0.83997  0.97784  0.52619  1.0000
  P   P174      1.0  0.77038  0.98085  0.52646  1.0000
  C   C5235     1.0  0.91475  0.78227  0.40703  1.0000
  H   H4193     1.0  0.89921  0.94650  0.47699  1.0000
  H   H4194     1.0  0.66237  0.87121  0.56676  1.0000
  C   C5236     1.0  0.92006  0.93164  0.51080  1.0000
  C   C5237     1.0  0.89931  0.85551  0.47342  1.0000
  C   C5238     1.0  0.93428  0.62168  0.44030  1.0000
  H   H4195     1.0  0.90646  0.95819  0.56454  1.0000
  S   S713      1.0  0.94052  0.77609  0.46520  1.0000
  C   C5239     1.0  0.79141  0.85338  0.44842  1.0000
  H   H4196     1.0  0.89502  0.86946  0.47177  1.0000
  C   C5240     1.0  0.97650  0.59010  0.57808  1.0000
  H   H4197     1.0  0.81042  0.96672  0.48956  1.0000
  H   H4198     1.0  0.88692  0.74760  0.42183  1.0000
  C   C5241     1.0  0.66852  0.93863  0.56502  1.0000
  C   C5242     1.0  0.55824  0.94637  0.55678  1.0000
  H   H4199     1.0  0.95504  0.66001  0.42903  1.0000
  Fe  Fe352     1.0  0.95099  0.77863  0.48650  1.0000
  C   C5243     1.0  0.91561  0.95978  0.48228  1.0000
  H   H4200     1.0  0.90265  0.89546  0.44687  1.0000
  H   H4201     1.0  0.93720  0.94488  0.51532  1.0000
  C   C5244     1.0  0.95021  0.85023  0.44255  1.0000
  C   C5245     1.0  0.84105  0.84033  0.41038  1.0000
  C   C5246     1.0  0.91866  0.86953  0.42814  1.0000
  C   C5247     1.0  0.94641  0.94069  0.43039  1.0000
  H   H4202     1.0  0.93265  0.96989  0.49062  1.0000
  Fe  Fe353     1.0  0.96402  0.75593  0.51804  1.0000
  P   P175      1.0  0.68308  0.91923  0.57403  1.0000
  C   C5248     1.0  0.95348  0.78332  0.44530  1.0000
  H   H4203     1.0  0.73525  0.94001  0.53825  1.0000
  C   C5249     1.0  0.67206  0.95514  0.56194  1.0000
  C   C5250     1.0  0.92992  0.91063  0.56161  1.0000
  C   C5251     1.0  0.59954  0.97404  0.57891  1.0000
  H   H4204     1.0  0.97563  0.70530  0.41919  1.0000
  H   H4205     1.0  0.51307  0.96587  0.57446  1.0000
  C   C5252     1.0  0.94981  0.78231  0.43002  1.0000
  C   C5253     1.0  0.95391  0.61323  0.46015  1.0000
  H   H4206     1.0  0.70862  0.90448  0.54540  1.0000
  C   C5254     1.0  0.72820  0.98323  0.39722  1.0000
  H   H4207     1.0  0.98190  0.82402  0.46373  1.0000
  C   C5255     1.0  0.97825  0.69597  0.52103  1.0000
  C   C5256     1.0  0.71234  0.93155  0.55412  1.0000
  C   C5257     1.0  0.91962  0.95680  0.42128  1.0000
  H   H4208     1.0  0.95911  0.95505  0.43940  1.0000
  H   H4209     1.0  0.93925  0.77666  0.43059  1.0000
  H   H4210     1.0  0.55959  0.93256  0.56263  1.0000
  C   C5258     1.0  0.69916  0.88402  0.54268  1.0000
  H   H4211     1.0  0.86087  0.72617  0.51306  1.0000
  C   C5259     1.0  0.92385  0.88334  0.41488  1.0000
  C   C5260     1.0  0.89303  0.87733  0.54818  1.0000
  S   S714      1.0  0.97338  0.61882  0.55121  1.0000
  H   H4212     1.0  0.63123  0.91185  0.55693  1.0000
  H   H4213     1.0  0.81432  0.94194  0.57368  1.0000
  C   C5261     1.0  0.90262  0.88326  0.39955  1.0000
  C   C5262     1.0  0.92639  0.95922  0.49303  1.0000
  C   C5263     1.0  0.87365  0.90572  0.54354  1.0000
  H   H4214     1.0  0.88575  0.92751  0.53463  1.0000
  C   C5264     1.0  0.69840  0.89744  0.55040  1.0000
  H   H4215     1.0  0.95372  0.85807  0.41445  1.0000
  H   H4216     1.0  0.86057  0.94816  0.55503  1.0000
  H   H4217     1.0  0.98070  0.61277  0.44815  1.0000
  C   C5265     1.0  0.95833  0.89941  0.52655  1.0000
  C   C5266     1.0  0.97570  0.83165  0.45303  1.0000
  C   C5267     1.0  0.97044  0.54578  0.56870  1.0000
  C   C5268     1.0  0.74614  0.97780  0.39567  1.0000
  C   C5269     1.0  0.92168  0.97200  0.42437  1.0000
  C   C5270     1.0  0.97376  0.88778  0.52133  1.0000
  C   C5271     1.0  0.94592  0.49554  0.40440  1.0000
  Fe  Fe354     1.0  0.97720  0.78878  0.49961  1.0000
  C   C5272     1.0  0.98770  0.55845  0.54157  1.0000
  C   C5273     1.0  0.98750  0.70961  0.56827  1.0000
  C   C5274     1.0  0.97753  0.69130  0.42201  1.0000
  H   H4218     1.0  0.96355  0.70843  0.38854  1.0000
  H   H4219     1.0  0.91430  0.98349  0.38708  1.0000
  H   H4220     1.0  0.98037  0.73715  0.56744  1.0000
  H   H4221     1.0  0.97592  0.70700  0.57767  1.0000
  C   C5275     1.0  0.61394  0.98218  0.52674  1.0000
  H   H4222     1.0  0.87600  0.92209  0.57342  1.0000
  C   C5276     1.0  0.78398  0.96853  0.54176  1.0000
  C   C5277     1.0  0.92103  0.93386  0.57714  1.0000
  C   C5278     1.0  0.50536  0.97504  0.58224  1.0000
  H   H4223     1.0  0.53452  0.83297  0.39223  1.0000
  H   H4224     1.0  0.85127  0.98165  0.44773  1.0000
  H   H4225     1.0  0.63371  0.98059  0.55304  1.0000
  H   H4226     1.0  0.50931  0.98218  0.52367  1.0000
  H   H4227     1.0  0.82713  0.98002  0.39011  1.0000
  H   H4228     1.0  0.82630  0.98361  0.52877  1.0000
  H   H4229     1.0  0.71166  0.97935  0.56218  1.0000
  C   C5279     1.0  0.73738  0.97995  0.54689  1.0000
  H   H4230     1.0  0.54713  0.80259  0.38882  1.0000
  C   C5280     1.0  0.79303  0.97697  0.54781  1.0000
  H   H4231     1.0  0.80887  0.98071  0.41934  1.0000
  C   C5281     1.0  0.94372  0.59083  0.38872  1.0000
  C   C5282     1.0  0.80401  0.96737  0.55922  1.0000
  H   H4232     1.0  0.81182  0.97379  0.56292  1.0000
  H   H4233     1.0  0.74210  0.98187  0.51069  1.0000
  C   C5283     1.0  0.83761  0.98273  0.45324  1.0000
  C   C5284     1.0  0.72152  0.98690  0.55682  1.0000
  H   H4234     1.0  0.92776  0.67015  0.39281  1.0000
  C   C5285     1.0  0.80224  0.98467  0.46692  1.0000
  H   H4235     1.0  0.78873  0.98506  0.47261  1.0000
  C   C5286     1.0  0.99001  0.72663  0.56254  1.0000
  H   H4236     1.0  0.88268  0.98571  0.56167  1.0000
  H   H4237     1.0  0.51198  0.92261  0.38431  1.0000
  C   C5287     1.0  0.72934  0.92220  0.58169  1.0000
  C   C5288     1.0  0.78465  0.90458  0.38478  1.0000
  Fe  Fe355     1.0  0.96753  0.63329  0.38401  1.0000
  C   C5289     1.0  0.85167  0.98654  0.52784  1.0000
  H   H4238     1.0  0.66777  0.93462  0.38513  1.0000
  C   C5290     1.0  0.49906  0.92048  0.38665  1.0000
  Fe  Fe356     1.0  0.56711  0.92230  0.60899  1.0000
  S   S715      1.0  0.57937  0.92673  0.62818  1.0000
  S   S716      1.0  0.53853  0.93437  0.61168  1.0000
  S   S717      1.0  0.61596  0.90321  0.61045  1.0000
  Fe  Fe357     1.0  0.59257  0.89863  0.63135  1.0000
  S   S718      1.0  0.59260  0.88311  0.65890  1.0000
  S   S719      1.0  0.57871  0.89375  0.61371  1.0000
  Fe  Fe358     1.0  0.59266  0.93762  0.76251  1.0000
  S   S720      1.0  0.58301  0.94862  0.73788  1.0000
  Fe  Fe359     1.0  0.58339  0.90285  0.76804  1.0000
  S   S721      1.0  0.57356  0.91080  0.74328  1.0000
  H   H4239     1.0  0.87338  0.95255  0.60914  1.0000
  Fe  Fe360     1.0  0.59660  0.92267  0.73154  1.0000
  S   S722      1.0  0.61129  0.92392  0.70380  1.0000
  Fe  Fe361     1.0  0.56082  0.93583  0.75167  1.0000
  S   S723      1.0  0.53333  0.94919  0.75024  1.0000
  S   S724      1.0  0.60797  0.91226  0.75555  1.0000
  H   H4240     1.0  0.63993  0.92659  0.62840  1.0000
  C   C5291     1.0  0.49427  0.92158  0.61232  1.0000
  C   C5292     1.0  0.51562  0.90515  0.76142  1.0000
  H   H4241     1.0  0.63740  0.95527  0.77345  1.0000
  C   C5293     1.0  0.64641  0.88302  0.74413  1.0000
  C   C5294     1.0  0.97444  0.54338  0.70831  1.0000
  C   C5295     1.0  0.64071  0.85407  0.75367  1.0000
  C   C5296     1.0  0.51085  0.83098  0.74036  1.0000
  H   H4242     1.0  0.66183  0.77429  0.76547  1.0000
  C   C5297     1.0  0.64777  0.86680  0.75572  1.0000
  S   S725      1.0  0.98282  0.51266  0.66128  1.0000
  C   C5298     1.0  0.87559  0.93582  0.59243  1.0000
  C   C5299     1.0  0.86179  0.96665  0.58693  1.0000
  C   C5300     1.0  0.63653  0.95954  0.66952  1.0000
  C   C5301     1.0  0.63925  0.96602  0.70537  1.0000
  C   C5302     1.0  0.50644  0.82670  0.77643  1.0000
  H   H4243     1.0  0.59755  0.97098  0.69678  1.0000
  C   C5303     1.0  0.52500  0.85380  0.69097  1.0000
  Fe  Fe362     1.0  0.60158  0.93116  0.60589  1.0000
  C   C5304     1.0  0.51966  0.93458  0.75569  1.0000
  H   H4244     1.0  0.70691  0.91303  0.59749  1.0000
  C   C5305     1.0  0.52629  0.91657  0.75921  1.0000
  C   C5306     1.0  0.52463  0.86163  0.65116  1.0000
  H   H4245     1.0  0.53964  0.91139  0.76011  1.0000
  C   C5307     1.0  0.59737  0.89469  0.67143  1.0000
  C   C5308     1.0  0.60548  0.90860  0.66336  1.0000
  C   C5309     1.0  0.60961  0.91751  0.67343  1.0000
  C   C5310     1.0  0.60538  0.91279  0.69161  1.0000
  C   C5311     1.0  0.59702  0.89902  0.69970  1.0000
  C   C5312     1.0  0.59315  0.88990  0.68962  1.0000
  H   H4246     1.0  0.60881  0.91237  0.64933  1.0000
  H   H4247     1.0  0.61593  0.92819  0.66711  1.0000
  H   H4248     1.0  0.59384  0.89520  0.71370  1.0000
  H   H4249     1.0  0.58681  0.87920  0.69591  1.0000
  H   H4250     1.0  0.52978  0.84540  0.73783  1.0000
  C   C5313     1.0  0.50199  0.94102  0.75578  1.0000
  C   C5314     1.0  0.49437  0.86231  0.65409  1.0000
  C   C5315     1.0  0.52049  0.83828  0.74680  1.0000
  C   C5316     1.0  0.50408  0.98132  0.72045  1.0000
  C   C5317     1.0  0.56637  0.84497  0.76607  1.0000
  H   H4251     1.0  0.52977  0.82590  0.69388  1.0000
  C   C5318     1.0  0.63232  0.81289  0.76376  1.0000
  C   C5319     1.0  0.53472  0.83661  0.69433  1.0000
  C   C5320     1.0  0.92193  0.51070  0.75742  1.0000
  H   H4252     1.0  0.94563  0.50389  0.67061  1.0000
  H   H4253     1.0  0.54264  0.95686  0.63645  1.0000
  C   C5321     1.0  0.67964  0.89585  0.60625  1.0000
  H   H4254     1.0  0.94801  0.58010  0.76318  1.0000
  H   H4255     1.0  0.97968  0.57413  0.75983  1.0000
  C   C5322     1.0  0.92531  0.50261  0.74358  1.0000
  H   H4256     1.0  0.65050  0.89671  0.64472  1.0000
  C   C5323     1.0  0.92491  0.52734  0.75437  1.0000
  H   H4257     1.0  0.94057  0.53426  0.71073  1.0000
  H   H4258     1.0  0.93520  0.90798  0.58667  1.0000
  C   C5324     1.0  0.49721  0.86365  0.63623  1.0000
  H   H4259     1.0  0.51101  0.97399  0.73062  1.0000
  H   H4260     1.0  0.50241  0.92316  0.67314  1.0000
  H   H4261     1.0  0.65188  0.97989  0.76003  1.0000
  H   H4262     1.0  0.65424  0.86407  0.76638  1.0000
  C   C5325     1.0  0.95840  0.49135  0.70211  1.0000
  Fe  Fe363     1.0  0.60086  0.90126  0.59230  1.0000
  C   C5326     1.0  0.61121  0.84324  0.70742  1.0000
  H   H4263     1.0  0.97835  0.56664  0.59836  1.0000
  H   H4264     1.0  0.57407  0.96410  0.61164  1.0000
  C   C5327     1.0  0.50620  0.92980  0.61436  1.0000
  H   H4265     1.0  0.50354  0.93215  0.72349  1.0000
  C   C5328     1.0  0.63558  0.81972  0.74572  1.0000
  H   H4266     1.0  0.91388  0.55269  0.65086  1.0000
  C   C5329     1.0  0.92848  0.51731  0.69023  1.0000
  H   H4267     1.0  0.54231  0.86653  0.74438  1.0000
  C   C5330     1.0  0.64176  0.79659  0.77081  1.0000
  H   H4268     1.0  0.55785  0.96408  0.59081  1.0000
  H   H4269     1.0  0.67593  0.87701  0.63051  1.0000
  C   C5331     1.0  0.53126  0.96668  0.64009  1.0000
  C   C5332     1.0  0.93160  0.53576  0.73751  1.0000
  H   H4270     1.0  0.94973  0.58617  0.68257  1.0000
  H   H4271     1.0  0.57161  0.81733  0.76836  1.0000
  H   H4272     1.0  0.52236  0.89254  0.58966  1.0000
  H   H4273     1.0  0.54351  0.90644  0.59414  1.0000
  H   H4274     1.0  0.56766  0.98014  0.71294  1.0000
  C   C5333     1.0  0.65718  0.90124  0.63152  1.0000
  H   H4275     1.0  0.56544  0.88237  0.72763  1.0000
  C   C5334     1.0  0.59028  0.85885  0.75052  1.0000
  C   C5335     1.0  0.57301  0.85995  0.75933  1.0000
  C   C5336     1.0  0.87051  0.95184  0.59730  1.0000
  C   C5337     1.0  0.63209  0.85751  0.74004  1.0000
  H   H4276     1.0  0.92058  0.93855  0.58837  1.0000
  H   H4277     1.0  0.51571  0.86528  0.61195  1.0000
  H   H4278     1.0  0.64197  0.94094  0.65369  1.0000
  H   H4279     1.0  0.65248  0.85533  0.67514  1.0000
  C   C5338     1.0  0.54864  0.86392  0.69444  1.0000
  H   H4280     1.0  0.66766  0.78598  0.73354  1.0000
  C   C5339     1.0  0.52981  0.91075  0.59916  1.0000
  C   C5340     1.0  0.93573  0.51519  0.67319  1.0000
  C   C5341     1.0  0.98464  0.57330  0.58590  1.0000
  C   C5342     1.0  0.56470  0.97569  0.60733  1.0000
  S   S726      1.0  0.97404  0.52782  0.78188  1.0000
  H   H4281     1.0  0.97810  0.53316  0.68572  1.0000
  H   H4282     1.0  0.52715  0.98171  0.70065  1.0000
  C   C5343     1.0  0.51828  0.83622  0.76475  1.0000
  C   C5344     1.0  0.65126  0.91811  0.62238  1.0000
  H   H4283     1.0  0.62257  0.82024  0.77245  1.0000
  H   H4284     1.0  0.59942  0.84031  0.71614  1.0000
  H   H4285     1.0  0.89907  0.50318  0.71059  1.0000
  H   H4286     1.0  0.98135  0.53146  0.71547  1.0000
  H   H4287     1.0  0.57094  0.84415  0.70061  1.0000
  C   C5345     1.0  0.60791  0.97209  0.59231  1.0000
  H   H4288     1.0  0.51651  0.96141  0.62486  1.0000
  C   C5346     1.0  0.55547  0.97583  0.59529  1.0000
  H   H4289     1.0  0.62350  0.87726  0.71832  1.0000
  P   P176      1.0  0.93561  0.50102  0.70849  1.0000
  Fe  Fe364     1.0  0.97800  0.50677  0.63817  1.0000
  S   S727      1.0  0.56908  0.92730  0.77704  1.0000
  H   H4290     1.0  0.95349  0.58471  0.71190  1.0000
  C   C5347     1.0  0.62823  0.97652  0.67160  1.0000
  Fe  Fe365     1.0  0.97665  0.54046  0.64739  1.0000
  H   H4291     1.0  0.93607  0.52593  0.64601  1.0000
  H   H4292     1.0  0.52087  0.89127  0.76393  1.0000
  H   H4293     1.0  0.53549  0.86086  0.65657  1.0000
  C   C5348     1.0  0.63038  0.87405  0.72873  1.0000
  C   C5349     1.0  0.65449  0.78690  0.75993  1.0000
  C   C5350     1.0  0.65951  0.92391  0.60521  1.0000
  C   C5351     1.0  0.51657  0.96911  0.63354  1.0000
  H   H4294     1.0  0.63651  0.89928  0.72175  1.0000
  H   H4295     1.0  0.64344  0.95035  0.67904  1.0000
  C   C5352     1.0  0.63096  0.96696  0.76557  1.0000
  H   H4296     1.0  0.64203  0.84164  0.76280  1.0000
  P   P177      1.0  0.50432  0.85860  0.68499  1.0000
  C   C5353     1.0  0.93031  0.52778  0.65909  1.0000
  C   C5354     1.0  0.59409  0.98248  0.70206  1.0000
  C   C5355     1.0  0.91536  0.53214  0.69293  1.0000
  H   H4297     1.0  0.96336  0.61741  0.60373  1.0000
  C   C5356     1.0  0.63776  0.88661  0.73062  1.0000
  H   H4298     1.0  0.66254  0.92906  0.73841  1.0000
  H   H4299     1.0  0.52510  0.88082  0.68791  1.0000
  H   H4300     1.0  0.52597  0.84183  0.76955  1.0000
  C   C5357     1.0  0.60605  0.98350  0.75327  1.0000
  C   C5358     1.0  0.64837  0.80988  0.73485  1.0000
  H   H4301     1.0  0.96573  0.58969  0.62613  1.0000
  C   C5359     1.0  0.65737  0.96045  0.70170  1.0000
  C   C5360     1.0  0.49828  0.91171  0.76016  1.0000
  C   C5361     1.0  0.66574  0.94708  0.71352  1.0000
  S   S728      1.0  0.58811  0.92965  0.58611  1.0000
  S   S729      1.0  0.96598  0.50932  0.75498  1.0000
  C   C5362     1.0  0.50803  0.86143  0.66170  1.0000
  H   H4302     1.0  0.60142  0.84682  0.68443  1.0000
  H   H4303     1.0  0.50638  0.95319  0.66875  1.0000
  H   H4304     1.0  0.50586  0.90933  0.64914  1.0000
  C   C5363     1.0  0.54767  0.89825  0.65349  1.0000
  C   C5364     1.0  0.53332  0.89965  0.64686  1.0000
  C   C5365     1.0  0.51705  0.90864  0.65405  1.0000
  C   C5366     1.0  0.51526  0.91686  0.66740  1.0000
  C   C5367     1.0  0.52992  0.91668  0.67319  1.0000
  C   C5368     1.0  0.54602  0.90673  0.66656  1.0000
  P   P178      1.0  0.52796  0.92656  0.69088  1.0000
  C   C5369     1.0  0.50685  0.94074  0.69562  1.0000
  C   C5370     1.0  0.53224  0.90820  0.70857  1.0000
  C   C5371     1.0  0.54894  0.90195  0.71211  1.0000
  C   C5372     1.0  0.55257  0.88692  0.72492  1.0000
  C   C5373     1.0  0.53962  0.87792  0.73418  1.0000
  C   C5374     1.0  0.52304  0.88393  0.73057  1.0000
  C   C5375     1.0  0.51939  0.89901  0.71781  1.0000
  C   C5376     1.0  0.62615  0.96534  0.64302  1.0000
  C   C5377     1.0  0.61229  0.84682  0.68949  1.0000
  P   P179      1.0  0.62334  0.84097  0.73693  1.0000
  H   H4305     1.0  0.50752  0.82664  0.67397  1.0000
  H   H4306     1.0  0.66501  0.96658  0.68976  1.0000
  C   C5378     1.0  0.54400  0.93901  0.68715  1.0000
  C   C5379     1.0  0.55636  0.94098  0.67153  1.0000
  C   C5380     1.0  0.57024  0.94834  0.67000  1.0000
  C   C5381     1.0  0.57189  0.95370  0.68407  1.0000
  C   C5382     1.0  0.55944  0.95205  0.69955  1.0000
  C   C5383     1.0  0.54545  0.94492  0.70104  1.0000
  H   H4307     1.0  0.56014  0.89065  0.64845  1.0000
  H   H4308     1.0  0.53483  0.89386  0.63606  1.0000
  H   H4309     1.0  0.92291  0.48975  0.74622  1.0000
  H   H4310     1.0  0.82445  0.97398  0.59620  1.0000
  H   H4311     1.0  0.55736  0.90542  0.67152  1.0000
  H   H4312     1.0  0.55928  0.90853  0.70492  1.0000
  S   S730      1.0  0.60360  0.95152  0.77558  1.0000
  H   H4313     1.0  0.49656  0.95486  0.75377  1.0000
  H   H4314     1.0  0.51280  0.87731  0.73807  1.0000
  H   H4315     1.0  0.50651  0.90372  0.71527  1.0000
  S   S731      1.0  0.96955  0.53489  0.62518  1.0000
  H   H4316     1.0  0.61575  0.96222  0.72446  1.0000
  H   H4317     1.0  0.88234  0.92442  0.60042  1.0000
  C   C5384     1.0  0.93518  0.52763  0.72369  1.0000
  C   C5385     1.0  0.67365  0.91274  0.59690  1.0000
  H   H4318     1.0  0.55553  0.93667  0.66058  1.0000
  H   H4319     1.0  0.58004  0.94935  0.65808  1.0000
  Fe  Fe366     1.0  0.97817  0.53113  0.75296  1.0000
  H   H4320     1.0  0.56086  0.95562  0.71071  1.0000
  H   H4321     1.0  0.53624  0.94321  0.71336  1.0000
  H   H4322     1.0  0.59532  0.87055  0.74601  1.0000
  C   C5386     1.0  0.91771  0.54275  0.66185  1.0000
  C   C5387     1.0  0.93185  0.51107  0.72657  1.0000
  C   C5388     1.0  0.52401  0.92420  0.60808  1.0000
  C   C5389     1.0  0.61442  0.96816  0.76326  1.0000
  H   H4323     1.0  0.65117  0.81472  0.72092  1.0000
  H   H4324     1.0  0.55329  0.84580  0.77371  1.0000
  C   C5390     1.0  0.62966  0.95802  0.72104  1.0000
  H   H4325     1.0  0.96391  0.59631  0.58452  1.0000
  C   C5391     1.0  0.63561  0.95406  0.65518  1.0000
  C   C5392     1.0  0.55809  0.84678  0.69810  1.0000
  H   H4326     1.0  0.92267  0.53342  0.76515  1.0000
  C   C5393     1.0  0.50004  0.90799  0.60358  1.0000
  H   H4327     1.0  0.63058  0.93880  0.74503  1.0000
  H   H4328     1.0  0.91737  0.50393  0.77057  1.0000
  H   H4329     1.0  0.69038  0.88697  0.60003  1.0000
  C   C5394     1.0  0.59391  0.82782  0.75412  1.0000
  C   C5395     1.0  0.91016  0.54489  0.67877  1.0000
  H   H4330     1.0  0.67972  0.94299  0.71072  1.0000
  H   H4331     1.0  0.90921  0.53401  0.70591  1.0000
  C   C5396     1.0  0.57675  0.82894  0.76323  1.0000
  C   C5397     1.0  0.63911  0.98096  0.75808  1.0000
  H   H4332     1.0  0.65438  0.93695  0.59840  1.0000
  C   C5398     1.0  0.60094  0.84271  0.74806  1.0000
  H   H4333     1.0  0.90042  0.55653  0.68090  1.0000
  C   C5399     1.0  0.51369  0.86400  0.62583  1.0000
  C   C5400     1.0  0.53121  0.97690  0.65119  1.0000
  C   C5401     1.0  0.67145  0.89016  0.62350  1.0000
  H   H4334     1.0  0.54014  0.86344  0.62512  1.0000
  H   H4335     1.0  0.50159  0.94029  0.62117  1.0000
  C   C5402     1.0  0.62507  0.84400  0.71386  1.0000
  H   H4336     1.0  0.54259  0.97480  0.65630  1.0000
  C   C5403     1.0  0.50171  0.98137  0.63841  1.0000
  H   H4337     1.0  0.60177  0.81526  0.75209  1.0000
  C   C5404     1.0  0.97514  0.61174  0.60867  1.0000
  C   C5405     1.0  0.49717  0.81902  0.76973  1.0000
  S   S732      1.0  0.96998  0.55767  0.73642  1.0000
  C   C5406     1.0  0.96760  0.55799  0.71567  1.0000
  H   H4338     1.0  0.65179  0.89293  0.74575  1.0000
  H   H4339     1.0  0.56492  0.87240  0.76155  1.0000
  C   C5407     1.0  0.95667  0.57423  0.68968  1.0000
  H   H4340     1.0  0.62759  0.85458  0.66401  1.0000
  H   H4341     1.0  0.55430  0.87453  0.69388  1.0000
  H   H4342     1.0  0.93446  0.54843  0.73521  1.0000
  H   H4343     1.0  0.58305  0.95868  0.68308  1.0000
  C   C5408     1.0  0.64009  0.84810  0.70208  1.0000
  H   H4344     1.0  0.65090  0.84886  0.70675  1.0000
  C   C5409     1.0  0.97097  0.49634  0.70711  1.0000
  H   H4345     1.0  0.62528  0.96098  0.63205  1.0000
  C   C5410     1.0  0.61767  0.98216  0.64514  1.0000
  H   H4346     1.0  0.55862  0.81984  0.70056  1.0000
  C   C5411     1.0  0.96361  0.55978  0.68214  1.0000
  S   S733      1.0  0.96064  0.56168  0.66115  1.0000
  C   C5412     1.0  0.49939  0.95237  0.68205  1.0000
  C   C5413     1.0  0.64106  0.85176  0.68417  1.0000
  C   C5414     1.0  0.97259  0.54434  0.69145  1.0000
  C   C5415     1.0  0.52740  0.86299  0.63328  1.0000
  C   C5416     1.0  0.53212  0.86743  0.69100  1.0000
  C   C5417     1.0  0.63807  0.94465  0.73281  1.0000
  C   C5418     1.0  0.49928  0.82128  0.75180  1.0000
  C   C5419     1.0  0.65609  0.93921  0.72910  1.0000
  H   H4347     1.0  0.96734  0.50587  0.71498  1.0000
  C   C5420     1.0  0.97649  0.59614  0.62121  1.0000
  C   C5421     1.0  0.62711  0.85123  0.67789  1.0000
  H   H4348     1.0  0.49632  0.86974  0.71777  1.0000
  C   C5422     1.0  0.55112  0.83311  0.69807  1.0000
  C   C5423     1.0  0.65777  0.79352  0.74196  1.0000
  C   C5424     1.0  0.95880  0.57339  0.70628  1.0000
  H   H4349     1.0  0.51248  0.83262  0.72651  1.0000
  C   C5425     1.0  0.49773  0.94036  0.71280  1.0000
  C   C5426     1.0  0.51781  0.90287  0.59667  1.0000
  S   S734      1.0  0.61537  0.95153  0.60485  1.0000
  C   C5427     1.0  0.95357  0.57660  0.77460  1.0000
  H   H4350     1.0  0.59310  0.98465  0.75174  1.0000
  C   C5428     1.0  0.97151  0.57323  0.77269  1.0000
  H   H4351     1.0  0.73602  0.91845  0.59233  1.0000
  H   H4352     1.0  0.98810  0.63181  0.59232  1.0000
  C   C5429     1.0  0.49405  0.84031  0.69462  1.0000
  C   C5430     1.0  0.49808  0.82657  0.68612  1.0000
  P   P180      1.0  0.62877  0.98380  0.69025  1.0000
  C   C5431     1.0  0.90513  0.48967  0.71505  1.0000
  C   C5432     1.0  0.51318  0.98588  0.70344  1.0000
  H   H4353     1.0  0.52785  0.95768  0.78334  1.0000
  H   H4354     1.0  0.98527  0.48731  0.60942  1.0000
  H   H4355     1.0  0.49261  0.80240  0.68618  1.0000
  C   C5433     1.0  0.98856  0.48906  0.70188  1.0000
  H   H4356     1.0  0.61653  0.98536  0.60641  1.0000
  H   H4357     1.0  0.85169  0.97786  0.66535  1.0000
  Fe  Fe367     1.0  0.96409  0.50452  0.78358  1.0000
  C   C5434     1.0  0.98913  0.61984  0.60223  1.0000
  C   C5435     1.0  0.49132  0.92960  0.75805  1.0000
  H   H4358     1.0  0.82496  0.98156  0.65502  1.0000
  H   H4359     1.0  0.87971  0.97834  0.64424  1.0000
  H   H4360     1.0  0.88110  0.98242  0.61294  1.0000
  C   C5436     1.0  0.85226  0.97965  0.65162  1.0000
  C   C5437     1.0  0.83720  0.98172  0.64579  1.0000
  C   C5438     1.0  0.86803  0.97991  0.63972  1.0000
  C   C5439     1.0  0.86876  0.98226  0.62200  1.0000
  H   H4361     1.0  0.49201  0.81535  0.74681  1.0000
  H   H4362     1.0  0.82603  0.98572  0.62387  1.0000
  C   C5440     1.0  0.85367  0.98440  0.61603  1.0000
  C   C5441     1.0  0.83787  0.98408  0.62807  1.0000
  H   H4363     1.0  0.99040  0.59180  0.71401  1.0000
  C   C5442     1.0  0.60993  0.98681  0.59620  1.0000
  C   C5443     1.0  0.71282  0.91908  0.58455  1.0000
  H   H4364     1.0  0.69436  0.59353  0.87214  1.0000
  Fe  Fe368     1.0  0.59392  0.79267  0.87580  1.0000
  S   S735      1.0  0.58540  0.76810  0.87927  1.0000
  S   S736      1.0  0.58397  0.80921  0.89580  1.0000
  Fe  Fe369     1.0  0.61217  0.79286  0.83829  1.0000
  S   S737      1.0  0.60543  0.76817  0.83838  1.0000
  S   S738      1.0  0.62705  0.80894  0.81491  1.0000
  Fe  Fe370     1.0  0.57920  0.77938  0.85292  1.0000
  S   S739      1.0  0.55552  0.77474  0.84786  1.0000
  Fe  Fe371     1.0  0.61214  0.75826  0.86473  1.0000
  S   S740      1.0  0.62578  0.73068  0.87544  1.0000
  S   S741      1.0  0.58527  0.80495  0.85061  1.0000
  S   S742      1.0  0.62139  0.78200  0.86350  1.0000
  C   C5444     1.0  0.68512  0.59761  0.88326  1.0000
  Fe  Fe372     1.0  0.60843  0.64894  0.87006  1.0000
  S   S743      1.0  0.59264  0.63045  0.87040  1.0000
  S   S744      1.0  0.61552  0.67052  0.84751  1.0000
  Fe  Fe373     1.0  0.60983  0.63559  0.90786  1.0000
  S   S745      1.0  0.59419  0.61600  0.91207  1.0000
  S   S746      1.0  0.62032  0.63834  0.92915  1.0000
  Fe  Fe374     1.0  0.61047  0.61058  0.88660  1.0000
  S   S747      1.0  0.61946  0.58212  0.88615  1.0000
  Fe  Fe375     1.0  0.57761  0.63714  0.89580  1.0000
  S   S748      1.0  0.54886  0.64262  0.90594  1.0000
  S   S749      1.0  0.62773  0.62839  0.88382  1.0000
  S   S750      1.0  0.59177  0.65739  0.89399  1.0000
  H   H4365     1.0  0.96639  0.57531  0.87912  1.0000
  H   H4366     1.0  0.57124  0.84546  0.80410  1.0000
  Fe  Fe376     1.0  0.70881  0.52927  0.88589  1.0000
  S   S751      1.0  0.70713  0.53618  0.91079  1.0000
  S   S752      1.0  0.69996  0.55197  0.86505  1.0000
  H   H4367     1.0  0.78543  0.57355  0.96093  1.0000
  H   H4368     1.0  0.97844  0.55514  0.85921  1.0000
  Fe  Fe377     1.0  0.69549  0.51294  0.92312  1.0000
  S   S753      1.0  0.67222  0.51254  0.94505  1.0000
  Fe  Fe378     1.0  0.73270  0.51748  0.91122  1.0000
  S   S754      1.0  0.75275  0.52273  0.92166  1.0000
  S   S755      1.0  0.69551  0.50703  0.89814  1.0000
  S   S756      1.0  0.73573  0.51247  0.88495  1.0000
  C   C5445     1.0  0.61270  0.70878  0.95334  1.0000
  Fe  Fe379     1.0  0.88328  0.52825  0.87946  1.0000
  C   C5446     1.0  0.54253  0.67959  0.85265  1.0000
  S   S757      1.0  0.90250  0.54080  0.85776  1.0000
  Fe  Fe380     1.0  0.85865  0.53113  0.91397  1.0000
  S   S758      1.0  0.84869  0.50781  0.91568  1.0000
  S   S759      1.0  0.84443  0.54865  0.93258  1.0000
  H   H4369     1.0  0.77359  0.61901  0.93885  1.0000
  Fe  Fe381     1.0  0.84805  0.51877  0.88755  1.0000
  S   S760      1.0  0.82785  0.51755  0.87436  1.0000
  S   S761      1.0  0.88676  0.51781  0.90706  1.0000
  S   S762      1.0  0.85594  0.54311  0.88634  1.0000
  C   C5447     1.0  0.84988  0.54528  0.95274  1.0000
  C   C5448     1.0  0.83719  0.55159  0.96618  1.0000
  H   H4370     1.0  0.62481  0.60834  0.95552  1.0000
  P   P181      1.0  0.64968  0.50665  0.86591  1.0000
  C   C5449     1.0  0.87082  0.53615  0.97124  1.0000
  C   C5450     1.0  0.86668  0.53734  0.95534  1.0000
  H   H4371     1.0  0.82422  0.55786  0.96417  1.0000
  C   C5451     1.0  0.87876  0.50189  0.82372  1.0000
  H   H4372     1.0  0.88392  0.53052  0.97307  1.0000
  H   H4373     1.0  0.87656  0.53268  0.94492  1.0000
  C   C5452     1.0  0.67302  0.52527  0.95860  1.0000
  C   C5453     1.0  0.67927  0.54048  0.95152  1.0000
  C   C5454     1.0  0.68142  0.54976  0.96238  1.0000
  H   H4374     1.0  0.66342  0.49362  0.92391  1.0000
  H   H4375     1.0  0.86937  0.60295  0.96193  1.0000
  C   C5455     1.0  0.72468  0.53317  0.97262  1.0000
  H   H4376     1.0  0.68206  0.54534  0.93768  1.0000
  H   H4377     1.0  0.68642  0.56135  0.95674  1.0000
  H   H4378     1.0  0.93813  0.53107  0.80149  1.0000
  H   H4379     1.0  0.85797  0.50391  0.84646  1.0000
  C   C5456     1.0  0.77359  0.52033  0.90845  1.0000
  C   C5457     1.0  0.78785  0.51709  0.91596  1.0000
  C   C5458     1.0  0.80455  0.51598  0.90561  1.0000
  C   C5459     1.0  0.80716  0.51774  0.88770  1.0000
  C   C5460     1.0  0.79294  0.52057  0.88019  1.0000
  C   C5461     1.0  0.77615  0.52201  0.89054  1.0000
  H   H4380     1.0  0.78599  0.51550  0.92982  1.0000
  H   H4381     1.0  0.81533  0.51396  0.91151  1.0000
  C   C5462     1.0  0.96831  0.57340  0.83762  1.0000
  H   H4382     1.0  0.76520  0.52475  0.88461  1.0000
  C   C5463     1.0  0.93194  0.50732  0.81843  1.0000
  C   C5464     1.0  0.93176  0.52510  0.81424  1.0000
  C   C5465     1.0  0.92270  0.53532  0.82640  1.0000
  C   C5466     1.0  0.91403  0.52775  0.84281  1.0000
  C   C5467     1.0  0.91480  0.50986  0.84716  1.0000
  H   H4383     1.0  0.50465  0.73684  0.81847  1.0000
  C   C5468     1.0  0.71830  0.61694  0.86626  1.0000
  H   H4384     1.0  0.92218  0.54912  0.82303  1.0000
  H   H4385     1.0  0.90893  0.50377  0.86003  1.0000
  C   C5469     1.0  0.73618  0.61378  0.85963  1.0000
  C   C5470     1.0  0.64201  0.57469  0.88091  1.0000
  C   C5471     1.0  0.65211  0.58364  0.86641  1.0000
  C   C5472     1.0  0.66986  0.57643  0.86139  1.0000
  C   C5473     1.0  0.67764  0.56064  0.87118  1.0000
  C   C5474     1.0  0.66760  0.55204  0.88599  1.0000
  C   C5475     1.0  0.64979  0.55888  0.89064  1.0000
  H   H4386     1.0  0.64614  0.59582  0.85877  1.0000
  H   H4387     1.0  0.67759  0.58304  0.84996  1.0000
  H   H4388     1.0  0.67344  0.54005  0.89385  1.0000
  H   H4389     1.0  0.64203  0.55189  0.90182  1.0000
  C   C5476     1.0  0.60322  0.64539  0.94552  1.0000
  C   C5477     1.0  0.60647  0.64532  0.96141  1.0000
  S   S763      1.0  0.50089  0.63418  0.86172  1.0000
  C   C5478     1.0  0.57658  0.65948  0.97057  1.0000
  C   C5479     1.0  0.57308  0.65870  0.95513  1.0000
  C   C5480     1.0  0.58638  0.65153  0.94265  1.0000
  H   H4390     1.0  0.61932  0.64021  0.96393  1.0000
  H   H4391     1.0  0.67620  0.52279  0.86809  1.0000
  H   H4392     1.0  0.56014  0.66390  0.95275  1.0000
  H   H4393     1.0  0.58358  0.65105  0.93073  1.0000
  C   C5481     1.0  0.53597  0.63886  0.89406  1.0000
  C   C5482     1.0  0.54325  0.63218  0.87910  1.0000
  C   C5483     1.0  0.53247  0.63010  0.86950  1.0000
  C   C5484     1.0  0.51443  0.63508  0.87461  1.0000
  C   C5485     1.0  0.50725  0.64112  0.88992  1.0000
  C   C5486     1.0  0.51797  0.64277  0.89971  1.0000
  H   H4394     1.0  0.55712  0.62881  0.87482  1.0000
  H   H4395     1.0  0.53809  0.62518  0.85781  1.0000
  S   S764      1.0  0.57645  0.87922  0.78762  1.0000
  H   H4396     1.0  0.51218  0.64713  0.91167  1.0000
  C   C5487     1.0  0.62311  0.71412  0.86727  1.0000
  C   C5488     1.0  0.61766  0.71787  0.85161  1.0000
  C   C5489     1.0  0.61567  0.70442  0.84539  1.0000
  C   C5490     1.0  0.61878  0.68719  0.85496  1.0000
  C   C5491     1.0  0.62426  0.68340  0.87059  1.0000
  C   C5492     1.0  0.62655  0.69681  0.87664  1.0000
  H   H4397     1.0  0.61505  0.73111  0.84424  1.0000
  H   H4398     1.0  0.61139  0.70742  0.83331  1.0000
  H   H4399     1.0  0.62681  0.67012  0.87802  1.0000
  H   H4400     1.0  0.63075  0.69373  0.88872  1.0000
  C   C5493     1.0  0.59684  0.80607  0.91092  1.0000
  C   C5494     1.0  0.59049  0.81504  0.92440  1.0000
  C   C5495     1.0  0.60001  0.81206  0.93722  1.0000
  C   C5496     1.0  0.61630  0.80065  0.93621  1.0000
  C   C5497     1.0  0.62290  0.79209  0.92241  1.0000
  C   C5498     1.0  0.61306  0.79454  0.90998  1.0000
  H   H4401     1.0  0.57796  0.82396  0.92521  1.0000
  H   H4402     1.0  0.59490  0.81881  0.94773  1.0000
  H   H4403     1.0  0.63350  0.69915  0.91407  1.0000
  H   H4404     1.0  0.61805  0.78755  0.89966  1.0000
  H   H4405     1.0  0.71346  0.61075  0.87953  1.0000
  C   C5499     1.0  0.52131  0.81706  0.86213  1.0000
  C   C5500     1.0  0.53677  0.80532  0.85709  1.0000
  C   C5501     1.0  0.53630  0.78959  0.85403  1.0000
  C   C5502     1.0  0.52034  0.78552  0.85621  1.0000
  C   C5503     1.0  0.53043  0.81027  0.90866  1.0000
  H   H4406     1.0  0.52158  0.82907  0.86484  1.0000
  H   H4407     1.0  0.54904  0.80835  0.85563  1.0000
  H   H4408     1.0  0.51992  0.77324  0.85409  1.0000
  C   C5504     1.0  0.77372  0.60160  0.92348  1.0000
  C   C5505     1.0  0.61351  0.82839  0.80615  1.0000
  C   C5506     1.0  0.59594  0.82920  0.80824  1.0000
  C   C5507     1.0  0.58489  0.84485  0.80215  1.0000
  H   H4409     1.0  0.59085  0.81772  0.81452  1.0000
  C   C5508     1.0  0.53294  0.96398  0.79020  1.0000
  C   C5509     1.0  0.56757  0.66475  0.83460  1.0000
  S   S765      1.0  0.87509  0.50515  0.87793  1.0000
  C   C5510     1.0  0.53735  0.75276  0.82164  1.0000
  H   H4410     1.0  0.86704  0.49871  0.97556  1.0000
  C   C5511     1.0  0.52186  0.69862  0.97870  1.0000
  C   C5512     1.0  0.87906  0.53604  0.82357  1.0000
  C   C5513     1.0  0.77392  0.57826  0.97003  1.0000
  H   H4411     1.0  0.55247  0.79485  0.89442  1.0000
  H   H4412     1.0  0.53548  0.77596  0.89089  1.0000
  H   H4413     1.0  0.85007  0.49797  0.80710  1.0000
  H   H4414     1.0  0.51341  0.71518  0.84406  1.0000
  H   H4415     1.0  0.50309  0.86092  0.78465  1.0000
  P   P182      1.0  0.50462  0.82315  0.79967  1.0000
  H   H4416     1.0  0.72285  0.52749  0.96300  1.0000
  H   H4417     1.0  0.79488  0.52206  0.86632  1.0000
  H   H4418     1.0  0.53832  0.74177  0.87313  1.0000
  C   C5514     1.0  0.76865  0.59986  0.90916  1.0000
  C   C5515     1.0  0.55168  0.69188  0.85211  1.0000
  C   C5516     1.0  0.95748  0.53627  0.84740  1.0000
  C   C5517     1.0  0.50980  0.88024  0.91264  1.0000
  C   C5518     1.0  0.62554  0.48946  0.86404  1.0000
  C   C5519     1.0  0.74260  0.58444  0.97984  1.0000
  C   C5520     1.0  0.56223  0.62079  0.97665  1.0000
  C   C5521     1.0  0.94292  0.57489  0.79118  1.0000
  C   C5522     1.0  0.59135  0.85978  0.79366  1.0000
  C   C5523     1.0  0.66717  0.68462  0.85593  1.0000
  C   C5524     1.0  0.67163  0.66758  0.85357  1.0000
  H   H4419     1.0  0.58430  0.72947  0.89341  1.0000
  Fe  Fe382     1.0  0.87638  0.49561  0.90593  1.0000
  C   C5525     1.0  0.50537  0.81305  0.86428  1.0000
  C   C5526     1.0  0.95511  0.59638  0.86014  1.0000
  H   H4420     1.0  0.94980  0.60519  0.86891  1.0000
  C   C5527     1.0  0.86723  0.52744  0.83622  1.0000
  C   C5528     1.0  0.84119  0.54985  0.98225  1.0000
  P   P183      1.0  0.50188  0.83067  0.92652  1.0000
  C   C5529     1.0  0.54629  0.96243  0.81359  1.0000
  H   H4421     1.0  0.61374  0.52689  0.91844  1.0000
  H   H4422     1.0  0.49568  0.76700  0.83984  1.0000
  H   H4423     1.0  0.55263  0.75422  0.98131  1.0000
  H   H4424     1.0  0.63607  0.51172  0.93632  1.0000
  H   H4425     1.0  0.61840  0.50768  0.96711  1.0000
  C   C5530     1.0  0.55437  0.69435  0.92103  1.0000
  C   C5531     1.0  0.57094  0.69192  0.92386  1.0000
  C   C5532     1.0  0.57345  0.69996  0.93555  1.0000
  C   C5533     1.0  0.55946  0.71090  0.94404  1.0000
  C   C5534     1.0  0.54284  0.71401  0.94081  1.0000
  C   C5535     1.0  0.54031  0.70515  0.92964  1.0000
  P   P184      1.0  0.52480  0.72824  0.95188  1.0000
  C   C5536     1.0  0.50789  0.73676  0.93948  1.0000
  C   C5537     1.0  0.51701  0.71682  0.97375  1.0000
  C   C5538     1.0  0.49695  0.66718  0.96444  1.0000
  C   C5539     1.0  0.49992  0.79115  0.82203  1.0000
  S   S766      1.0  0.72095  0.49473  0.92606  1.0000
  C   C5540     1.0  0.50144  0.81014  0.96023  1.0000
  C   C5541     1.0  0.63001  0.55813  0.84665  1.0000
  C   C5542     1.0  0.51210  0.74088  0.92120  1.0000
  H   H4426     1.0  0.74811  0.50212  0.95539  1.0000
  C   C5543     1.0  0.57238  0.77310  0.92797  1.0000
  C   C5544     1.0  0.76727  0.49273  0.97125  1.0000
  H   H4427     1.0  0.92904  0.57714  0.79268  1.0000
  C   C5545     1.0  0.53199  0.74592  0.95465  1.0000
  C   C5546     1.0  0.52740  0.76292  0.94494  1.0000
  C   C5547     1.0  0.53179  0.77661  0.94849  1.0000
  C   C5548     1.0  0.54069  0.77350  0.96170  1.0000
  Fe  Fe383     1.0  0.61380  0.79463  0.97944  1.0000
  C   C5549     1.0  0.54111  0.74291  0.96780  1.0000
  H   H4428     1.0  0.55244  0.68770  0.91225  1.0000
  H   H4429     1.0  0.58182  0.68342  0.91733  1.0000
  H   H4430     1.0  0.58621  0.69735  0.93829  1.0000
  H   H4431     1.0  0.56169  0.71676  0.95319  1.0000
  H   H4432     1.0  0.52756  0.70652  0.92747  1.0000
  C   C5550     1.0  0.62016  0.84321  0.79723  1.0000
  C   C5551     1.0  0.65893  0.62333  0.82317  1.0000
  C   C5552     1.0  0.63368  0.60478  0.96414  1.0000
  C   C5553     1.0  0.89047  0.51071  0.81091  1.0000
  C   C5554     1.0  0.67255  0.50378  0.85651  1.0000
  H   H4433     1.0  0.52548  0.73977  0.91430  1.0000
  H   H4434     1.0  0.95415  0.49540  0.84955  1.0000
  C   C5555     1.0  0.69987  0.51191  0.85208  1.0000
  H   H4435     1.0  0.64851  0.62363  0.94835  1.0000
  H   H4436     1.0  0.88276  0.57179  0.97195  1.0000
  H   H4437     1.0  0.52013  0.76572  0.93496  1.0000
  H   H4438     1.0  0.52828  0.78968  0.94110  1.0000
  H   H4439     1.0  0.54396  0.78415  0.96456  1.0000
  H   H4440     1.0  0.63714  0.66910  0.93261  1.0000
  C   C5556     1.0  0.92355  0.49971  0.83491  1.0000
  C   C5557     1.0  0.53869  0.79680  0.89995  1.0000
  H   H4441     1.0  0.52969  0.69097  0.96937  1.0000
  H   H4442     1.0  0.62366  0.54184  0.81566  1.0000
  H   H4443     1.0  0.75664  0.61936  0.83749  1.0000
  C   C5558     1.0  0.61979  0.73350  0.96746  1.0000
  H   H4444     1.0  0.58991  0.67607  0.82655  1.0000
  C   C5559     1.0  0.60907  0.85893  0.79088  1.0000
  C   C5560     1.0  0.60386  0.56253  0.96693  1.0000
  C   C5561     1.0  0.61770  0.56777  0.96937  1.0000
  C   C5562     1.0  0.63423  0.56349  0.95895  1.0000
  C   C5563     1.0  0.63661  0.55495  0.94566  1.0000
  C   C5564     1.0  0.62264  0.55045  0.94286  1.0000
  C   C5565     1.0  0.60631  0.55400  0.95363  1.0000
  H   H4445     1.0  0.57915  0.70253  0.97484  1.0000
  H   H4446     1.0  0.66235  0.69538  0.84596  1.0000
  H   H4447     1.0  0.52384  0.83465  0.81854  1.0000
  H   H4448     1.0  0.77220  0.48793  0.89636  1.0000
  H   H4449     1.0  0.78116  0.59057  0.93117  1.0000
  H   H4450     1.0  0.72526  0.62385  0.92117  1.0000
  H   H4451     1.0  0.61878  0.72431  0.92717  1.0000
  H   H4452     1.0  0.68304  0.60539  0.81636  1.0000
  C   C5566     1.0  0.57825  0.77587  0.94118  1.0000
  H   H4453     1.0  0.54427  0.73006  0.97588  1.0000
  C   C5567     1.0  0.70057  0.59094  0.95501  1.0000
  C   C5568     1.0  0.59014  0.60397  0.96497  1.0000
  C   C5569     1.0  0.49535  0.85921  0.79769  1.0000
  C   C5570     1.0  0.52041  0.86850  0.88681  1.0000
  C   C5571     1.0  0.51518  0.73790  0.82338  1.0000
  H   H4454     1.0  0.53354  0.79581  0.78882  1.0000
  H   H4455     1.0  0.98872  0.52547  0.81279  1.0000
  H   H4456     1.0  0.64522  0.56697  0.96082  1.0000
  H   H4457     1.0  0.64925  0.55195  0.93735  1.0000
  H   H4458     1.0  0.62450  0.54442  0.93218  1.0000
  H   H4459     1.0  0.59548  0.55057  0.95136  1.0000
  H   H4460     1.0  0.72152  0.49918  0.83510  1.0000
  C   C5572     1.0  0.57442  0.61550  0.96251  1.0000
  H   H4461     1.0  0.97819  0.49841  0.82351  1.0000
  C   C5573     1.0  0.49690  0.69591  0.90796  1.0000
  C   C5574     1.0  0.95175  0.52073  0.85366  1.0000
  C   C5575     1.0  0.63830  0.51040  0.92307  1.0000
  C   C5576     1.0  0.97117  0.56814  0.85463  1.0000
  H   H4462     1.0  0.70732  0.51943  0.85478  1.0000
  H   H4463     1.0  0.57194  0.62084  0.94950  1.0000
  H   H4464     1.0  0.59951  0.60041  0.95370  1.0000
  H   H4465     1.0  0.50507  0.72901  0.87331  1.0000
  C   C5577     1.0  0.51316  0.68462  0.90606  1.0000
  H   H4466     1.0  0.74492  0.60488  0.86761  1.0000
  C   C5578     1.0  0.59700  0.91267  0.81148  1.0000
  C   C5579     1.0  0.96826  0.56647  0.80403  1.0000
  C   C5580     1.0  0.76962  0.61781  0.92776  1.0000
  C   C5581     1.0  0.66491  0.62002  0.89707  1.0000
  C   C5582     1.0  0.55483  0.79649  0.79880  1.0000
  C   C5583     1.0  0.67695  0.65350  0.86685  1.0000
  C   C5584     1.0  0.57593  0.72579  0.88756  1.0000
  H   H4467     1.0  0.49288  0.80370  0.95770  1.0000
  H   H4468     1.0  0.70500  0.64496  0.83047  1.0000
  C   C5585     1.0  0.70688  0.62787  0.85569  1.0000
  C   C5586     1.0  0.67774  0.61533  0.88286  1.0000
  C   C5587     1.0  0.51850  0.60339  0.98044  1.0000
  C   C5588     1.0  0.50844  0.85063  0.91419  1.0000
  H   H4469     1.0  0.53808  0.81831  0.91020  1.0000
  C   C5589     1.0  0.67756  0.54371  0.98041  1.0000
  C   C5590     1.0  0.59315  0.65233  0.97398  1.0000
  C   C5591     1.0  0.72300  0.55116  0.96933  1.0000
  H   H4470     1.0  0.64190  0.54321  0.86799  1.0000
  C   C5592     1.0  0.67588  0.61453  0.82448  1.0000
  H   H4471     1.0  0.68316  0.59783  0.93756  1.0000
  H   H4472     1.0  0.53528  0.82933  0.96917  1.0000
  H   H4473     1.0  0.59144  0.76433  0.96218  1.0000
  C   C5593     1.0  0.63071  0.68022  0.93841  1.0000
  H   H4474     1.0  0.53706  0.66687  0.93867  1.0000
  C   C5594     1.0  0.58728  0.76190  0.95184  1.0000
  C   C5595     1.0  0.58439  0.74223  0.93622  1.0000
  C   C5596     1.0  0.89053  0.52775  0.81081  1.0000
  C   C5597     1.0  0.62625  0.49993  0.97643  1.0000
  H   H4475     1.0  0.67515  0.67653  0.89630  1.0000
  H   H4476     1.0  0.77181  0.50469  0.96677  1.0000
  C   C5598     1.0  0.95023  0.56985  0.80585  1.0000
  C   C5599     1.0  0.51575  0.85285  0.89631  1.0000
  C   C5600     1.0  0.64126  0.75112  0.95867  1.0000
  C   C5601     1.0  0.62580  0.72532  0.98285  1.0000
  C   C5602     1.0  0.86703  0.51047  0.83628  1.0000
  C   C5603     1.0  0.62471  0.67776  0.95640  1.0000
  H   H4477     1.0  0.49341  0.64465  0.89427  1.0000
  C   C5604     1.0  0.55045  0.66617  0.84383  1.0000
  C   C5605     1.0  0.72438  0.55881  0.98210  1.0000
  H   H4478     1.0  0.54325  0.65687  0.84414  1.0000
  C   C5606     1.0  0.59077  0.74501  0.94918  1.0000
  H   H4479     1.0  0.57377  0.65414  0.82806  1.0000
  C   C5607     1.0  0.58640  0.72214  0.98273  1.0000
  H   H4480     1.0  0.52713  0.83927  0.94059  1.0000
  C   C5608     1.0  0.95263  0.60187  0.84307  1.0000
  H   H4481     1.0  0.52259  0.59806  0.90545  1.0000
  H   H4482     1.0  0.94186  0.56825  0.81865  1.0000
  H   H4483     1.0  0.62703  0.66486  0.96464  1.0000
  C   C5609     1.0  0.96445  0.57955  0.86590  1.0000
  C   C5610     1.0  0.95931  0.59048  0.83178  1.0000
  H   H4484     1.0  0.95062  0.54705  0.85351  1.0000
  H   H4485     1.0  0.95741  0.59507  0.81856  1.0000
  H   H4486     1.0  0.94548  0.61496  0.83858  1.0000
  C   C5611     1.0  0.62482  0.55783  0.83190  1.0000
  H   H4487     1.0  0.53965  0.94059  0.80930  1.0000
  C   C5612     1.0  0.49251  0.80659  0.81140  1.0000
  H   H4488     1.0  0.52922  0.68040  0.85969  1.0000
  C   C5613     1.0  0.62741  0.54201  0.82728  1.0000
  H   H4489     1.0  0.52604  0.87011  0.87303  1.0000
  H   H4490     1.0  0.52104  0.89430  0.88755  1.0000
  H   H4491     1.0  0.51299  0.78886  0.82375  1.0000
  C   C5614     1.0  0.64724  0.61335  0.95998  1.0000
  C   C5615     1.0  0.97890  0.56797  0.78733  1.0000
  C   C5616     1.0  0.64683  0.74331  0.97426  1.0000
  C   C5617     1.0  0.74278  0.62188  0.84263  1.0000
  P   P185      1.0  0.68373  0.63151  0.86353  1.0000
  H   H4492     1.0  0.87963  0.54895  0.82393  1.0000
  C   C5618     1.0  0.67876  0.65691  0.88203  1.0000
  H   H4493     1.0  0.73661  0.63959  0.81905  1.0000
  P   P186      1.0  0.51007  0.61600  0.96145  1.0000
  C   C5619     1.0  0.52385  0.60734  0.94305  1.0000
  H   H4494     1.0  0.57371  0.69164  0.87342  1.0000
  C   C5620     1.0  0.97119  0.53798  0.83289  1.0000
  H   H4495     1.0  0.53662  0.63639  0.94253  1.0000
  C   C5621     1.0  0.54190  0.60268  0.94163  1.0000
  C   C5622     1.0  0.55284  0.59647  0.92730  1.0000
  C   C5623     1.0  0.54588  0.59475  0.91431  1.0000
  C   C5624     1.0  0.52796  0.59891  0.91580  1.0000
  C   C5625     1.0  0.51697  0.60508  0.93014  1.0000
  C   C5626     1.0  0.51070  0.63850  0.95845  1.0000
  C   C5627     1.0  0.52542  0.64476  0.94870  1.0000
  C   C5628     1.0  0.52577  0.66215  0.94661  1.0000
  C   C5629     1.0  0.51148  0.67341  0.95433  1.0000
  C   C5630     1.0  0.75609  0.63097  0.90297  1.0000
  C   C5631     1.0  0.50744  0.71647  0.88222  1.0000
  C   C5632     1.0  0.55503  0.71639  0.87148  1.0000
  C   C5633     1.0  0.66837  0.68782  0.87135  1.0000
  H   H4496     1.0  0.51758  0.84268  0.88958  1.0000
  H   H4497     1.0  0.81858  0.49942  0.81591  1.0000
  H   H4498     1.0  0.58984  0.92586  0.80734  1.0000
  H   H4499     1.0  0.54757  0.60431  0.95136  1.0000
  H   H4500     1.0  0.56676  0.59356  0.92594  1.0000
  H   H4501     1.0  0.55439  0.59065  0.90285  1.0000
  C   C5634     1.0  0.63150  0.59188  0.97941  1.0000
  C   C5635     1.0  0.54629  0.98016  0.80770  1.0000
  C   C5636     1.0  0.66809  0.51989  0.97661  1.0000
  C   C5637     1.0  0.51791  0.81196  0.97976  1.0000
  H   H4502     1.0  0.51162  0.68694  0.95247  1.0000
  C   C5638     1.0  0.71362  0.63624  0.83872  1.0000
  C   C5639     1.0  0.73151  0.63322  0.83222  1.0000
  C   C5640     1.0  0.65711  0.63748  0.84601  1.0000
  C   C5641     1.0  0.64956  0.63477  0.83394  1.0000
  C   C5642     1.0  0.65998  0.60720  0.91158  1.0000
  C   C5643     1.0  0.66768  0.58966  0.91201  1.0000
  C   C5644     1.0  0.68025  0.58488  0.89786  1.0000
  H   H4503     1.0  0.64955  0.64634  0.85430  1.0000
  H   H4504     1.0  0.63634  0.64149  0.83306  1.0000
  C   C5645     1.0  0.49651  0.64983  0.96648  1.0000
  H   H4505     1.0  0.64970  0.61084  0.92225  1.0000
  H   H4506     1.0  0.66353  0.57973  0.92308  1.0000
  H   H4507     1.0  0.68580  0.57124  0.89794  1.0000
  C   C5646     1.0  0.56121  0.88799  0.89539  1.0000
  C   C5647     1.0  0.56944  0.90054  0.89582  1.0000
  C   C5648     1.0  0.58370  0.90424  0.88274  1.0000
  C   C5649     1.0  0.58973  0.89540  0.86921  1.0000
  C   C5650     1.0  0.58133  0.88300  0.86850  1.0000
  C   C5651     1.0  0.56714  0.87920  0.88183  1.0000
  P   P187      1.0  0.59016  0.87065  0.85177  1.0000
  C   C5652     1.0  0.59934  0.88458  0.83200  1.0000
  C   C5653     1.0  0.60600  0.85157  0.85915  1.0000
  C   C5654     1.0  0.61066  0.84874  0.87516  1.0000
  C   C5655     1.0  0.52652  0.81613  0.80309  1.0000
  C   C5656     1.0  0.63027  0.82152  0.87048  1.0000
  C   C5657     1.0  0.62572  0.82428  0.85455  1.0000
  C   C5658     1.0  0.61329  0.83898  0.84913  1.0000
  C   C5659     1.0  0.61554  0.87862  0.82177  1.0000
  H   H4508     1.0  0.85845  0.53372  0.84628  1.0000
  H   H4509     1.0  0.62372  0.75247  0.94303  1.0000
  H   H4510     1.0  0.63378  0.84262  0.79560  1.0000
  C   C5660     1.0  0.59017  0.90175  0.82674  1.0000
  C   C5661     1.0  0.57309  0.86327  0.84802  1.0000
  C   C5662     1.0  0.56751  0.84871  0.85955  1.0000
  C   C5663     1.0  0.55390  0.84320  0.85722  1.0000
  C   C5664     1.0  0.54599  0.85193  0.84312  1.0000
  C   C5665     1.0  0.55165  0.86624  0.83142  1.0000
  C   C5666     1.0  0.56512  0.87192  0.83385  1.0000
  H   H4511     1.0  0.55041  0.88482  0.90575  1.0000
  H   H4512     1.0  0.56495  0.90721  0.90643  1.0000
  H   H4513     1.0  0.59028  0.91376  0.88321  1.0000
  H   H4514     1.0  0.60109  0.89808  0.85944  1.0000
  H   H4515     1.0  0.56080  0.86926  0.88204  1.0000
  H   H4516     1.0  0.60489  0.85787  0.88350  1.0000
  C   C5667     1.0  0.69485  0.59980  0.93965  1.0000
  C   C5668     1.0  0.54945  0.81854  0.81505  1.0000
  H   H4517     1.0  0.63164  0.81489  0.84648  1.0000
  H   H4518     1.0  0.60944  0.84056  0.83705  1.0000
  H   H4519     1.0  0.62302  0.86557  0.82536  1.0000
  C   C5669     1.0  0.71581  0.59305  0.95787  1.0000
  C   C5670     1.0  0.52915  0.78611  0.89800  1.0000
  C   C5671     1.0  0.52070  0.83004  0.95059  1.0000
  H   H4520     1.0  0.57762  0.90663  0.83432  1.0000
  H   H4521     1.0  0.57365  0.84161  0.87042  1.0000
  H   H4522     1.0  0.54972  0.83202  0.86635  1.0000
  H   H4523     1.0  0.53561  0.84756  0.84109  1.0000
  H   H4524     1.0  0.54587  0.87280  0.82021  1.0000
  H   H4525     1.0  0.56938  0.88285  0.82439  1.0000
  P   P188      1.0  0.77556  0.57940  0.90243  1.0000
  C   C5672     1.0  0.78005  0.56211  0.92104  1.0000
  C   C5673     1.0  0.75827  0.57581  0.89510  1.0000
  C   C5674     1.0  0.74101  0.58054  0.90384  1.0000
  C   C5675     1.0  0.72761  0.57697  0.89895  1.0000
  C   C5676     1.0  0.73128  0.56893  0.88506  1.0000
  C   C5677     1.0  0.74837  0.56426  0.87622  1.0000
  C   C5678     1.0  0.76184  0.56759  0.88124  1.0000
  C   C5679     1.0  0.79664  0.55701  0.92488  1.0000
  C   C5680     1.0  0.79972  0.54459  0.94000  1.0000
  C   C5681     1.0  0.78634  0.53734  0.95144  1.0000
  C   C5682     1.0  0.76989  0.54218  0.94769  1.0000
  C   C5683     1.0  0.76675  0.55442  0.93251  1.0000
  C   C5684     1.0  0.79496  0.57994  0.88550  1.0000
  C   C5685     1.0  0.80037  0.59562  0.87728  1.0000
  C   C5686     1.0  0.81550  0.59579  0.86436  1.0000
  C   C5687     1.0  0.82530  0.58037  0.85948  1.0000
  C   C5688     1.0  0.82001  0.56479  0.86755  1.0000
  C   C5689     1.0  0.80504  0.56451  0.88065  1.0000
  H   H4526     1.0  0.73800  0.58637  0.91490  1.0000
  H   H4527     1.0  0.71441  0.58008  0.90616  1.0000
  H   H4528     1.0  0.72094  0.56595  0.88134  1.0000
  H   H4529     1.0  0.75121  0.55762  0.86574  1.0000
  H   H4530     1.0  0.77497  0.56335  0.87448  1.0000
  H   H4531     1.0  0.80722  0.56266  0.91637  1.0000
  H   H4532     1.0  0.81251  0.54052  0.94291  1.0000
  H   H4533     1.0  0.78884  0.52779  0.96305  1.0000
  H   H4534     1.0  0.75961  0.53625  0.95638  1.0000
  H   H4535     1.0  0.75393  0.55764  0.92988  1.0000
  H   H4536     1.0  0.79320  0.60773  0.88087  1.0000
  H   H4537     1.0  0.81975  0.60784  0.85824  1.0000
  H   H4538     1.0  0.83713  0.58041  0.84960  1.0000
  H   H4539     1.0  0.82770  0.55284  0.86382  1.0000
  H   H4540     1.0  0.80135  0.55225  0.88705  1.0000
  H   H4541     1.0  0.57018  0.75404  0.91578  1.0000
  H   H4542     1.0  0.68356  0.64637  0.89212  1.0000
  C   C5690     1.0  0.56867  0.69077  0.84225  1.0000
  C   C5691     1.0  0.62926  0.51777  0.89568  1.0000
  H   H4543     1.0  0.65808  0.63343  0.89676  1.0000
  C   C5692     1.0  0.95930  0.50701  0.84520  1.0000
  C   C5693     1.0  0.50296  0.80249  0.91321  1.0000
  P   P189      1.0  0.54097  0.71015  0.86209  1.0000
  C   C5694     1.0  0.54563  0.75659  0.97113  1.0000
  C   C5695     1.0  0.54233  0.74054  0.83615  1.0000
  C   C5696     1.0  0.72477  0.60498  0.94557  1.0000
  C   C5697     1.0  0.97866  0.52414  0.82446  1.0000
  H   H4544     1.0  0.69299  0.58254  0.96490  1.0000
  H   H4545     1.0  0.57544  0.78880  0.94349  1.0000
  H   H4546     1.0  0.65678  0.74762  0.97719  1.0000
  H   H4547     1.0  0.62582  0.83127  0.89343  1.0000
  C   C5698     1.0  0.62265  0.83369  0.88083  1.0000
  C   C5699     1.0  0.61985  0.71132  0.93543  1.0000
  H   H4548     1.0  0.55703  0.75006  0.88680  1.0000
  H   H4549     1.0  0.52010  0.76079  0.80384  1.0000
  H   H4550     1.0  0.69922  0.61866  0.91561  1.0000
  H   H4551     1.0  0.65296  0.62117  0.81395  1.0000
  H   H4552     1.0  0.64696  0.76142  0.94948  1.0000
  C   C5700     1.0  0.68225  0.51366  0.85973  1.0000
  H   H4553     1.0  0.66445  0.70105  0.87326  1.0000
  C   C5701     1.0  0.67424  0.67398  0.88437  1.0000
  C   C5702     1.0  0.67416  0.62877  0.84737  1.0000
  H   H4554     1.0  0.75636  0.61374  0.88745  1.0000
  C   C5703     1.0  0.75984  0.61468  0.89890  1.0000
  H   H4555     1.0  0.58651  0.72933  0.93418  1.0000
  H   H4556     1.0  0.54404  0.76326  0.81551  1.0000
  H   H4557     1.0  0.63553  0.78334  0.92149  1.0000
  C   C5704     1.0  0.53240  0.82422  0.81264  1.0000
  C   C5705     1.0  0.76084  0.63250  0.91749  1.0000
  C   C5706     1.0  0.56061  0.73733  0.88389  1.0000
  C   C5707     1.0  0.68344  0.61711  0.83663  1.0000
  H   H4558     1.0  0.75634  0.57510  0.95664  1.0000
  H   H4559     1.0  0.51539  0.67229  0.91524  1.0000
  H   H4560     1.0  0.59103  0.56563  0.97490  1.0000
  H   H4561     1.0  0.52274  0.57874  0.97357  1.0000
  H   H4562     1.0  0.75795  0.64511  0.92066  1.0000
  H   H4563     1.0  0.57583  0.70038  0.84116  1.0000
  S   S767      1.0  0.62884  0.79747  0.95164  1.0000
  C   C5708     1.0  0.52644  0.68897  0.89207  1.0000
  H   H4564     1.0  0.59208  0.70029  0.88696  1.0000
  C   C5709     1.0  0.51753  0.88215  0.89498  1.0000
  H   H4565     1.0  0.55390  0.82449  0.82274  1.0000
  H   H4566     1.0  0.67077  0.66553  0.84141  1.0000
  C   C5710     1.0  0.52356  0.70477  0.87988  1.0000
  H   H4567     1.0  0.74956  0.64242  0.89483  1.0000
  C   C5711     1.0  0.53357  0.72706  0.84456  1.0000
  C   C5712     1.0  0.57004  0.70459  0.87588  1.0000
  C   C5713     1.0  0.51129  0.78903  0.90452  1.0000
  C   C5714     1.0  0.58051  0.70941  0.88369  1.0000
  H   H4568     1.0  0.73611  0.60744  0.94785  1.0000
  C   C5715     1.0  0.63961  0.52658  0.85274  1.0000
  H   H4569     1.0  0.53890  0.67987  0.89063  1.0000
  H   H4570     1.0  0.62821  0.57039  0.85020  1.0000
  C   C5716     1.0  0.61560  0.69194  0.96384  1.0000
  H   H4571     1.0  0.69638  0.60971  0.83782  1.0000
  H   H4572     1.0  0.63946  0.80980  0.87495  1.0000
  C   C5717     1.0  0.64521  0.50808  0.88829  1.0000
  C   C5718     1.0  0.55010  0.73261  0.87600  1.0000
  C   C5719     1.0  0.63493  0.52643  0.83757  1.0000
  H   H4573     1.0  0.94079  0.51969  0.86450  1.0000
  C   C5720     1.0  0.63759  0.54261  0.85688  1.0000
  P   P190      1.0  0.60241  0.72715  0.96316  1.0000
  H   H4574     1.0  0.89985  0.50449  0.80120  1.0000
  C   C5721     1.0  0.62789  0.74614  0.95517  1.0000
  C   C5722     1.0  0.52391  0.75135  0.81513  1.0000
  C   C5723     1.0  0.57518  0.75624  0.92568  1.0000
  H   H4575     1.0  0.72035  0.55890  0.95693  1.0000
  C   C5724     1.0  0.57664  0.67710  0.83375  1.0000
  H   H4576     1.0  0.61950  0.52456  0.88805  1.0000
  C   C5725     1.0  0.62847  0.69705  0.92796  1.0000
  C   C5726     1.0  0.71867  0.61431  0.93044  1.0000
  C   C5727     1.0  0.61307  0.90659  0.80138  1.0000
  C   C5728     1.0  0.56060  0.80460  0.80828  1.0000
  C   C5729     1.0  0.50811  0.82345  0.94741  1.0000
  H   H4577     1.0  0.89991  0.53431  0.80120  1.0000
  H   H4578     1.0  0.61097  0.68976  0.97780  1.0000
  C   C5730     1.0  0.50488  0.79722  0.86136  1.0000
  H   H4579     1.0  0.55320  0.74157  0.84055  1.0000
  H   H4580     1.0  0.56533  0.78402  0.91983  1.0000
  C   C5731     1.0  0.75748  0.57913  0.96764  1.0000
  H   H4581     1.0  0.61895  0.56990  0.82398  1.0000
  C   C5732     1.0  0.52003  0.72576  0.83800  1.0000
  C   C5733     1.0  0.53790  0.80232  0.79606  1.0000
  H   H4582     1.0  0.57355  0.79975  0.81084  1.0000
  C   C5734     1.0  0.62232  0.88960  0.80651  1.0000
  C   C5735     1.0  0.62589  0.51901  0.91298  1.0000
  H   H4583     1.0  0.63927  0.79158  0.78479  1.0000
  C   C5736     1.0  0.51245  0.81330  0.91523  1.0000
  C   C5737     1.0  0.52547  0.82437  0.96674  1.0000
  H   H4584     1.0  0.63719  0.51433  0.83362  1.0000
  C   C5738     1.0  0.70388  0.61153  0.92735  1.0000
  C   C5739     1.0  0.65386  0.50018  0.91601  1.0000
  C   C5740     1.0  0.88177  0.58113  0.97945  1.0000
  C   C5741     1.0  0.70785  0.50057  0.84090  1.0000
  C   C5742     1.0  0.53955  0.95436  0.80487  1.0000
  H   H4585     1.0  0.61695  0.50214  0.86144  1.0000
  H   H4586     1.0  0.61831  0.91509  0.78954  1.0000
  H   H4587     1.0  0.50323  0.60837  0.93070  1.0000
  C   C5743     1.0  0.49380  0.84259  0.80789  1.0000
  H   H4588     1.0  0.63472  0.88487  0.79860  1.0000
  C   C5744     1.0  0.50511  0.86460  0.92218  1.0000
  C   C5745     1.0  0.65726  0.49884  0.89873  1.0000
  C   C5746     1.0  0.50609  0.80469  0.97642  1.0000
  C   C5747     1.0  0.82711  0.49072  0.82424  1.0000
  S   S768      1.0  0.94218  0.49441  0.80320  1.0000
  C   C5748     1.0  0.68049  0.49296  0.84467  1.0000
  H   H4589     1.0  0.64795  0.68501  0.97542  1.0000
  H   H4590     1.0  0.50379  0.78116  0.90247  1.0000
  H   H4591     1.0  0.55170  0.95489  0.82479  1.0000
  H   H4592     1.0  0.50230  0.74898  0.89757  1.0000
  H   H4593     1.0  0.49263  0.79391  0.86312  1.0000
  C   C5749     1.0  0.97274  0.50872  0.83057  1.0000
  H   H4594     1.0  0.55934  0.93716  0.97780  1.0000
  P   P191      1.0  0.97733  0.55857  0.82324  1.0000
  C   C5750     1.0  0.87409  0.59865  0.97390  1.0000
  C   C5751     1.0  0.49406  0.71193  0.89611  1.0000
  H   H4595     1.0  0.88287  0.49306  0.94658  1.0000
  C   C5752     1.0  0.49905  0.74614  0.91166  1.0000
  H   H4596     1.0  0.66284  0.50844  0.98219  1.0000
  H   H4597     1.0  0.56344  0.78547  0.79387  1.0000
  H   H4598     1.0  0.49883  0.86339  0.93578  1.0000
  H   H4599     1.0  0.50726  0.89093  0.91892  1.0000
  C   C5753     1.0  0.84497  0.48975  0.81922  1.0000
  C   C5754     1.0  0.52361  0.58519  0.98304  1.0000
  Fe  Fe384     1.0  0.72206  0.49090  0.89979  1.0000
  H   H4600     1.0  0.66900  0.61591  0.96810  1.0000
  C   C5755     1.0  0.65875  0.60903  0.97104  1.0000
  H   H4601     1.0  0.66939  0.49080  0.89348  1.0000
  H   H4602     1.0  0.90413  0.50055  0.97772  1.0000
  C   C5756     1.0  0.75393  0.49128  0.96462  1.0000
  H   H4603     1.0  0.55036  0.63029  0.97464  1.0000
  H   H4604     1.0  0.70417  0.61828  0.97840  1.0000
  C   C5757     1.0  0.69813  0.49118  0.83710  1.0000
  C   C5758     1.0  0.64208  0.48777  0.86682  1.0000
  H   H4605     1.0  0.86594  0.62403  0.97983  1.0000
  P   P192      1.0  0.72192  0.58211  0.97844  1.0000
  C   C5759     1.0  0.59368  0.59719  0.98175  1.0000
  H   H4606     1.0  0.50415  0.74044  0.98315  1.0000
  H   H4607     1.0  0.61407  0.87047  0.78432  1.0000
  H   H4608     1.0  0.55171  0.98616  0.81452  1.0000
  C   C5760     1.0  0.53311  0.98165  0.78413  1.0000
