data_image0
_chemical_formula_structural       FeS2HSHFeSFeHSH2SFeSCH4SC2H2SC6H4C2FeCHC7HCFeH4CHCH2CFeHC9PC9H2SH2CH9C2H2SCH2CH2CHCH2CHC8PC8H3C2H2C3S2C2H2C2HC3H6CHCSHC3SHCH2CH5CHCHFeSCFeSHFeSFeCS2HSHSCHC6H4CFeC11PC6HC5HC3H9CHCHSH3CH3C2HCHC3H4C2H2C5HSCHCHCSHCH2SH2CH2CH3C6PC8HCPCHCH3CH3C2HCH7CSCHCHCHCHCHC2HCH2C5HFeHC4H3SFeSCHSC3HSC2H2C2HC4H3CHCHC4HCH2C2HCHFeSCPC6HCFeC4FeCH2CH2C2HCHCHCHCHCHC4FeH2CHC3PCHS2HC2HCHC2HCHCHCH4S2CHC2HC3HCH5PHSCHFeSHFeHFeSHFeS2FeSFeS3FeH3SC6HCH2C2HCH3SC6H3C6HCHCHPSC6H4C6HC3H3CH6SC2HC2HC2H6C2HC2SHFeCHC2HC7PC3SC12H18C6PC4HC4SH2C3HC2H12CSHC3H3CHCH2PHC2H2CHCHCHCFeHCHC4HSFeS2FeS2FeSFeHS2CSCSPFeSFeHSH2CSCH2C3H2C2H3C6H4C6H4CHC8PC17H18C6HC2HCH2C4HCH2CHC4H2C3H2C4H2SHC3HCSHC5H2C3HC4H4C3H2C2HC3HCFeHCH2C3HC2PH2FeCH3C2HCH3C2H4CH2CSHC3HC2HC2H3C2HC2HC2H2SHCSH2CH2SCFeS2FeS2FeSFeS3HSHSFe2SC6H4C6HC7HC2H3C3HSH5C4H3CSCH3CFeCH4CHCH2C3HC3FeH2PHC2HC5H2C4HCHC2HC3HC3PC4HC11H5C2H8PH4C2HC3HC2HSH2C5HC4HPC6HC5H2C3HC3H3C2HC2HCH2CH2FeC2HCH3C3HPC2HSCFeS2FeS2FeSFeS5CHC2H4C6H2C4H2CH4C6H4C2H5CHC2HFeHC3HC2HC4PC7HC2PC4H2CHC2H7C2H7C2HCH5CH2CH3SCHCHC2HCHC2H2CHCHFeC7HC2HCPCHC3H2C2H2CHCHCHSPC8HCHC2H2CH4C2H2C2H2CHC3HC2SFeH2CHCHC2SCFeS2FeS2FeSFeHS2HC6H4CH2CH2C6H4C3HC2HCHCHPCHCH3C6SC4SCH2C2HCH6CH3C7PC16H17CHC3HC3SHC2HCHCH2PCHC2H2CH2CHCFeCHCFeC2H3C4S2C3SC3HSHCH5PHCHC3HC2HC2FeH2CH3C3HCHCHC2PHC2H3CHCHCFeS2FeS2FeHFeHS2C2H2CH3C6H7C2HC2H2C6HC3HC2H3C3H3C3HPC3HSC2H6C2HC8HC5HC3H4CHCH6C2H3CHC3P2C4H3C4HC3HCH3CHSCH2C2H3C3HCHC2HCH2SC5SHC2FeCSHC3HC2S2PCFeSCHC5H3C3HCSC6H6C2HC2SC7HCH5C3HFeH4CH3CPCSHCH3C2HC2HC2H3C4H2C4SHC6H2CH2C3HC3H2CSHCH3PH4C2H3CH2C4HC3FeCHCHCHCFeH2CFeS2CHFeSH2SC2SFeCSFeS2H2CHS2HC9HC4HC2H2SH7C2PHC2H5C2HCH2C3SH5C2HC3H2C2HCPH4C3H2C2H2FeC4HC2H3C2H3CHCH3CPH2C3H3FeH2CHC6PC8HC3HC2HC5HC2HCH5C5H2C2SHCH2FeH2CSC4HC2HFeHSH2FeHSH3SH2C2HCHCHCH2CHC4HC6H4FeCH2SCHC3SCHCHSH2C4PHC6H4CH2CH2CH7CH2CHSC5HCH2FeC2H2C2H2C3H3C2H3SFeCHC3HSC5HC3FeC3HCHC2H2CHC3SHCHC3H2CH3S2CHC2
_chemical_formula_sum              "Fe80 S160 H960 C1200 P40"
_cell_length_a       38.9291
_cell_length_b       39.1393
_cell_length_c       35.3162
_cell_angle_alpha    90.0224
_cell_angle_beta     89.9453
_cell_angle_gamma    90.486

_space_group_name_H-M_alt    "P 1"
_space_group_IT_number       1

loop_
  _space_group_symop_operation_xyz
  'x, y, z'

loop_
  _atom_site_type_symbol
  _atom_site_label
  _atom_site_symmetry_multiplicity
  _atom_site_fract_x
  _atom_site_fract_y
  _atom_site_fract_z
  _atom_site_occupancy
  Fe  Fe1       1.0  0.09063  0.27461  0.07732  1.0000
  S   S1        1.0  0.09979  0.22717  0.11196  1.0000
  S   S2        1.0  0.12507  0.28382  0.02659  1.0000
  H   H1        1.0  0.02544  0.36104  0.00336  1.0000
  S   S3        1.0  0.03286  0.24936  0.16274  1.0000
  H   H2        1.0  0.16523  0.35781  0.36814  1.0000
  Fe  Fe2       1.0  0.08956  0.26120  0.16233  1.0000
  S   S4        1.0  0.12056  0.26005  0.21671  1.0000
  Fe  Fe3       1.0  0.04258  0.21920  0.10906  1.0000
  H   H3        1.0  0.07661  0.42909  0.43140  1.0000
  S   S5        1.0  0.08558  0.30866  0.12787  1.0000
  H   H4        1.0  0.04380  0.32667  0.41054  1.0000
  H   H5        1.0  0.26976  0.46262  0.01473  1.0000
  S   S6        1.0  0.13891  0.46912  0.44033  1.0000
  Fe  Fe4       1.0  0.20397  0.42747  0.32306  1.0000
  S   S7        1.0  0.21205  0.37813  0.29039  1.0000
  C   C1        1.0  0.11884  0.38307  0.99153  1.0000
  H   H6        1.0  0.30419  0.01713  0.21899  1.0000
  H   H7        1.0  0.31556  0.03800  0.12448  1.0000
  H   H8        1.0  0.10310  0.37833  0.40101  1.0000
  H   H9        1.0  0.25358  0.07005  0.00715  1.0000
  S   S8        1.0  0.23941  0.47012  0.30464  1.0000
  C   C2        1.0  0.00471  0.24565  0.28842  1.0000
  C   C3        1.0  0.20209  0.40073  0.03272  1.0000
  H   H10       1.0  0.08959  0.45779  0.04832  1.0000
  H   H11       1.0  0.20188  0.03757  0.04389  1.0000
  S   S9        1.0  0.21849  0.43248  0.38479  1.0000
  C   C4        1.0  0.18294  0.34725  0.27195  1.0000
  C   C5        1.0  0.15446  0.35551  0.24936  1.0000
  C   C6        1.0  0.13528  0.32929  0.23104  1.0000
  C   C7        1.0  0.14425  0.29484  0.23599  1.0000
  C   C8        1.0  0.17250  0.28702  0.25875  1.0000
  C   C9        1.0  0.19177  0.31291  0.27622  1.0000
  H   H12       1.0  0.14771  0.38199  0.24539  1.0000
  H   H13       1.0  0.11352  0.33562  0.21346  1.0000
  H   H14       1.0  0.17974  0.26062  0.26270  1.0000
  H   H15       1.0  0.21402  0.30619  0.29288  1.0000
  C   C10       1.0  0.02780  0.12766  0.08440  1.0000
  C   C11       1.0  0.05677  0.11471  0.10274  1.0000
  Fe  Fe5       1.0  0.25083  0.47734  0.36655  1.0000
  C   C12       1.0  0.04569  0.05762  0.07612  1.0000
  H   H16       1.0  0.03599  0.20243  0.37423  1.0000
  C   C13       1.0  0.31615  0.47986  0.98745  1.0000
  C   C14       1.0  0.03054  0.29518  0.25883  1.0000
  C   C15       1.0  0.04531  0.47107  0.44916  1.0000
  C   C16       1.0  0.31590  0.46631  0.20049  1.0000
  C   C17       1.0  0.03988  0.41365  0.47368  1.0000
  C   C18       1.0  0.28967  0.01926  0.07454  1.0000
  C   C19       1.0  0.11367  0.35287  0.01269  1.0000
  H   H17       1.0  0.25621  0.29849  0.38198  1.0000
  C   C20       1.0  0.29588  0.43654  0.20075  1.0000
  Fe  Fe6       1.0  0.02941  0.29553  0.12536  1.0000
  H   H18       1.0  0.09845  0.35328  0.03834  1.0000
  H   H19       1.0  0.00260  0.21816  0.29110  1.0000
  H   H20       1.0  0.07200  0.13132  0.12068  1.0000
  H   H21       1.0  0.08749  0.07008  0.11382  1.0000
  C   C21       1.0  0.17675  0.33340  0.37444  1.0000
  H   H22       1.0  0.23561  0.45779  0.10636  1.0000
  C   C22       1.0  0.29685  0.07921  0.09014  1.0000
  H   H23       1.0  0.05813  0.48929  0.43067  1.0000
  H   H24       1.0  0.04550  0.24348  0.24712  1.0000
  C   C23       1.0  0.27144  0.38592  0.04393  1.0000
  Fe  Fe7       1.0  0.17488  0.46992  0.38896  1.0000
  H   H25       1.0  0.12350  0.37267  0.14454  1.0000
  C   C24       1.0  0.22844  0.30004  0.38206  1.0000
  C   C25       1.0  0.21259  0.33128  0.37510  1.0000
  C   C26       1.0  0.27939  0.08815  0.05709  1.0000
  C   C27       1.0  0.09826  0.22351  0.31065  1.0000
  C   C28       1.0  0.07200  0.20466  0.32795  1.0000
  C   C29       1.0  0.05638  0.21705  0.36081  1.0000
  C   C30       1.0  0.06718  0.24818  0.37651  1.0000
  C   C31       1.0  0.09391  0.26709  0.35948  1.0000
  C   C32       1.0  0.10920  0.25446  0.32642  1.0000
  P   P1        1.0  0.11012  0.30633  0.38031  1.0000
  C   C33       1.0  0.15646  0.30415  0.38097  1.0000
  C   C34       1.0  0.20846  0.27081  0.38860  1.0000
  C   C35       1.0  0.17261  0.27283  0.38813  1.0000
  C   C36       1.0  0.09669  0.34344  0.35385  1.0000
  C   C37       1.0  0.08857  0.34098  0.31524  1.0000
  C   C38       1.0  0.07933  0.37012  0.29482  1.0000
  C   C39       1.0  0.07836  0.40193  0.31267  1.0000
  C   C40       1.0  0.08662  0.40467  0.35101  1.0000
  C   C41       1.0  0.09581  0.37559  0.37157  1.0000
  H   H26       1.0  0.11017  0.21427  0.28483  1.0000
  H   H27       1.0  0.06367  0.18059  0.31572  1.0000
  S   S10       1.0  0.30140  0.49279  0.39513  1.0000
  H   H28       1.0  0.05494  0.25681  0.40220  1.0000
  H   H29       1.0  0.12982  0.26852  0.31299  1.0000
  C   C42       1.0  0.02864  0.25984  0.26340  1.0000
  H   H30       1.0  0.15751  0.24991  0.39327  1.0000
  H   H31       1.0  0.08998  0.31683  0.30051  1.0000
  H   H32       1.0  0.07364  0.36810  0.26487  1.0000
  H   H33       1.0  0.07182  0.42457  0.29664  1.0000
  H   H34       1.0  0.08674  0.42956  0.36448  1.0000
  H   H35       1.0  0.27518  0.11484  0.05048  1.0000
  H   H36       1.0  0.29817  0.37942  0.04808  1.0000
  H   H37       1.0  0.21912  0.37085  0.17996  1.0000
  H   H38       1.0  0.04852  0.30596  0.23850  1.0000
  C   C43       1.0  0.04595  0.31864  0.47056  1.0000
  C   C44       1.0  0.26716  0.06270  0.03264  1.0000
  H   H39       1.0  0.19623  0.26412  0.16768  1.0000
  H   H40       1.0  0.16652  0.27550  0.10684  1.0000
  S   S11       1.0  0.05683  0.01353  0.07382  1.0000
  C   C45       1.0  0.09721  0.43934  0.06930  1.0000
  H   H41       1.0  0.22346  0.31187  0.20319  1.0000
  H   H42       1.0  0.06225  0.38377  0.13266  1.0000
  C   C46       1.0  0.00815  0.10541  0.06149  1.0000
  H   H43       1.0  0.14085  0.29282  0.45562  1.0000
  H   H44       1.0  0.29751  0.45227  0.07618  1.0000
  C   C47       1.0  0.29692  0.46799  0.01825  1.0000
  H   H45       1.0  0.15114  0.44880  0.06150  1.0000
  C   C48       1.0  0.09408  0.30963  0.42814  1.0000
  H   H46       1.0  0.17523  0.40465  0.02744  1.0000
  H   H47       1.0  0.04507  0.42577  0.08411  1.0000
  C   C49       1.0  0.22403  0.39664  0.00165  1.0000
  H   H48       1.0  0.22073  0.24651  0.39377  1.0000
  C   C50       1.0  0.06544  0.07988  0.09884  1.0000
  C   C51       1.0  0.19429  0.45832  0.20636  1.0000
  C   C52       1.0  0.12872  0.32231  0.00073  1.0000
  C   C53       1.0  0.07208  0.42125  0.08938  1.0000
  C   C54       1.0  0.08179  0.39749  0.11666  1.0000
  C   C55       1.0  0.11659  0.39102  0.12297  1.0000
  C   C56       1.0  0.14203  0.40798  0.10165  1.0000
  C   C57       1.0  0.13208  0.43355  0.07620  1.0000
  P   P2        1.0  0.18689  0.39973  0.11079  1.0000
  C   C58       1.0  0.20042  0.43182  0.14446  1.0000
  C   C59       1.0  0.19010  0.35707  0.12964  1.0000
  C   C60       1.0  0.17587  0.32974  0.10899  1.0000
  C   C61       1.0  0.17824  0.29635  0.12261  1.0000
  C   C62       1.0  0.19527  0.28993  0.15662  1.0000
  C   C63       1.0  0.21039  0.31690  0.17674  1.0000
  C   C64       1.0  0.20771  0.35043  0.16348  1.0000
  C   C65       1.0  0.18516  0.43278  0.18048  1.0000
  H   H49       1.0  0.16258  0.33419  0.08247  1.0000
  H   H50       1.0  0.10756  0.40668  0.00092  1.0000
  H   H51       1.0  0.05301  0.30481  0.99452  1.0000
  C   C66       1.0  0.22431  0.45732  0.13434  1.0000
  C   C67       1.0  0.21479  0.39813  0.06976  1.0000
  H   H52       1.0  0.24386  0.48157  0.45049  1.0000
  H   H53       1.0  0.25950  0.38650  0.10330  1.0000
  C   C68       1.0  0.01718  0.07072  0.05704  1.0000
  C   C69       1.0  0.23330  0.48295  0.16029  1.0000
  C   C70       1.0  0.24961  0.39032  0.07505  1.0000
  S   S12       1.0  0.15713  0.46029  0.32875  1.0000
  S   S13       1.0  0.03402  0.26520  0.07152  1.0000
  C   C71       1.0  0.05991  0.31940  0.43415  1.0000
  C   C72       1.0  0.01925  0.48178  0.47353  1.0000
  H   H54       1.0  0.16610  0.41380  0.18852  1.0000
  H   H55       1.0  0.22805  0.35383  0.36923  1.0000
  C   C73       1.0  0.27211  0.02804  0.04121  1.0000
  C   C74       1.0  0.25865  0.38922  0.00720  1.0000
  H   H56       1.0  0.30045  0.48647  0.48070  1.0000
  C   C75       1.0  0.29768  0.41374  0.17041  1.0000
  C   C76       1.0  0.21831  0.48342  0.19630  1.0000
  C   C77       1.0  0.05579  0.43709  0.44951  1.0000
  H   H57       1.0  0.01932  0.32518  0.47490  1.0000
  H   H58       1.0  0.32116  0.40238  0.11686  1.0000
  H   H59       1.0  0.30622  0.09895  0.10917  1.0000
  H   H60       1.0  0.27891  0.43113  0.22449  1.0000
  H   H61       1.0  0.18248  0.45887  0.23420  1.0000
  H   H62       1.0  0.28231  0.39053  0.17090  1.0000
  C   C78       1.0  0.31289  0.46200  0.05310  1.0000
  H   H63       1.0  0.15841  0.48360  0.00282  1.0000
  C   C79       1.0  0.19055  0.01439  0.03273  1.0000
  S   S14       1.0  0.01324  0.17030  0.09179  1.0000
  H   H64       1.0  0.00174  0.05403  0.03940  1.0000
  C   C80       1.0  0.30204  0.04481  0.09881  1.0000
  C   C81       1.0  0.11443  0.30045  0.45931  1.0000
  C   C82       1.0  0.15513  0.00926  0.03710  1.0000
  S   S15       1.0  0.31531  0.02736  0.39312  1.0000
  H   H65       1.0  0.13954  0.02829  0.05126  1.0000
  C   C83       1.0  0.31956  0.42065  0.13984  1.0000
  H   H66       1.0  0.23188  0.03184  0.46839  1.0000
  H   H67       1.0  0.31459  0.48369  0.22434  1.0000
  C   C84       1.0  0.00909  0.31648  0.27994  1.0000
  H   H68       1.0  0.27541  0.38555  0.98296  1.0000
  H   H69       1.0  0.01082  0.34354  0.27512  1.0000
  H   H70       1.0  0.32881  0.43219  0.35707  1.0000
  H   H71       1.0  0.00112  0.46504  0.36465  1.0000
  H   H72       1.0  0.04802  0.38739  0.47359  1.0000
  C   C85       1.0  0.32924  0.01268  0.20654  1.0000
  H   H73       1.0  0.12778  0.49449  0.25959  1.0000
  C   C86       1.0  0.24842  0.46887  0.47729  1.0000
  H   H74       1.0  0.19771  0.44675  0.48004  1.0000
  Fe  Fe8       1.0  0.19169  0.41925  0.89035  1.0000
  S   S16       1.0  0.22737  0.37493  0.88678  1.0000
  C   C87       1.0  0.11030  0.47316  0.87311  1.0000
  Fe  Fe9       1.0  0.22339  0.45256  0.81976  1.0000
  S   S17       1.0  0.26146  0.40996  0.81258  1.0000
  H   H75       1.0  0.02906  0.04559  0.60164  1.0000
  Fe  Fe10      1.0  0.21598  0.37593  0.82448  1.0000
  S   S18       1.0  0.20230  0.32802  0.79159  1.0000
  Fe  Fe11      1.0  0.26916  0.41382  0.87572  1.0000
  C   C88       1.0  0.01798  0.07049  0.59707  1.0000
  S   S19       1.0  0.17777  0.41807  0.82860  1.0000
  S   S20       1.0  0.23379  0.45870  0.88232  1.0000
  H   H76       1.0  0.16002  0.37423  0.64250  1.0000
  S   S21       1.0  0.07621  0.33435  0.67750  1.0000
  H   H77       1.0  0.11608  0.29308  0.51988  1.0000
  S   S22       1.0  0.15137  0.42216  0.93705  1.0000
  C   C89       1.0  0.13990  0.38307  0.95920  1.0000
  H   H78       1.0  0.23836  0.03419  0.63124  1.0000
  C   C90       1.0  0.16549  0.32957  0.76222  1.0000
  C   C91       1.0  0.15263  0.36081  0.74975  1.0000
  C   C92       1.0  0.12504  0.36163  0.72422  1.0000
  C   C93       1.0  0.10927  0.33133  0.71163  1.0000
  C   C94       1.0  0.12137  0.29998  0.72489  1.0000
  C   C95       1.0  0.14972  0.29913  0.74974  1.0000
  H   H79       1.0  0.16503  0.38438  0.75812  1.0000
  H   H80       1.0  0.11626  0.38595  0.71376  1.0000
  H   H81       1.0  0.10957  0.27645  0.71519  1.0000
  H   H82       1.0  0.15957  0.27481  0.75913  1.0000
  C   C96       1.0  0.23839  0.02186  0.49611  1.0000
  Fe  Fe12      1.0  0.03765  0.29334  0.66048  1.0000
  C   C97       1.0  0.24433  0.00331  0.93117  1.0000
  C   C98       1.0  0.03696  0.08151  0.74276  1.0000
  C   C99       1.0  0.01401  0.42424  0.49841  1.0000
  C   C100      1.0  0.29895  0.02499  0.95407  1.0000
  C   C101      1.0  0.31415  0.43425  0.62622  1.0000
  C   C102      1.0  0.04149  0.37140  0.76155  1.0000
  C   C103      1.0  0.06371  0.39814  0.77102  1.0000
  C   C104      1.0  0.08116  0.39782  0.80557  1.0000
  C   C105      1.0  0.07600  0.37086  0.83100  1.0000
  C   C106      1.0  0.05353  0.34386  0.82172  1.0000
  C   C107      1.0  0.03653  0.34426  0.78658  1.0000
  P   P3        1.0  0.04687  0.30889  0.85444  1.0000
  C   C108      1.0  0.08283  0.27999  0.85449  1.0000
  C   C109      1.0  0.20652  0.48271  0.61081  1.0000
  C   C110      1.0  0.30215  0.46842  0.68183  1.0000
  C   C111      1.0  0.15307  0.05262  0.61057  1.0000
  C   C112      1.0  0.10407  0.04583  0.55311  1.0000
  C   C113      1.0  0.04077  0.32565  0.90170  1.0000
  H   H83       1.0  0.29521  0.47020  0.71157  1.0000
  C   C114      1.0  0.07829  0.24628  0.86739  1.0000
  C   C115      1.0  0.10628  0.22421  0.86962  1.0000
  C   C116      1.0  0.13899  0.23561  0.85901  1.0000
  C   C117      1.0  0.14370  0.26903  0.84606  1.0000
  C   C118      1.0  0.11578  0.29117  0.84368  1.0000
  H   H84       1.0  0.08513  0.04324  0.53074  1.0000
  C   C119      1.0  0.02384  0.46927  0.98020  1.0000
  C   C120      1.0  0.06053  0.02883  0.78927  1.0000
  C   C121      1.0  0.12833  0.07793  0.60530  1.0000
  H   H85       1.0  0.31813  0.38023  0.75829  1.0000
  H   H86       1.0  0.12588  0.47503  0.78289  1.0000
  H   H87       1.0  0.01749  0.37257  0.88282  1.0000
  H   H88       1.0  0.06839  0.41821  0.75067  1.0000
  H   H89       1.0  0.09938  0.41795  0.81214  1.0000
  H   H90       1.0  0.08995  0.37075  0.85758  1.0000
  H   H91       1.0  0.00557  0.99850  0.70650  1.0000
  H   H92       1.0  0.06121  0.44302  0.94590  1.0000
  H   H93       1.0  0.06043  0.45478  0.85841  1.0000
  C   C122      1.0  0.28045  0.47195  0.49488  1.0000
  H   H94       1.0  0.12136  0.44793  0.87218  1.0000
  C   C123      1.0  0.15360  0.02371  0.58693  1.0000
  H   H95       1.0  0.05323  0.23726  0.87652  1.0000
  S   S23       1.0  0.31598  0.40643  0.91416  1.0000
  H   H96       1.0  0.16080  0.21870  0.86107  1.0000
  H   H97       1.0  0.16912  0.27792  0.83803  1.0000
  H   H98       1.0  0.12030  0.31691  0.83363  1.0000
  C   C124      1.0  0.28561  0.02790  0.88726  1.0000
  H   H99       1.0  0.05503  0.30852  0.52965  1.0000
  H   H100      1.0  0.23593  0.00827  0.87117  1.0000
  H   H101      1.0  0.31692  0.02959  0.97687  1.0000
  C   C125      1.0  0.22056  0.00145  0.55825  1.0000
  C   C126      1.0  0.12881  0.02057  0.55823  1.0000
  H   H102      1.0  0.00954  0.00827  0.78593  1.0000
  C   C127      1.0  0.10405  0.07466  0.57639  1.0000
  H   H103      1.0  0.20838  0.41666  0.54055  1.0000
  C   C128      1.0  0.30645  0.43650  0.66481  1.0000
  C   C129      1.0  0.28638  0.45618  0.52998  1.0000
  C   C130      1.0  0.14796  0.32206  0.96717  1.0000
  H   H104      1.0  0.16285  0.45454  0.73213  1.0000
  H   H105      1.0  0.08282  0.47533  0.65069  1.0000
  H   H106      1.0  0.02857  0.10216  0.72469  1.0000
  H   H107      1.0  0.07519  0.38056  0.53534  1.0000
  C   C131      1.0  0.01966  0.37028  0.94341  1.0000
  C   C132      1.0  0.02954  0.35125  0.97500  1.0000
  H   H108      1.0  0.06949  0.00865  0.80773  1.0000
  H   H109      1.0  0.00975  0.45207  0.81088  1.0000
  C   C133      1.0  0.08300  0.05493  0.77796  1.0000
  C   C134      1.0  0.09234  0.47456  0.67949  1.0000
  C   C135      1.0  0.02779  0.09841  0.62012  1.0000
  C   C136      1.0  0.27257  0.01489  0.50485  1.0000
  C   C137      1.0  0.31876  0.46400  0.60443  1.0000
  H   H110      1.0  0.26074  0.03364  0.69664  1.0000
  S   S24       1.0  0.03870  0.26206  0.60707  1.0000
  C   C138      1.0  0.07111  0.48558  0.70891  1.0000
  H   H111      1.0  0.12893  0.99891  0.53923  1.0000
  C   C139      1.0  0.22844  0.43237  0.52807  1.0000
  H   H112      1.0  0.21126  0.47612  0.96566  1.0000
  C   C140      1.0  0.06615  0.30926  0.50144  1.0000
  S   S25       1.0  0.22524  0.48999  0.77074  1.0000
  H   H113      1.0  0.04656  0.09475  0.64228  1.0000
  C   C141      1.0  0.25350  0.01305  0.89438  1.0000
  H   H114      1.0  0.02907  0.37100  0.73408  1.0000
  H   H115      1.0  0.01966  0.32364  0.77788  1.0000
  S   S26       1.0  0.01327  0.25171  0.69528  1.0000
  H   H116      1.0  0.21504  0.45821  0.69475  1.0000
  H   H117      1.0  0.16822  0.35133  0.92076  1.0000
  C   C142      1.0  0.05655  0.46424  0.96497  1.0000
  H   H118      1.0  0.00749  0.39477  0.94717  1.0000
  H   H119      1.0  0.10945  0.05502  0.78757  1.0000
  C   C143      1.0  0.10049  0.30049  0.49587  1.0000
  H   H120      1.0  0.21846  0.45793  0.60893  1.0000
  H   H121      1.0  0.10269  0.19842  0.88014  1.0000
  H   H122      1.0  0.15914  0.29843  0.95735  1.0000
  C   C144      1.0  0.11585  0.41707  0.54604  1.0000
  C   C145      1.0  0.08945  0.39458  0.55662  1.0000
  C   C146      1.0  0.08158  0.38987  0.59483  1.0000
  C   C147      1.0  0.10040  0.40725  0.62257  1.0000
  C   C148      1.0  0.12718  0.42967  0.61234  1.0000
  C   C149      1.0  0.13465  0.43466  0.57377  1.0000
  P   P4        1.0  0.15320  0.44940  0.64882  1.0000
  C   C150      1.0  0.12569  0.46301  0.68721  1.0000
  C   C151      1.0  0.18460  0.41947  0.66620  1.0000
  C   C152      1.0  0.21174  0.43115  0.68907  1.0000
  C   C153      1.0  0.23322  0.40788  0.70717  1.0000
  C   C154      1.0  0.22895  0.37284  0.70106  1.0000
  C   C155      1.0  0.20324  0.36109  0.67662  1.0000
  C   C156      1.0  0.18095  0.38424  0.65943  1.0000
  C   C157      1.0  0.22821  0.01568  0.65125  1.0000
  H   H123      1.0  0.00237  0.40559  0.51714  1.0000
  C   C158      1.0  0.00831  0.28660  0.83966  1.0000
  P   P5        1.0  0.32715  0.46111  0.55402  1.0000
  C   C159      1.0  0.13740  0.46299  0.72486  1.0000
  H   H124      1.0  0.12179  0.42092  0.51630  1.0000
  C   C160      1.0  0.08318  0.48569  0.74616  1.0000
  H   H125      1.0  0.06130  0.37220  0.60319  1.0000
  H   H126      1.0  0.09443  0.40263  0.65208  1.0000
  H   H127      1.0  0.15488  0.45203  0.56490  1.0000
  C   C161      1.0  0.24082  0.01559  0.68835  1.0000
  H   H128      1.0  0.25232  0.41709  0.72706  1.0000
  H   H129      1.0  0.24460  0.35469  0.71636  1.0000
  H   H130      1.0  0.19913  0.33385  0.67294  1.0000
  C   C162      1.0  0.15336  0.35219  0.94645  1.0000
  C   C163      1.0  0.22240  0.44922  0.49392  1.0000
  H   H131      1.0  0.12814  0.10041  0.62327  1.0000
  C   C164      1.0  0.17496  0.48642  0.62957  1.0000
  H   H132      1.0  0.10076  0.00495  0.71236  1.0000
  H   H133      1.0  0.32575  0.36999  0.82718  1.0000
  H   H134      1.0  0.08532  0.09460  0.57181  1.0000
  H   H135      1.0  0.03480  0.25309  0.80060  1.0000
  H   H136      1.0  0.17196  0.05607  0.63268  1.0000
  H   H137      1.0  0.08865  0.10136  0.74557  1.0000
  H   H138      1.0  0.30317  0.41342  0.68137  1.0000
  C   C165      1.0  0.11632  0.47455  0.75408  1.0000
  S   S27       1.0  0.02775  0.16558  0.64357  1.0000
  C   C166      1.0  0.07128  0.08107  0.75445  1.0000
  H   H139      1.0  0.06311  0.28227  0.93086  1.0000
  C   C167      1.0  0.02531  0.35759  0.90694  1.0000
  H   H140      1.0  0.31605  0.40921  0.61335  1.0000
  C   C168      1.0  0.05073  0.30676  0.93364  1.0000
  H   H141      1.0  0.21396  0.39819  0.97311  1.0000
  C   C169      1.0  0.02634  0.02895  0.77720  1.0000
  H   H142      1.0  0.09907  0.47963  0.50871  1.0000
  C   C170      1.0  0.26030  0.43575  0.54601  1.0000
  H   H143      1.0  0.26441  0.42232  0.57232  1.0000
  C   C171      1.0  0.30835  0.03390  0.91711  1.0000
  C   C172      1.0  0.21249  0.01523  0.52263  1.0000
  H   H144      1.0  0.29303  0.03437  0.85853  1.0000
  C   C173      1.0  0.28089  0.00090  0.54000  1.0000
  H   H145      1.0  0.00284  0.45215  0.97301  1.0000
  H   H146      1.0  0.18619  0.02017  0.51464  1.0000
  C   C174      1.0  0.07549  0.47722  0.86522  1.0000
  C   C175      1.0  0.26697  0.00938  0.96140  1.0000
  C   C176      1.0  0.01020  0.26096  0.81186  1.0000
  C   C177      1.0  0.00382  0.45858  0.49892  1.0000
  C   C178      1.0  0.01389  0.13111  0.61433  1.0000
  H   H147      1.0  0.30413  0.48303  0.95999  1.0000
  Fe  Fe13      1.0  0.01039  0.22146  0.64058  1.0000
  H   H148      1.0  0.10841  0.48183  0.96197  1.0000
  C   C179      1.0  0.01401  0.05572  0.75455  1.0000
  C   C180      1.0  0.08357  0.48638  0.97450  1.0000
  C   C181      1.0  0.31469  0.49600  0.62188  1.0000
  C   C182      1.0  0.04497  0.31949  0.97005  1.0000
  H   H149      1.0  0.06683  0.49392  0.76902  1.0000
  H   H150      1.0  0.04540  0.49421  0.70277  1.0000
  H   H151      1.0  0.29258  0.01999  0.48416  1.0000
  S   S28       1.0  0.04299  0.54794  0.17681  1.0000
  Fe  Fe14      1.0  0.03301  0.97271  0.03531  1.0000
  S   S29       1.0  0.01768  0.97556  0.46743  1.0000
  C   C183      1.0  0.01883  0.81434  0.09268  1.0000
  H   H152      1.0  0.11771  0.96071  0.40296  1.0000
  S   S30       1.0  0.05360  0.91874  0.03649  1.0000
  C   C184      1.0  0.01418  0.76712  0.99464  1.0000
  C   C185      1.0  0.12035  0.51790  0.24579  1.0000
  C   C186      1.0  0.00298  0.90032  0.17261  1.0000
  H   H153      1.0  0.25445  0.56132  0.26746  1.0000
  S   S31       1.0  0.18172  0.54550  0.27164  1.0000
  C   C187      1.0  0.02895  0.78473  0.11245  1.0000
  C   C188      1.0  0.20564  0.96417  0.39453  1.0000
  H   H154      1.0  0.08400  0.71668  0.40522  1.0000
  H   H155      1.0  0.14032  0.88176  0.42055  1.0000
  C   C189      1.0  0.11055  0.85661  0.46391  1.0000
  C   C190      1.0  0.12448  0.85970  0.42762  1.0000
  H   H156      1.0  0.31185  0.97087  0.17170  1.0000
  C   C191      1.0  0.28166  0.55560  0.26851  1.0000
  C   C192      1.0  0.15275  0.95438  0.44942  1.0000
  C   C193      1.0  0.18770  0.95343  0.45966  1.0000
  C   C194      1.0  0.21396  0.95856  0.43256  1.0000
  H   H157      1.0  0.08171  0.65696  0.06085  1.0000
  H   H158      1.0  0.25174  0.50258  0.15249  1.0000
  H   H159      1.0  0.07622  0.94747  0.11880  1.0000
  C   C195      1.0  0.32481  0.91614  0.00789  1.0000
  H   H160      1.0  0.03291  0.85478  0.16436  1.0000
  C   C196      1.0  0.07977  0.54915  0.20621  1.0000
  H   H161      1.0  0.19470  0.54165  0.12173  1.0000
  C   C197      1.0  0.03894  0.74728  0.41648  1.0000
  C   C198      1.0  0.14169  0.54676  0.24793  1.0000
  C   C199      1.0  0.13179  0.57688  0.22936  1.0000
  C   C200      1.0  0.10077  0.57821  0.20887  1.0000
  H   H162      1.0  0.01683  0.70143  0.05763  1.0000
  C   C201      1.0  0.05589  0.93423  0.13406  1.0000
  H   H163      1.0  0.14823  0.59926  0.23073  1.0000
  H   H164      1.0  0.09361  0.60138  0.19430  1.0000
  C   C202      1.0  0.04611  0.71030  0.36165  1.0000
  C   C203      1.0  0.33122  0.53650  0.30382  1.0000
  H   H165      1.0  0.17724  0.55316  0.05582  1.0000
  C   C204      1.0  0.15897  0.54141  0.07504  1.0000
  H   H166      1.0  0.12888  0.83684  0.37244  1.0000
  Fe  Fe15      1.0  0.99875  0.90069  0.03200  1.0000
  S   S32       1.0  0.20785  0.51506  0.37382  1.0000
  C   C205      1.0  0.00532  0.75821  0.12030  1.0000
  P   P6        1.0  0.11286  0.54167  0.01456  1.0000
  C   C206      1.0  0.00669  0.75702  0.40252  1.0000
  C   C207      1.0  0.12543  0.53334  0.06301  1.0000
  C   C208      1.0  0.03148  0.88212  0.15977  1.0000
  C   C209      1.0  0.15520  0.53432  0.46633  1.0000
  C   C210      1.0  0.00670  0.71862  0.03638  1.0000
  C   C211      1.0  0.16831  0.50491  0.98643  1.0000
  H   H167      1.0  0.01163  0.82623  0.45594  1.0000
  C   C212      1.0  0.00516  0.81176  0.48110  1.0000
  Fe  Fe16      1.0  0.01090  0.59364  0.15973  1.0000
  C   C213      1.0  0.10210  0.51937  0.08921  1.0000
  C   C214      1.0  0.01394  0.72003  0.34808  1.0000
  C   C215      1.0  0.08969  0.51904  0.22477  1.0000
  C   C216      1.0  0.13954  0.97950  0.02337  1.0000
  Fe  Fe17      1.0  0.19322  0.50324  0.31359  1.0000
  C   C217      1.0  0.19467  0.95989  0.00044  1.0000
  H   H168      1.0  0.00156  0.93852  0.24790  1.0000
  H   H169      1.0  0.09453  0.50072  0.14591  1.0000
  C   C218      1.0  0.09733  0.80609  0.40973  1.0000
  H   H170      1.0  0.09277  0.78679  0.38836  1.0000
  H   H171      1.0  0.06142  0.69225  0.34573  1.0000
  C   C219      1.0  0.09646  0.58444  0.00991  1.0000
  C   C220      1.0  0.15931  0.95479  0.00520  1.0000
  H   H172      1.0  0.22493  0.50342  0.21639  1.0000
  C   C221      1.0  0.02729  0.95243  0.14654  1.0000
  H   H173      1.0  0.05526  0.78240  0.12190  1.0000
  C   C222      1.0  0.31147  0.89407  0.03536  1.0000
  H   H174      1.0  0.15348  0.51525  0.16688  1.0000
  C   C223      1.0  0.05790  0.89906  0.14042  1.0000
  H   H175      1.0  0.24184  0.93990  0.06244  1.0000
  C   C224      1.0  0.13609  0.50438  0.47215  1.0000
  H   H176      1.0  0.24065  0.95784  0.44100  1.0000
  C   C225      1.0  0.17067  0.96465  0.38419  1.0000
  H   H177      1.0  0.16389  0.96883  0.35487  1.0000
  C   C226      1.0  0.14438  0.96002  0.41143  1.0000
  C   C227      1.0  0.04495  0.51887  0.01422  1.0000
  C   C228      1.0  0.16907  0.53485  0.11234  1.0000
  C   C229      1.0  0.07816  0.51359  0.99981  1.0000
  Fe  Fe18      1.0  0.29569  0.97965  0.36491  1.0000
  H   H178      1.0  0.11209  0.97565  0.02686  1.0000
  H   H179      1.0  0.02627  0.97952  0.14066  1.0000
  C   C230      1.0  0.11791  0.83442  0.40055  1.0000
  H   H180      1.0  0.28018  0.54003  0.32703  1.0000
  C   C231      1.0  0.08301  0.80301  0.44613  1.0000
  C   C232      1.0  0.05870  0.72404  0.39554  1.0000
  C   C233      1.0  0.29617  0.54378  0.30215  1.0000
  P   P7        1.0  0.05650  0.76663  0.45887  1.0000
  C   C234      1.0  0.09626  0.60709  0.04077  1.0000
  H   H181      1.0  0.07579  0.51384  0.08163  1.0000
  S   S33       1.0  0.01868  0.72276  0.14800  1.0000
  S   S34       1.0  0.01842  0.63007  0.11097  1.0000
  H   H182      1.0  0.07980  0.88493  0.13003  1.0000
  C   C235      1.0  0.28159  0.90279  0.05496  1.0000
  C   C236      1.0  0.30812  0.94668  0.99956  1.0000
  H   H183      1.0  0.17215  0.53635  0.44222  1.0000
  C   C237      1.0  0.02754  0.74449  0.02132  1.0000
  H   H184      1.0  0.04898  0.69253  0.47039  1.0000
  C   C238      1.0  0.27791  0.95556  0.01884  1.0000
  C   C239      1.0  0.11260  0.51202  0.12610  1.0000
  H   H185      1.0  0.27123  0.88559  0.07621  1.0000
  C   C240      1.0  0.15083  0.53617  0.98565  1.0000
  H   H186      1.0  0.29071  0.56879  0.21023  1.0000
  C   C241      1.0  0.14593  0.51998  0.13782  1.0000
  H   H187      1.0  0.01165  0.50832  0.47289  1.0000
  C   C242      1.0  0.30216  0.55983  0.23631  1.0000
  H   H188      1.0  0.03982  0.54004  0.03319  1.0000
  H   H189      1.0  0.10642  0.59965  0.06807  1.0000
  H   H190      1.0  0.03726  0.83455  0.08705  1.0000
  H   H191      1.0  0.05383  0.74739  0.03093  1.0000
  S   S35       1.0  0.23773  0.96954  0.35877  1.0000
  S   S36       1.0  0.32972  0.98747  0.31317  1.0000
  C   C243      1.0  0.26490  0.93348  0.04687  1.0000
  H   H192      1.0  0.14711  0.93164  0.99479  1.0000
  C   C244      1.0  0.00054  0.93559  0.16585  1.0000
  C   C245      1.0  0.08218  0.63967  0.03683  1.0000
  H   H193      1.0  0.29388  0.99280  0.08195  1.0000
  C   C246      1.0  0.01804  0.49667  0.00463  1.0000
  C   C247      1.0  0.08979  0.82853  0.47309  1.0000
  C   C248      1.0  0.21067  0.98971  0.01433  1.0000
  H   H194      1.0  0.32416  0.87003  0.04102  1.0000
  C   C249      1.0  0.06811  0.64975  0.00223  1.0000
  H   H195      1.0  0.00956  0.85082  0.32612  1.0000
  H   H196      1.0  0.05689  0.67485  0.99936  1.0000
  H   H197      1.0  0.00432  0.70949  0.32167  1.0000
  H   H198      1.0  0.20947  0.94056  0.98585  1.0000
  H   H199      1.0  0.03025  0.78745  0.98333  1.0000
  P   P8        1.0  0.25665  0.99549  0.00896  1.0000
  H   H200      1.0  0.07376  0.49636  0.22249  1.0000
  S   S37       1.0  0.29808  0.86233  0.85239  1.0000
  C   C250      1.0  0.19505  0.55915  0.94389  1.0000
  H   H201      1.0  0.05633  0.93038  0.63734  1.0000
  Fe  Fe19      1.0  0.28334  0.91770  0.85170  1.0000
  S   S38       1.0  0.22902  0.93923  0.84769  1.0000
  H   H202      1.0  0.19538  0.87262  0.54636  1.0000
  Fe  Fe20      1.0  0.00319  0.98832  0.52774  1.0000
  H   H203      1.0  0.13559  0.52261  0.64569  1.0000
  Fe  Fe21      1.0  0.02996  0.62577  0.65014  1.0000
  S   S39       1.0  0.05527  0.66313  0.68972  1.0000
  H   H204      1.0  0.24799  0.78993  0.84087  1.0000
  Fe  Fe22      1.0  0.09591  0.61357  0.60431  1.0000
  S   S40       1.0  0.12576  0.64911  0.64237  1.0000
  S   S41       1.0  0.12671  0.59703  0.55241  1.0000
  Fe  Fe23      1.0  0.09766  0.62420  0.69047  1.0000
  S   S42       1.0  0.11856  0.61014  0.74824  1.0000
  Fe  Fe24      1.0  0.08096  0.68492  0.63767  1.0000
  S   S43       1.0  0.09585  0.73924  0.61966  1.0000
  S   S44       1.0  0.07114  0.58566  0.65320  1.0000
  S   S45       1.0  0.05241  0.65055  0.59765  1.0000
  Fe  Fe25      1.0  0.01726  0.91453  0.55475  1.0000
  H   H205      1.0  0.08265  0.65093  0.50746  1.0000
  H   H206      1.0  0.00013  0.96961  0.64456  1.0000
  H   H207      1.0  0.05704  0.56205  0.80768  1.0000
  S   S46       1.0  0.04912  0.96278  0.55324  1.0000
  C   C251      1.0  0.03341  0.83757  0.60508  1.0000
  C   C252      1.0  0.01244  0.52822  0.80634  1.0000
  C   C253      1.0  0.03923  0.78051  0.63280  1.0000
  C   C254      1.0  0.06910  0.77502  0.61168  1.0000
  C   C255      1.0  0.08025  0.80047  0.58630  1.0000
  C   C256      1.0  0.06206  0.83124  0.58240  1.0000
  H   H208      1.0  0.17781  0.52287  0.82271  1.0000
  C   C257      1.0  0.02034  0.56319  0.55849  1.0000
  H   H209      1.0  0.10342  0.79657  0.57004  1.0000
  H   H210      1.0  0.07080  0.85056  0.56277  1.0000
  C   C258      1.0  0.12995  0.56040  0.52284  1.0000
  C   C259      1.0  0.11136  0.53021  0.52935  1.0000
  H   H211      1.0  0.15100  0.73114  0.54323  1.0000
  C   C260      1.0  0.00910  0.55256  0.92229  1.0000
  H   H212      1.0  0.11836  0.96024  0.60063  1.0000
  H   H213      1.0  0.09490  0.52826  0.55389  1.0000
  H   H214      1.0  0.04651  0.94178  0.89788  1.0000
  S   S47       1.0  0.31981  0.93048  0.80389  1.0000
  C   C261      1.0  0.19363  0.52162  0.76444  1.0000
  C   C262      1.0  0.17408  0.53355  0.79483  1.0000
  C   C263      1.0  0.15066  0.56030  0.78935  1.0000
  C   C264      1.0  0.14617  0.57484  0.75335  1.0000
  C   C265      1.0  0.16498  0.56222  0.72272  1.0000
  C   C266      1.0  0.18894  0.53597  0.72836  1.0000
  H   H215      1.0  0.13628  0.57012  0.81311  1.0000
  H   H216      1.0  0.16187  0.57347  0.69500  1.0000
  H   H217      1.0  0.20404  0.52692  0.70472  1.0000
  C   C267      1.0  0.19432  0.92904  0.87855  1.0000
  C   C268      1.0  0.19395  0.89920  0.90031  1.0000
  C   C269      1.0  0.16411  0.88971  0.92055  1.0000
  C   C270      1.0  0.13478  0.91048  0.92045  1.0000
  C   C271      1.0  0.13591  0.94137  0.90053  1.0000
  C   C272      1.0  0.16531  0.95027  0.87917  1.0000
  H   H218      1.0  0.21606  0.88264  0.90018  1.0000
  C   C273      1.0  0.02196  0.81199  0.63019  1.0000
  H   H219      1.0  0.11364  0.95769  0.90026  1.0000
  C   C274      1.0  0.00737  0.54856  0.73039  1.0000
  H   H220      1.0  0.03543  0.51181  0.54571  1.0000
  P   P9        1.0  0.18674  0.99180  0.59202  1.0000
  S   S48       1.0  0.09643  0.89475  0.94189  1.0000
  C   C275      1.0  0.12264  0.90867  0.58095  1.0000
  C   C276      1.0  0.14424  0.88389  0.56563  1.0000
  C   C277      1.0  0.17872  0.89174  0.55857  1.0000
  C   C278      1.0  0.19160  0.92444  0.56648  1.0000
  C   C279      1.0  0.16989  0.94973  0.58109  1.0000
  C   C280      1.0  0.13547  0.94136  0.58898  1.0000
  H   H221      1.0  0.07963  0.98872  0.64856  1.0000
  H   H222      1.0  0.05245  0.57908  0.74108  1.0000
  H   H223      1.0  0.02679  0.53456  0.93460  1.0000
  H   H224      1.0  0.11903  0.77267  0.50547  1.0000
  C   C281      1.0  0.20269  0.99211  0.64017  1.0000
  C   C282      1.0  0.15205  0.56210  0.49140  1.0000
  C   C283      1.0  0.07167  0.70120  0.48541  1.0000
  C   C284      1.0  0.09046  0.67760  0.50655  1.0000
  C   C285      1.0  0.03626  0.55158  0.79091  1.0000
  C   C286      1.0  0.07884  0.97028  0.67149  1.0000
  H   H225      1.0  0.03037  0.76113  0.65241  1.0000
  C   C287      1.0  0.08147  0.53815  0.87552  1.0000
  C   C288      1.0  0.01417  0.76378  0.52319  1.0000
  C   C289      1.0  0.08185  0.73575  0.48439  1.0000
  H   H226      1.0  0.23535  0.52450  0.92820  1.0000
  H   H227      1.0  0.09581  0.90273  0.58613  1.0000
  H   H228      1.0  0.13426  0.85868  0.55898  1.0000
  C   C290      1.0  0.01350  0.92823  0.79539  1.0000
  H   H229      1.0  0.21831  0.93004  0.56045  1.0000
  H   H230      1.0  0.19156  0.95159  0.72506  1.0000
  H   H231      1.0  0.05691  0.63504  0.94477  1.0000
  H   H232      1.0  0.20561  0.58019  0.92752  1.0000
  H   H233      1.0  0.16667  0.58525  0.48613  1.0000
  H   H234      1.0  0.08169  0.57742  0.95135  1.0000
  S   S49       1.0  0.03568  0.97700  0.97195  1.0000
  C   C291      1.0  0.00611  0.81166  0.76053  1.0000
  C   C292      1.0  0.03387  0.56136  0.75298  1.0000
  H   H235      1.0  0.31880  0.96290  0.97778  1.0000
  C   C293      1.0  0.11912  0.68839  0.52724  1.0000
  C   C294      1.0  0.11083  0.74626  0.50511  1.0000
  H   H236      1.0  0.07082  0.56363  0.87595  1.0000
  C   C295      1.0  0.20715  0.54301  0.59546  1.0000
  C   C296      1.0  0.17617  0.54702  0.61486  1.0000
  H   H237      1.0  0.09803  0.96334  0.76504  1.0000
  H   H238      1.0  0.19457  0.94877  0.48881  1.0000
  H   H239      1.0  0.30898  0.93145  0.50349  1.0000
  H   H240      1.0  0.00430  0.58200  0.97379  1.0000
  H   H241      1.0  0.21899  0.56480  0.58157  1.0000
  H   H242      1.0  0.16434  0.57195  0.61636  1.0000
  C   C297      1.0  0.01999  0.84342  0.77089  1.0000
  C   C298      1.0  0.25066  0.78442  0.81093  1.0000
  H   H243      1.0  0.16355  0.86579  0.93589  1.0000
  C   C299      1.0  0.01399  0.52896  0.54929  1.0000
  C   C300      1.0  0.18922  0.96925  0.66717  1.0000
  S   S50       1.0  0.12106  0.94769  0.48529  1.0000
  H   H244      1.0  0.31231  0.77823  0.74306  1.0000
  Fe  Fe26      1.0  0.06237  0.94711  0.49325  1.0000
  C   C301      1.0  0.21191  0.52778  0.94436  1.0000
  H   H245      1.0  0.05263  0.88886  0.68932  1.0000
  C   C302      1.0  0.16474  0.56346  0.96461  1.0000
  C   C303      1.0  0.22776  0.99231  0.71481  1.0000
  H   H246      1.0  0.30587  0.79036  0.81131  1.0000
  C   C304      1.0  0.15991  0.51884  0.63153  1.0000
  C   C305      1.0  0.19415  0.70504  0.62403  1.0000
  C   C306      1.0  0.21176  0.67632  0.63682  1.0000
  C   C307      1.0  0.22252  0.67453  0.67448  1.0000
  C   C308      1.0  0.21578  0.70150  0.69930  1.0000
  C   C309      1.0  0.19824  0.73058  0.68662  1.0000
  C   C310      1.0  0.18725  0.73203  0.64879  1.0000
  P   P10       1.0  0.18787  0.76398  0.72006  1.0000
  C   C311      1.0  0.15053  0.75156  0.74741  1.0000
  C   C312      1.0  0.22502  0.77082  0.74993  1.0000
  C   C313      1.0  0.22157  0.77753  0.78884  1.0000
  S   S51       1.0  0.01305  0.87798  0.60486  1.0000
  C   C314      1.0  0.25798  0.77088  0.73363  1.0000
  C   C315      1.0  0.13346  0.77606  0.76941  1.0000
  C   C316      1.0  0.10451  0.76685  0.79071  1.0000
  C   C317      1.0  0.09205  0.73326  0.78970  1.0000
  C   C318      1.0  0.10866  0.70883  0.76759  1.0000
  C   C319      1.0  0.13776  0.71786  0.74649  1.0000
  C   C320      1.0  0.17777  0.80371  0.69652  1.0000
  C   C321      1.0  0.14659  0.80681  0.67691  1.0000
  C   C322      1.0  0.13769  0.83780  0.66000  1.0000
  C   C323      1.0  0.15965  0.86607  0.66294  1.0000
  C   C324      1.0  0.19077  0.86328  0.68230  1.0000
  C   C325      1.0  0.19983  0.83227  0.69909  1.0000
  H   H247      1.0  0.18493  0.70594  0.59514  1.0000
  H   H248      1.0  0.21633  0.65513  0.61775  1.0000
  H   H249      1.0  0.23553  0.65195  0.68466  1.0000
  H   H250      1.0  0.22370  0.69936  0.72862  1.0000
  H   H251      1.0  0.17287  0.75351  0.63826  1.0000
  H   H252      1.0  0.19664  0.77769  0.80228  1.0000
  H   H253      1.0  0.04652  0.57248  0.56164  1.0000
  H   H254      1.0  0.26133  0.76627  0.70361  1.0000
  H   H255      1.0  0.14260  0.80226  0.77009  1.0000
  H   H256      1.0  0.09147  0.78583  0.80766  1.0000
  H   H257      1.0  0.06948  0.72612  0.80593  1.0000
  H   H258      1.0  0.09904  0.68272  0.76671  1.0000
  H   H259      1.0  0.14987  0.69834  0.72950  1.0000
  H   H260      1.0  0.12912  0.78518  0.67472  1.0000
  H   H261      1.0  0.11356  0.83989  0.64490  1.0000
  H   H262      1.0  0.15260  0.89008  0.65012  1.0000
  H   H263      1.0  0.20797  0.88512  0.68433  1.0000
  H   H264      1.0  0.22396  0.83098  0.71420  1.0000
  C   C326      1.0  0.17620  0.88376  0.78299  1.0000
  C   C327      1.0  0.17876  0.86312  0.81508  1.0000
  C   C328      1.0  0.14904  0.85185  0.83359  1.0000
  C   C329      1.0  0.11674  0.86144  0.82023  1.0000
  C   C330      1.0  0.11391  0.88288  0.78850  1.0000
  C   C331      1.0  0.14392  0.89338  0.76946  1.0000
  P   P11       1.0  0.07181  0.89390  0.77087  1.0000
  C   C332      1.0  0.05224  0.85382  0.75693  1.0000
  C   C333      1.0  0.04605  0.91601  0.80567  1.0000
  C   C334      1.0  0.03726  0.93818  0.86921  1.0000
  C   C335      1.0  0.28330  0.78455  0.79441  1.0000
  H   H265      1.0  0.00392  0.92453  0.76687  1.0000
  C   C336      1.0  0.11633  0.53390  0.88361  1.0000
  C   C337      1.0  0.05801  0.92168  0.84267  1.0000
  C   C338      1.0  0.07057  0.83169  0.73327  1.0000
  C   C339      1.0  0.05677  0.79989  0.72321  1.0000
  S   S52       1.0  0.32116  0.93328  0.89685  1.0000
  H   H266      1.0  0.13235  0.55589  0.89002  1.0000
  H   H267      1.0  0.13321  0.67021  0.54423  1.0000
  C   C340      1.0  0.07543  0.92292  0.73121  1.0000
  C   C341      1.0  0.08894  0.95588  0.73721  1.0000
  C   C342      1.0  0.06818  0.62732  0.97145  1.0000
  H   H268      1.0  0.99984  0.81662  0.64795  1.0000
  C   C343      1.0  0.06566  0.93744  0.66520  1.0000
  C   C344      1.0  0.06374  0.91383  0.69491  1.0000
  H   H269      1.0  0.19944  0.89285  0.76925  1.0000
  H   H270      1.0  0.20387  0.85666  0.82617  1.0000
  H   H271      1.0  0.15108  0.83645  0.85899  1.0000
  H   H272      1.0  0.09397  0.85264  0.83513  1.0000
  H   H273      1.0  0.14266  0.90900  0.74431  1.0000
  H   H274      1.0  0.16540  0.97349  0.86258  1.0000
  H   H275      1.0  0.31750  0.51940  0.60592  1.0000
  H   H276      1.0  0.30672  0.86945  0.48865  1.0000
  H   H277      1.0  0.08316  0.91342  0.85155  1.0000
  H   H278      1.0  0.09576  0.83894  0.72305  1.0000
  H   H279      1.0  0.07124  0.78275  0.70522  1.0000
  H   H280      1.0  0.15261  0.58821  0.96433  1.0000
  C   C345      1.0  0.09063  0.97944  0.70746  1.0000
  S   S53       1.0  0.03219  0.89767  0.49665  1.0000
  H   H281      1.0  0.16895  0.95145  0.65973  1.0000
  C   C346      1.0  0.06071  0.50976  0.86638  1.0000
  C   C347      1.0  0.08220  0.59474  0.97527  1.0000
  C   C348      1.0  0.28694  0.77765  0.75584  1.0000
  H   H282      1.0  0.30242  0.52285  0.67352  1.0000
  H   H283      1.0  0.01382  0.76524  0.72873  1.0000
  H   H284      1.0  0.30503  0.53076  0.53504  1.0000
  C   C349      1.0  0.20182  0.96932  0.70429  1.0000
  H   H285      1.0  0.00562  0.55621  0.70099  1.0000
  C   C350      1.0  0.12926  0.72267  0.52652  1.0000
  H   H286      1.0  0.07907  0.82667  0.50128  1.0000
  H   H287      1.0  0.02750  0.74076  0.53125  1.0000
  P   P12       1.0  0.01582  0.51534  0.85534  1.0000
  H   H288      1.0  0.26198  0.98195  0.59302  1.0000
  C   C351      1.0  0.02448  0.78992  0.73666  1.0000
  C   C352      1.0  0.22242  0.51087  0.59356  1.0000
  H   H289      1.0  0.11563  0.87621  0.48485  1.0000
  H   H290      1.0  0.30751  0.99549  0.54644  1.0000
  C   C353      1.0  0.19851  0.50066  0.96562  1.0000
  H   H291      1.0  0.00559  0.85935  0.79010  1.0000
  C   C354      1.0  0.13072  0.50135  0.88256  1.0000
  H   H292      1.0  0.23762  0.99218  0.74357  1.0000
  C   C355      1.0  0.00459  0.94949  0.85908  1.0000
  H   H293      1.0  0.21974  0.99084  0.93556  1.0000
  C   C356      1.0  0.11417  0.50248  0.50389  1.0000
  Fe  Fe27      1.0  0.05284  0.92215  0.97282  1.0000
  H   H294      1.0  0.32789  0.97337  0.66735  1.0000
  C   C357      1.0  0.02254  0.78141  0.48971  1.0000
  H   H295      1.0  0.24626  0.50771  0.57823  1.0000
  C   C358      1.0  0.25501  0.99374  0.56645  1.0000
  C   C359      1.0  0.32663  0.87944  0.50712  1.0000
  C   C360      1.0  0.32771  0.91428  0.51568  1.0000
  C   C361      1.0  0.30619  0.49813  0.66034  1.0000
  H   H296      1.0  0.15771  0.49786  0.88888  1.0000
  S   S54       1.0  0.99866  0.90115  0.96822  1.0000
  Fe  Fe28      1.0  0.56990  0.11090  0.10649  1.0000
  S   S55       1.0  0.61478  0.13859  0.13193  1.0000
  S   S56       1.0  0.57244  0.08979  0.04674  1.0000
  Fe  Fe29      1.0  0.52345  0.12827  0.17355  1.0000
  S   S57       1.0  0.56541  0.15734  0.20375  1.0000
  S   S58       1.0  0.46727  0.13027  0.19023  1.0000
  Fe  Fe30      1.0  0.57766  0.18037  0.14660  1.0000
  S   S59       1.0  0.59461  0.23620  0.13842  1.0000
  Fe  Fe31      1.0  0.59853  0.11311  0.18629  1.0000
  H   H297      1.0  0.50784  0.21036  0.44350  1.0000
  S   S60       1.0  0.53369  0.15424  0.11758  1.0000
  S   S61       1.0  0.55558  0.08239  0.15962  1.0000
  C   C362      1.0  0.63010  0.34378  0.38590  1.0000
  S   S62       1.0  0.57811  0.44195  0.04054  1.0000
  C   C363      1.0  0.57741  0.34255  0.19010  1.0000
  S   S63       1.0  0.49615  0.45013  0.02365  1.0000
  P   P13       1.0  0.64491  0.31775  0.27459  1.0000
  Fe  Fe32      1.0  0.53455  0.40699  0.02459  1.0000
  S   S64       1.0  0.51794  0.35474  0.04784  1.0000
  Fe  Fe33      1.0  0.35265  0.03199  0.34459  1.0000
  H   H298      1.0  0.48989  0.14138  0.44206  1.0000
  S   S65       1.0  0.36370  0.08441  0.32016  1.0000
  H   H299      1.0  0.42667  0.43939  0.18230  1.0000
  H   H300      1.0  0.56881  0.21589  0.46221  1.0000
  C   C364      1.0  0.40083  0.41945  0.23164  1.0000
  S   S66       1.0  0.44393  0.41457  0.41078  1.0000
  C   C365      1.0  0.35737  0.03257  0.21778  1.0000
  H   H301      1.0  0.49439  0.25148  0.99246  1.0000
  H   H302      1.0  0.42391  0.02593  0.44281  1.0000
  C   C366      1.0  0.40323  0.43477  0.40901  1.0000
  C   C367      1.0  0.39512  0.46217  0.43274  1.0000
  C   C368      1.0  0.41669  0.23519  0.43273  1.0000
  H   H303      1.0  0.42014  0.32200  0.42365  1.0000
  H   H304      1.0  0.63332  0.20924  0.20330  1.0000
  C   C369      1.0  0.64484  0.41489  0.44509  1.0000
  C   C370      1.0  0.63667  0.43298  0.41219  1.0000
  H   H305      1.0  0.44265  0.48594  0.31820  1.0000
  H   H306      1.0  0.61047  0.44081  0.40728  1.0000
  H   H307      1.0  0.63536  0.19966  0.32431  1.0000
  C   C371      1.0  0.44186  0.11650  0.22898  1.0000
  C   C372      1.0  0.41133  0.13418  0.23512  1.0000
  C   C373      1.0  0.38841  0.12401  0.26347  1.0000
  C   C374      1.0  0.39500  0.09533  0.28574  1.0000
  C   C375      1.0  0.42572  0.07729  0.28010  1.0000
  C   C376      1.0  0.44938  0.08809  0.25182  1.0000
  H   H308      1.0  0.40512  0.15592  0.21755  1.0000
  H   H309      1.0  0.36493  0.13814  0.26762  1.0000
  H   H310      1.0  0.43104  0.05502  0.29719  1.0000
  H   H311      1.0  0.47252  0.07372  0.24671  1.0000
  C   C377      1.0  0.57386  0.26809  0.11086  1.0000
  C   C378      1.0  0.54137  0.26279  0.09487  1.0000
  C   C379      1.0  0.52491  0.28951  0.07542  1.0000
  C   C380      1.0  0.54099  0.32157  0.07073  1.0000
  C   C381      1.0  0.57406  0.32647  0.08534  1.0000
  C   C382      1.0  0.59021  0.29997  0.10562  1.0000
  H   H312      1.0  0.52875  0.23821  0.09778  1.0000
  H   H313      1.0  0.49946  0.28532  0.06402  1.0000
  H   H314      1.0  0.58688  0.35087  0.08171  1.0000
  H   H315      1.0  0.61545  0.30433  0.11758  1.0000
  C   C383      1.0  0.60359  0.05907  0.03463  1.0000
  H   H316      1.0  0.48545  0.03986  0.99688  1.0000
  C   C384      1.0  0.43057  0.04438  0.00062  1.0000
  C   C385      1.0  0.48108  0.01197  0.10252  1.0000
  C   C386      1.0  0.52848  0.10633  0.29983  1.0000
  C   C387      1.0  0.54101  0.09595  0.33501  1.0000
  C   C388      1.0  0.53954  0.11816  0.36596  1.0000
  C   C389      1.0  0.52581  0.15086  0.36164  1.0000
  C   C390      1.0  0.51415  0.16184  0.32606  1.0000
  C   C391      1.0  0.51498  0.13905  0.29534  1.0000
  P   P14       1.0  0.49686  0.20425  0.32037  1.0000
  C   C392      1.0  0.45092  0.20400  0.32790  1.0000
  C   C393      1.0  0.51889  0.23312  0.35257  1.0000
  C   C394      1.0  0.50077  0.25740  0.37388  1.0000
  C   C395      1.0  0.51818  0.27910  0.39901  1.0000
  C   C396      1.0  0.55370  0.27656  0.40342  1.0000
  C   C397      1.0  0.57193  0.25236  0.38261  1.0000
  C   C398      1.0  0.55464  0.23070  0.35735  1.0000
  C   C399      1.0  0.43171  0.23305  0.31857  1.0000
  C   C400      1.0  0.39587  0.23240  0.32137  1.0000
  C   C401      1.0  0.39783  0.17362  0.34215  1.0000
  C   C402      1.0  0.43366  0.17415  0.33945  1.0000
  C   C403      1.0  0.50403  0.21716  0.27181  1.0000
  C   C404      1.0  0.53477  0.23332  0.26064  1.0000
  C   C405      1.0  0.54038  0.24132  0.22251  1.0000
  C   C406      1.0  0.51544  0.23354  0.19543  1.0000
  C   C407      1.0  0.48496  0.21732  0.20621  1.0000
  C   C408      1.0  0.47931  0.20900  0.24415  1.0000
  H   H317      1.0  0.52918  0.08904  0.27589  1.0000
  H   H318      1.0  0.55176  0.07065  0.33828  1.0000
  H   H319      1.0  0.54894  0.10993  0.39334  1.0000
  H   H320      1.0  0.52447  0.16755  0.38602  1.0000
  H   H321      1.0  0.50530  0.14633  0.26779  1.0000
  H   H322      1.0  0.47326  0.25967  0.37158  1.0000
  H   H323      1.0  0.50413  0.29795  0.41520  1.0000
  H   H324      1.0  0.56706  0.29334  0.42306  1.0000
  H   H325      1.0  0.59948  0.25039  0.38619  1.0000
  H   H326      1.0  0.56912  0.21190  0.34163  1.0000
  H   H327      1.0  0.44446  0.25595  0.30824  1.0000
  H   H328      1.0  0.38453  0.15022  0.34989  1.0000
  H   H329      1.0  0.44752  0.15087  0.34510  1.0000
  H   H330      1.0  0.55484  0.23900  0.28080  1.0000
  H   H331      1.0  0.56458  0.25233  0.21339  1.0000
  H   H332      1.0  0.52025  0.23907  0.16590  1.0000
  H   H333      1.0  0.46624  0.20992  0.18495  1.0000
  H   H334      1.0  0.45609  0.19505  0.25147  1.0000
  C   C409      1.0  0.43205  0.38354  0.05470  1.0000
  C   C410      1.0  0.43471  0.35966  0.08386  1.0000
  C   C411      1.0  0.41752  0.36503  0.11801  1.0000
  C   C412      1.0  0.39764  0.39429  0.12301  1.0000
  C   C413      1.0  0.39421  0.41820  0.09353  1.0000
  C   C414      1.0  0.41192  0.41262  0.05940  1.0000
  H   H335      1.0  0.44551  0.46064  0.11467  1.0000
  C   C415      1.0  0.63333  0.20057  0.26349  1.0000
  C   C416      1.0  0.41468  0.44551  0.20909  1.0000
  H   H336      1.0  0.41161  0.04117  0.21262  1.0000
  C   C417      1.0  0.64462  0.33197  0.35217  1.0000
  H   H337      1.0  0.57971  0.30615  0.23533  1.0000
  H   H338      1.0  0.38116  0.25469  0.31359  1.0000
  C   C418      1.0  0.63538  0.21567  0.29929  1.0000
  C   C419      1.0  0.50098  0.99710  0.19776  1.0000
  C   C420      1.0  0.63872  0.27202  0.27030  1.0000
  C   C421      1.0  0.45891  0.29280  0.98709  1.0000
  H   H339      1.0  0.51816  0.03023  0.06157  1.0000
  C   C422      1.0  0.34831  0.46803  0.05743  1.0000
  H   H340      1.0  0.45078  0.33739  0.08017  1.0000
  H   H341      1.0  0.42012  0.34668  0.14077  1.0000
  C   C423      1.0  0.59602  0.21802  0.03587  1.0000
  H   H342      1.0  0.41108  0.43082  0.03649  1.0000
  C   C424      1.0  0.65893  0.02335  0.15744  1.0000
  C   C425      1.0  0.63822  0.25123  0.30273  1.0000
  C   C426      1.0  0.58103  0.18567  0.03218  1.0000
  C   C427      1.0  0.46327  0.13626  0.43532  1.0000
  H   H343      1.0  0.64524  0.34451  0.41167  1.0000
  H   H344      1.0  0.58550  0.36551  0.41240  1.0000
  C   C428      1.0  0.64363  0.01433  0.05181  1.0000
  C   C429      1.0  0.62468  0.33891  0.23494  1.0000
  C   C430      1.0  0.38996  0.02617  0.20283  1.0000
  H   H345      1.0  0.63143  0.17297  0.26070  1.0000
  H   H346      1.0  0.58781  0.16545  0.05169  1.0000
  C   C431      1.0  0.44429  0.05512  0.12980  1.0000
  C   C432      1.0  0.60052  0.02127  0.29313  1.0000
  C   C433      1.0  0.63210  0.02541  0.98574  1.0000
  C   C434      1.0  0.33952  0.46873  0.40108  1.0000
  H   H347      1.0  0.37449  0.40732  0.28377  1.0000
  H   H348      1.0  0.58548  0.00319  0.47440  1.0000
  S   S67       1.0  0.52396  0.46034  0.46895  1.0000
  H   H349      1.0  0.37534  0.04324  0.99863  1.0000
  C   C435      1.0  0.62553  0.33216  0.31838  1.0000
  C   C436      1.0  0.59143  0.34369  0.31923  1.0000
  C   C437      1.0  0.57699  0.35543  0.35309  1.0000
  H   H350      1.0  0.57596  0.34416  0.29387  1.0000
  C   C438      1.0  0.41321  0.47951  0.22113  1.0000
  S   S68       1.0  0.64237  0.09143  0.22105  1.0000
  H   H351      1.0  0.60820  0.03421  0.17769  1.0000
  C   C439      1.0  0.43751  0.23141  0.46489  1.0000
  C   C440      1.0  0.34709  0.44056  0.37825  1.0000
  C   C441      1.0  0.49695  0.03691  0.08001  1.0000
  C   C442      1.0  0.63444  0.22101  0.23110  1.0000
  C   C443      1.0  0.35108  0.48715  0.99189  1.0000
  H   H352      1.0  0.55090  0.36487  0.35353  1.0000
  H   H353      1.0  0.58178  0.38186  0.14765  1.0000
  C   C444      1.0  0.48636  0.07085  0.08217  1.0000
  C   C445      1.0  0.46003  0.07991  0.10697  1.0000
  C   C446      1.0  0.59272  0.32722  0.22153  1.0000
  H   H354      1.0  0.49915  0.09028  0.06528  1.0000
  C   C447      1.0  0.45536  0.10914  0.41089  1.0000
  C   C448      1.0  0.40251  0.14656  0.44416  1.0000
  C   C449      1.0  0.63661  0.05672  0.25270  1.0000
  C   C450      1.0  0.60951  0.05164  0.99629  1.0000
  H   H355      1.0  0.37263  0.46702  0.30573  1.0000
  H   H356      1.0  0.47565  0.09407  0.39849  1.0000
  H   H357      1.0  0.36823  0.11198  0.41458  1.0000
  H   H358      1.0  0.39400  0.27062  0.39346  1.0000
  C   C451      1.0  0.59361  0.37010  0.17215  1.0000
  C   C452      1.0  0.42496  0.29672  0.43504  1.0000
  C   C453      1.0  0.43686  0.15547  0.45182  1.0000
  H   H359      1.0  0.47382  0.05961  0.46604  1.0000
  H   H360      1.0  0.63884  0.27170  0.20874  1.0000
  C   C454      1.0  0.41034  0.26778  0.41804  1.0000
  C   C455      1.0  0.52256  0.99644  0.22939  1.0000
  H   H361      1.0  0.64060  0.26236  0.33063  1.0000
  C   C456      1.0  0.62601  0.01443  0.16976  1.0000
  C   C457      1.0  0.37898  0.42397  0.38190  1.0000
  C   C458      1.0  0.42115  0.10060  0.40332  1.0000
  H   H362      1.0  0.41500  0.07939  0.38466  1.0000
  C   C459      1.0  0.43507  0.48614  0.11633  1.0000
  Fe  Fe34      1.0  0.54112  0.48576  0.03398  1.0000
  H   H363      1.0  0.61410  0.22294  0.05859  1.0000
  C   C460      1.0  0.62126  0.04078  0.06240  1.0000
  H   H364      1.0  0.61686  0.04635  0.09198  1.0000
  H   H365      1.0  0.58183  0.06147  0.25670  1.0000
  C   C461      1.0  0.44591  0.29311  0.46684  1.0000
  C   C462      1.0  0.66170  0.01150  0.29153  1.0000
  C   C463      1.0  0.39474  0.11911  0.42019  1.0000
  H   H366      1.0  0.41354  0.47084  0.45362  1.0000
  C   C464      1.0  0.60407  0.04762  0.26625  1.0000
  C   C465      1.0  0.37893  0.20266  0.33318  1.0000
  P   P15       1.0  0.37037  0.45728  0.10094  1.0000
  H   H367      1.0  0.54564  0.15417  0.00086  1.0000
  H   H368      1.0  0.38528  0.39817  0.15004  1.0000
  Fe  Fe35      1.0  0.48180  0.42098  0.45970  1.0000
  C   C466      1.0  0.38446  0.46128  0.27866  1.0000
  H   H369      1.0  0.57552  0.01530  0.30462  1.0000
  H   H370      1.0  0.38502  0.40284  0.36339  1.0000
  H   H371      1.0  0.42502  0.06324  0.14984  1.0000
  C   C467      1.0  0.59640  0.35569  0.38633  1.0000
  C   C468      1.0  0.42527  0.03327  0.47221  1.0000
  H   H372      1.0  0.40531  0.21319  0.41894  1.0000
  C   C469      1.0  0.36369  0.47938  0.42835  1.0000
  H   H373      1.0  0.44651  0.37994  0.02877  1.0000
  H   H374      1.0  0.45736  0.31548  0.48012  1.0000
  H   H375      1.0  0.35403  0.05242  0.23887  1.0000
  C   C470      1.0  0.45447  0.02083  0.12757  1.0000
  C   C471      1.0  0.63738  0.25653  0.23439  1.0000
  H   H376      1.0  0.39417  0.48759  0.02952  1.0000
  H   H377      1.0  0.45266  0.10647  0.10967  1.0000
  H   H378      1.0  0.55319  0.33280  0.17924  1.0000
  H   H379      1.0  0.65591  0.45427  0.35975  1.0000
  C   C472      1.0  0.62921  0.00305  0.30587  1.0000
  H   H380      1.0  0.43174  0.06574  0.02012  1.0000
  H   H381      1.0  0.40201  0.39310  0.22235  1.0000
  C   C473      1.0  0.46092  0.02965  0.98746  1.0000
  S   S69       1.0  0.51622  0.37627  0.47195  1.0000
  H   H382      1.0  0.35112  0.20172  0.33454  1.0000
  C   C474      1.0  0.64862  0.00615  0.01350  1.0000
  C   C475      1.0  0.38544  0.42740  0.26626  1.0000
  C   C476      1.0  0.64073  0.36675  0.21682  1.0000
  H   H383      1.0  0.54950  0.00320  0.22659  1.0000
  C   C477      1.0  0.36699  0.48180  0.02684  1.0000
  C   C478      1.0  0.58748  0.24413  0.01064  1.0000
  H   H384      1.0  0.38169  0.16041  0.45733  1.0000
  C   C479      1.0  0.62517  0.38227  0.18559  1.0000
  C   C480      1.0  0.33997  0.45046  0.13933  1.0000
  H   H385      1.0  0.37166  0.37335  0.46668  1.0000
  H   H386      1.0  0.57035  0.32930  0.99456  1.0000
  H   H387      1.0  0.63769  0.40364  0.17158  1.0000
  C   C481      1.0  0.55721  0.17937  0.00343  1.0000
  C   C482      1.0  0.39905  0.48750  0.25661  1.0000
  H   H388      1.0  0.46207  0.48803  0.38434  1.0000
  C   C483      1.0  0.33785  0.47334  0.16995  1.0000
  C   C484      1.0  0.39877  0.03163  0.98855  1.0000
  H   H389      1.0  0.51180  0.00455  0.17079  1.0000
  C   C485      1.0  0.51559  0.20280  0.47169  1.0000
  C   C486      1.0  0.39477  0.99989  0.17635  1.0000
  H   H390      1.0  0.66525  0.37652  0.22648  1.0000
  H   H391      1.0  0.65645  0.99958  0.07332  1.0000
  S   S70       1.0  0.61346  0.40286  0.47921  1.0000
  H   H392      1.0  0.43967  0.28068  0.00483  1.0000
  C   C487      1.0  0.39981  0.49206  0.11111  1.0000
  S   S71       1.0  0.39334  0.00176  0.37314  1.0000
  H   H393      1.0  0.59921  0.26902  0.01451  1.0000
  H   H394      1.0  0.61710  0.37221  0.99422  1.0000
  C   C488      1.0  0.66247  0.44047  0.38524  1.0000
  H   H395      1.0  0.56161  0.99921  0.99311  1.0000
  H   H396      1.0  0.63629  0.48611  0.89826  1.0000
  S   S72       1.0  0.47076  0.46277  0.91512  1.0000
  C   C489      1.0  0.39287  0.36775  0.52267  1.0000
  Fe  Fe36      1.0  0.51468  0.15408  0.65586  1.0000
  S   S73       1.0  0.54596  0.11617  0.62300  1.0000
  S   S74       1.0  0.53468  0.20921  0.65489  1.0000
  Fe  Fe37      1.0  0.46283  0.09874  0.67989  1.0000
  S   S75       1.0  0.48986  0.05775  0.64736  1.0000
  S   S76       1.0  0.41144  0.08523  0.70673  1.0000
  Fe  Fe38      1.0  0.53805  0.08060  0.67217  1.0000
  S   S77       1.0  0.57789  0.04117  0.68842  1.0000
  Fe  Fe39      1.0  0.49524  0.09688  0.60151  1.0000
  S   S78       1.0  0.49054  0.08732  0.53863  1.0000
  S   S79       1.0  0.51073  0.11977  0.70762  1.0000
  S   S80       1.0  0.46434  0.13656  0.63157  1.0000
  H   H397      1.0  0.39135  0.11618  0.58128  1.0000
  S   S81       1.0  0.54089  0.41790  0.54845  1.0000
  H   H398      1.0  0.54399  0.17864  0.57338  1.0000
  S   S82       1.0  0.46240  0.42377  0.51902  1.0000
  Fe  Fe40      1.0  0.50616  0.46053  0.52987  1.0000
  Fe  Fe41      1.0  0.49881  0.38102  0.53217  1.0000
  S   S83       1.0  0.47468  0.33461  0.56178  1.0000
  C   C490      1.0  0.51925  0.24163  0.62420  1.0000
  C   C491      1.0  0.48564  0.24103  0.61020  1.0000
  C   C492      1.0  0.47292  0.26929  0.59001  1.0000
  C   C493      1.0  0.49375  0.29810  0.58275  1.0000
  C   C494      1.0  0.52788  0.29797  0.59503  1.0000
  C   C495      1.0  0.54035  0.27012  0.61619  1.0000
  H   H399      1.0  0.46901  0.21943  0.61631  1.0000
  H   H400      1.0  0.44642  0.26929  0.58098  1.0000
  H   H401      1.0  0.54435  0.31978  0.58942  1.0000
  H   H402      1.0  0.56639  0.27081  0.62684  1.0000
  C   C496      1.0  0.45568  0.06196  0.52352  1.0000
  C   C497      1.0  0.62556  0.43070  0.60587  1.0000
  C   C498      1.0  0.61663  0.00043  0.52473  1.0000
  C   C499      1.0  0.40152  0.03274  0.53550  1.0000
  C   C500      1.0  0.42963  0.05216  0.54860  1.0000
  C   C501      1.0  0.39530  0.14223  0.57166  1.0000
  H   H403      1.0  0.43104  0.05987  0.57796  1.0000
  C   C502      1.0  0.35850  0.42350  0.91426  1.0000
  C   C503      1.0  0.37065  0.44545  0.88591  1.0000
  C   C504      1.0  0.40500  0.45733  0.88668  1.0000
  C   C505      1.0  0.42750  0.44772  0.91593  1.0000
  C   C506      1.0  0.41522  0.42609  0.94452  1.0000
  C   C507      1.0  0.38098  0.41401  0.94360  1.0000
  C   C508      1.0  0.55050  0.40789  0.64930  1.0000
  H   H404      1.0  0.37788  0.42078  0.59673  1.0000
  C   C509      1.0  0.34344  0.38261  0.77080  1.0000
  C   C510      1.0  0.58731  0.00944  0.50423  1.0000
  H   H405      1.0  0.46223  0.44837  0.60665  1.0000
  H   H406      1.0  0.53034  0.19997  0.95571  1.0000
  H   H407      1.0  0.33343  0.04504  0.91140  1.0000
  C   C511      1.0  0.60383  0.04294  0.72943  1.0000
  C   C512      1.0  0.60391  0.07102  0.75395  1.0000
  C   C513      1.0  0.62551  0.07125  0.78600  1.0000
  H   H408      1.0  0.50837  0.27983  0.88098  1.0000
  S   S84       1.0  0.54615  0.41013  0.96230  1.0000
  H   H409      1.0  0.58742  0.09250  0.74819  1.0000
  H   H410      1.0  0.62544  0.09293  0.80498  1.0000
  H   H411      1.0  0.54193  0.42577  0.62800  1.0000
  H   H412      1.0  0.61587  0.28064  0.89705  1.0000
  H   H413      1.0  0.36798  0.16448  0.61845  1.0000
  C   C514      1.0  0.43366  0.02437  0.79706  1.0000
  C   C515      1.0  0.43737  0.04639  0.76572  1.0000
  C   C516      1.0  0.40850  0.05586  0.74473  1.0000
  C   C517      1.0  0.37617  0.04237  0.75468  1.0000
  H   H414      1.0  0.41169  0.37014  0.57986  1.0000
  H   H415      1.0  0.46239  0.05671  0.75841  1.0000
  H   H416      1.0  0.53843  0.32515  0.67577  1.0000
  C   C518      1.0  0.62420  0.47611  0.74129  1.0000
  S   S85       1.0  0.55343  0.49342  0.97227  1.0000
  C   C519      1.0  0.64214  0.32474  0.91856  1.0000
  H   H417      1.0  0.63616  0.01958  0.95618  1.0000
  H   H418      1.0  0.60789  0.02786  0.89290  1.0000
  H   H419      1.0  0.37185  0.39709  0.96571  1.0000
  C   C520      1.0  0.61679  0.35197  0.97323  1.0000
  Fe  Fe42      1.0  0.58803  0.44777  0.97792  1.0000
  C   C521      1.0  0.41452  0.14854  0.53892  1.0000
  H   H420      1.0  0.40041  0.47498  0.53823  1.0000
  H   H421      1.0  0.45594  0.01796  0.81379  1.0000
  H   H422      1.0  0.43223  0.41842  0.96710  1.0000
  H   H423      1.0  0.58249  0.34206  0.72300  1.0000
  C   C522      1.0  0.53673  0.37480  0.64977  1.0000
  H   H424      1.0  0.62341  0.40625  0.62002  1.0000
  C   C523      1.0  0.56308  0.03498  0.56044  1.0000
  H   H425      1.0  0.41519  0.03737  0.64334  1.0000
  H   H426      1.0  0.41419  0.47411  0.86450  1.0000
  C   C524      1.0  0.64712  0.01560  0.76893  1.0000
  C   C525      1.0  0.40673  0.20940  0.54739  1.0000
  C   C526      1.0  0.56697  0.49415  0.67776  1.0000
  H   H427      1.0  0.54240  0.04840  0.57438  1.0000
  C   C527      1.0  0.61803  0.49204  0.60418  1.0000
  C   C528      1.0  0.38783  0.20303  0.58042  1.0000
  C   C529      1.0  0.57192  0.20752  0.85554  1.0000
  Fe  Fe43      1.0  0.51032  0.45501  0.96218  1.0000
  H   H428      1.0  0.59901  0.48563  0.74857  1.0000
  H   H429      1.0  0.35374  0.45292  0.86314  1.0000
  P   P16       1.0  0.44623  0.18975  0.48476  1.0000
  H   H430      1.0  0.48360  0.17175  0.55502  1.0000
  C   C530      1.0  0.51522  0.29204  0.95733  1.0000
  C   C531      1.0  0.47779  0.34100  0.94928  1.0000
  H   H431      1.0  0.50407  0.25076  0.81929  1.0000
  C   C532      1.0  0.42039  0.18217  0.52651  1.0000
  C   C533      1.0  0.63083  0.46287  0.70505  1.0000
  C   C534      1.0  0.64158  0.46263  0.54976  1.0000
  C   C535      1.0  0.52572  0.01387  0.92361  1.0000
  C   C536      1.0  0.44665  0.45016  0.63205  1.0000
  H   H432      1.0  0.41845  0.49351  0.61182  1.0000
  H   H433      1.0  0.38340  0.37428  0.85586  1.0000
  C   C537      1.0  0.52638  0.25981  0.87432  1.0000
  C   C538      1.0  0.62560  0.01540  0.73707  1.0000
  C   C539      1.0  0.55170  0.25009  0.90043  1.0000
  C   C540      1.0  0.56065  0.02695  0.52203  1.0000
  H   H434      1.0  0.35364  0.05007  0.73912  1.0000
  C   C541      1.0  0.58941  0.30170  0.94578  1.0000
  H   H435      1.0  0.60705  0.40028  0.72251  1.0000
  C   C542      1.0  0.57448  0.22380  0.89071  1.0000
  C   C543      1.0  0.61955  0.00902  0.56330  1.0000
  H   H436      1.0  0.48332  0.48326  0.83424  1.0000
  C   C544      1.0  0.66278  0.07100  0.60202  1.0000
  C   C545      1.0  0.52386  0.24341  0.83919  1.0000
  C   C546      1.0  0.53616  0.18499  0.54481  1.0000
  H   H437      1.0  0.58952  0.18721  0.84827  1.0000
  C   C547      1.0  0.40763  0.45602  0.69826  1.0000
  C   C548      1.0  0.43210  0.42999  0.69526  1.0000
  C   C549      1.0  0.45203  0.42770  0.66219  1.0000
  P   P17       1.0  0.44175  0.40329  0.73552  1.0000
  C   C550      1.0  0.47438  0.42600  0.76192  1.0000
  C   C551      1.0  0.40460  0.39440  0.76464  1.0000
  C   C552      1.0  0.40868  0.38756  0.80344  1.0000
  C   C553      1.0  0.61466  0.46090  0.62367  1.0000
  H   H438      1.0  0.54478  0.47375  0.82005  1.0000
  C   C554      1.0  0.64267  0.35056  0.94587  1.0000
  C   C555      1.0  0.37184  0.39127  0.74830  1.0000
  C   C556      1.0  0.50923  0.42151  0.75325  1.0000
  C   C557      1.0  0.53457  0.43866  0.77414  1.0000
  C   C558      1.0  0.45608  0.36152  0.72100  1.0000
  C   C559      1.0  0.44374  0.34670  0.68738  1.0000
  C   C560      1.0  0.45367  0.31375  0.67706  1.0000
  C   C561      1.0  0.47544  0.29503  0.70048  1.0000
  C   C562      1.0  0.48721  0.30926  0.73443  1.0000
  C   C563      1.0  0.47742  0.34231  0.74481  1.0000
  C   C564      1.0  0.51042  0.04271  0.90714  1.0000
  H   H439      1.0  0.58691  0.20036  0.52736  1.0000
  H   H440      1.0  0.39308  0.45937  0.72415  1.0000
  H   H441      1.0  0.47210  0.40888  0.65977  1.0000
  H   H442      1.0  0.43378  0.38866  0.81662  1.0000
  H   H443      1.0  0.46843  0.25852  0.50652  1.0000
  C   C565      1.0  0.39444  0.38123  0.55927  1.0000
  C   C566      1.0  0.39923  0.02331  0.49726  1.0000
  H   H444      1.0  0.36827  0.39507  0.71821  1.0000
  H   H445      1.0  0.51676  0.40456  0.73059  1.0000
  H   H446      1.0  0.56145  0.43454  0.76799  1.0000
  H   H447      1.0  0.42618  0.36034  0.66920  1.0000
  H   H448      1.0  0.44426  0.30260  0.65095  1.0000
  H   H449      1.0  0.48313  0.26944  0.69232  1.0000
  H   H450      1.0  0.50382  0.29455  0.75270  1.0000
  H   H451      1.0  0.48619  0.35269  0.77159  1.0000
  P   P18       1.0  0.55490  0.27048  0.94633  1.0000
  H   H452      1.0  0.40882  0.34623  0.51515  1.0000
  H   H453      1.0  0.66298  0.36970  0.94574  1.0000
  H   H454      1.0  0.54454  0.20452  0.80259  1.0000
  H   H455      1.0  0.65612  0.07365  0.57238  1.0000
  C   C567      1.0  0.65020  0.47722  0.76857  1.0000
  C   C568      1.0  0.50173  0.18131  0.53428  1.0000
  H   H456      1.0  0.42522  0.12714  0.52362  1.0000
  C   C569      1.0  0.56032  0.19736  0.51886  1.0000
  C   C570      1.0  0.52524  0.46082  0.80338  1.0000
  C   C571      1.0  0.45969  0.00188  0.96233  1.0000
  H   H457      1.0  0.34755  0.00967  0.79288  1.0000
  C   C572      1.0  0.46517  0.44920  0.79046  1.0000
  C   C573      1.0  0.40129  0.01084  0.80688  1.0000
  H   H458      1.0  0.51757  0.36726  0.62900  1.0000
  S   S86       1.0  0.64502  0.44018  0.96368  1.0000
  H   H459      1.0  0.43844  0.45391  0.79705  1.0000
  H   H460      1.0  0.52801  0.33731  0.92472  1.0000
  C   C574      1.0  0.50890  0.32457  0.94212  1.0000
  C   C575      1.0  0.55008  0.20610  0.48222  1.0000
  C   C576      1.0  0.63137  0.49284  0.56738  1.0000
  C   C577      1.0  0.49055  0.46621  0.81137  1.0000
  C   C578      1.0  0.40233  0.47852  0.66803  1.0000
  H   H461      1.0  0.37783  0.22413  0.59680  1.0000
  C   C579      1.0  0.54837  0.35109  0.67624  1.0000
  C   C580      1.0  0.53022  0.06606  0.88632  1.0000
  C   C581      1.0  0.56538  0.06075  0.88153  1.0000
  C   C582      1.0  0.58065  0.03186  0.89709  1.0000
  H   H462      1.0  0.54144  0.00705  0.82317  1.0000
  P   P19       1.0  0.59648  0.45905  0.67092  1.0000
  C   C583      1.0  0.63890  0.43163  0.56912  1.0000
  C   C584      1.0  0.58713  0.39378  0.70234  1.0000
  C   C585      1.0  0.64682  0.04330  0.79381  1.0000
  C   C586      1.0  0.38217  0.16946  0.59258  1.0000
  C   C587      1.0  0.57333  0.36063  0.70270  1.0000
  C   C588      1.0  0.59241  0.02636  0.58088  1.0000
  H   H463      1.0  0.59425  0.21587  0.91036  1.0000
  C   C589      1.0  0.35255  0.42421  0.54217  1.0000
  C   C590      1.0  0.61567  0.30033  0.91849  1.0000
  C   C591      1.0  0.57579  0.41770  0.67551  1.0000
  C   C592      1.0  0.34765  0.37665  0.80957  1.0000
  C   C593      1.0  0.37182  0.38289  0.49550  1.0000
  H   H464      1.0  0.38133  0.02526  0.55493  1.0000
  H   H465      1.0  0.48307  0.04697  0.90966  1.0000
  C   C594      1.0  0.66359  0.45001  0.69687  1.0000
  C   C595      1.0  0.54661  0.21729  0.82979  1.0000
  C   C596      1.0  0.42186  0.47561  0.63496  1.0000
  H   H466      1.0  0.51821  0.08809  0.87353  1.0000
  C   C597      1.0  0.38025  0.37901  0.82579  1.0000
  C   C598      1.0  0.49112  0.19045  0.49769  1.0000
  C   C599      1.0  0.37495  0.40979  0.56881  1.0000
  H   H467      1.0  0.58082  0.07868  0.86527  1.0000
  H   H468      1.0  0.47325  0.36628  0.93781  1.0000
  H   H469      1.0  0.59410  0.03406  0.61026  1.0000
  C   C600      1.0  0.37264  0.01951  0.78519  1.0000
  C   C601      1.0  0.40143  0.01345  0.63942  1.0000
  H   H470      1.0  0.41080  0.23554  0.53855  1.0000
  C   C602      1.0  0.35160  0.41093  0.50521  1.0000
  C   C603      1.0  0.53120  0.48885  0.67803  1.0000
  H   H471      1.0  0.52012  0.46370  0.67494  1.0000
  C   C604      1.0  0.39733  0.00403  0.96341  1.0000
  H   H472      1.0  0.65095  0.46303  0.52081  1.0000
  H   H473      1.0  0.64507  0.48766  0.79642  1.0000
  C   C605      1.0  0.45219  0.26067  0.48170  1.0000
  H   H474      1.0  0.33584  0.42261  0.48358  1.0000
  H   H475      1.0  0.35960  0.02832  0.67530  1.0000
  Fe  Fe44      1.0  0.55665  0.41554  0.48679  1.0000
  C   C606      1.0  0.56082  0.00805  0.91734  1.0000
  C   C607      1.0  0.59025  0.32771  0.97318  1.0000
  H   H476      1.0  0.66224  0.32380  0.89736  1.0000
  C   C608      1.0  0.45355  0.05231  0.48540  1.0000
  H   H477      1.0  0.59608  0.06581  0.97464  1.0000
  H   H478      1.0  0.64631  0.40816  0.55508  1.0000
  H   H479      1.0  0.53799  0.03435  0.50625  1.0000
  C   C609      1.0  0.66297  0.47878  0.89995  1.0000
  C   C610      1.0  0.45273  0.32503  0.97158  1.0000
  C   C611      1.0  0.36994  0.00833  0.65753  1.0000
  H   H480      1.0  0.42864  0.33780  0.97708  1.0000
  P   P20       1.0  0.65847  0.00072  0.58974  1.0000
  C   C612      1.0  0.54871  0.20535  0.97797  1.0000
  C   C613      1.0  0.49004  0.27630  0.98001  1.0000
  H   H481      1.0  0.66258  0.12536  0.61190  1.0000
  S   S87       1.0  0.36413  0.99821  0.48200  1.0000
  C   C614      1.0  0.56429  0.23780  0.98094  1.0000
  Fe  Fe45      1.0  0.48691  0.80113  0.09370  1.0000
  S   S88       1.0  0.44551  0.76545  0.11336  1.0000
  S   S89       1.0  0.48265  0.83741  0.04373  1.0000
  Fe  Fe46      1.0  0.53698  0.77640  0.15465  1.0000
  S   S90       1.0  0.49867  0.73825  0.17828  1.0000
  S   S91       1.0  0.59369  0.77980  0.17037  1.0000
  Fe  Fe47      1.0  0.48659  0.72524  0.11748  1.0000
  S   S92       1.0  0.47275  0.67397  0.08937  1.0000
  Fe  Fe48      1.0  0.46111  0.78177  0.17195  1.0000
  S   S93       1.0  0.41777  0.79366  0.21314  1.0000
  S   S94       1.0  0.52721  0.76049  0.09409  1.0000
  S   S95       1.0  0.50028  0.82038  0.15204  1.0000
  S   S96       1.0  0.54576  0.52836  0.07840  1.0000
  S   S97       1.0  0.41195  0.92623  0.31684  1.0000
  C   C615      1.0  0.42460  0.91162  0.08414  1.0000
  H   H482      1.0  0.43312  0.86324  0.16332  1.0000
  C   C616      1.0  0.41583  0.56138  0.38269  1.0000
  C   C617      1.0  0.64059  0.73744  0.44414  1.0000
  H   H483      1.0  0.52610  0.98639  0.28917  1.0000
  H   H484      1.0  0.52339  0.72114  0.43697  1.0000
  H   H485      1.0  0.59066  0.97392  0.18225  1.0000
  H   H486      1.0  0.55074  0.93161  0.08780  1.0000
  C   C618      1.0  0.41501  0.83237  0.23895  1.0000
  C   C619      1.0  0.44280  0.85513  0.24108  1.0000
  C   C620      1.0  0.44082  0.88422  0.26430  1.0000
  C   C621      1.0  0.41098  0.89125  0.28513  1.0000
  C   C622      1.0  0.38268  0.86925  0.28198  1.0000
  C   C623      1.0  0.38486  0.83969  0.25927  1.0000
  H   H487      1.0  0.46621  0.84968  0.22585  1.0000
  H   H488      1.0  0.46258  0.90133  0.26639  1.0000
  C   C624      1.0  0.47471  0.97873  0.26858  1.0000
  C   C625      1.0  0.61649  0.79008  0.21246  1.0000
  C   C626      1.0  0.61062  0.81977  0.23391  1.0000
  C   C627      1.0  0.63328  0.82895  0.26381  1.0000
  H   H489      1.0  0.38828  0.58060  0.33464  1.0000
  H   H490      1.0  0.46786  0.52624  0.24516  1.0000
  C   C628      1.0  0.33361  0.98664  0.17993  1.0000
  H   H491      1.0  0.58924  0.83600  0.22683  1.0000
  H   H492      1.0  0.62915  0.85206  0.27986  1.0000
  H   H493      1.0  0.36323  0.82220  0.25780  1.0000
  H   H494      1.0  0.50368  0.56483  0.20585  1.0000
  C   C629      1.0  0.52661  0.56952  0.07920  1.0000
  C   C630      1.0  0.53764  0.59350  0.10644  1.0000
  C   C631      1.0  0.52215  0.62591  0.10937  1.0000
  C   C632      1.0  0.49492  0.63451  0.08545  1.0000
  C   C633      1.0  0.48390  0.61052  0.05821  1.0000
  C   C634      1.0  0.49985  0.57839  0.05477  1.0000
  H   H495      1.0  0.55826  0.58692  0.12555  1.0000
  H   H496      1.0  0.53089  0.64401  0.13050  1.0000
  H   H497      1.0  0.46284  0.61685  0.03960  1.0000
  H   H498      1.0  0.49088  0.56020  0.03385  1.0000
  C   C635      1.0  0.44411  0.83953  0.01726  1.0000
  C   C636      1.0  0.41467  0.82117  0.02774  1.0000
  H   H499      1.0  0.62825  0.80222  0.36161  1.0000
  H   H500      1.0  0.42311  0.49929  0.20262  1.0000
  H   H501      1.0  0.41519  0.80457  0.05212  1.0000
  H   H502      1.0  0.34150  0.83642  0.37013  1.0000
  H   H503      1.0  0.40829  0.58224  0.40098  1.0000
  C   C637      1.0  0.64459  0.76962  0.22158  1.0000
  H   H504      1.0  0.34160  0.52654  0.33003  1.0000
  C   C638      1.0  0.40444  0.56030  0.34513  1.0000
  C   C639      1.0  0.60602  0.78004  0.41214  1.0000
  H   H505      1.0  0.49591  0.90949  0.06174  1.0000
  Fe  Fe49      1.0  0.35476  0.99335  0.41915  1.0000
  H   H506      1.0  0.38740  0.60151  0.24560  1.0000
  C   C640      1.0  0.54488  0.93065  0.38623  1.0000
  C   C641      1.0  0.55436  0.90267  0.40832  1.0000
  C   C642      1.0  0.54115  0.90487  0.25769  1.0000
  H   H507      1.0  0.54455  0.85016  0.42196  1.0000
  C   C643      1.0  0.54729  0.97920  0.00715  1.0000
  C   C644      1.0  0.38884  0.86227  0.38410  1.0000
  H   H508      1.0  0.35827  0.50132  0.44593  1.0000
  C   C645      1.0  0.38554  0.80510  0.35843  1.0000
  C   C646      1.0  0.42139  0.80325  0.35878  1.0000
  C   C647      1.0  0.44132  0.83152  0.37022  1.0000
  C   C648      1.0  0.42469  0.86069  0.38400  1.0000
  P   P21       1.0  0.48749  0.82784  0.37297  1.0000
  C   C649      1.0  0.49427  0.80027  0.41302  1.0000
  C   C650      1.0  0.50667  0.81059  0.33063  1.0000
  C   C651      1.0  0.54211  0.80428  0.32985  1.0000
  C   C652      1.0  0.55717  0.78914  0.29815  1.0000
  C   C653      1.0  0.53723  0.78161  0.26632  1.0000
  C   C654      1.0  0.50227  0.78925  0.26631  1.0000
  C   C655      1.0  0.48701  0.80365  0.29828  1.0000
  H   H509      1.0  0.49043  0.98603  0.10134  1.0000
  C   C656      1.0  0.42904  0.94410  0.10006  1.0000
  C   C657      1.0  0.48507  0.78871  0.47977  1.0000
  P   P22       1.0  0.43776  0.98945  0.16059  1.0000
  C   C658      1.0  0.50869  0.76768  0.40877  1.0000
  C   C659      1.0  0.50862  0.86856  0.38001  1.0000
  C   C660      1.0  0.49940  0.89671  0.35776  1.0000
  C   C661      1.0  0.51721  0.92773  0.36121  1.0000
  H   H510      1.0  0.37040  0.78368  0.34817  1.0000
  H   H511      1.0  0.39936  0.71978  0.99137  1.0000
  C   C662      1.0  0.65085  0.57235  0.04570  1.0000
  H   H512      1.0  0.37634  0.88525  0.39372  1.0000
  C   C663      1.0  0.41037  0.55305  0.11861  1.0000
  C   C664      1.0  0.48243  0.81059  0.44872  1.0000
  H   H513      1.0  0.43356  0.77981  0.34981  1.0000
  H   H514      1.0  0.43910  0.88243  0.39453  1.0000
  H   H515      1.0  0.55802  0.81076  0.35387  1.0000
  H   H516      1.0  0.58437  0.78346  0.29806  1.0000
  H   H517      1.0  0.54891  0.77020  0.24152  1.0000
  H   H518      1.0  0.48680  0.78404  0.24153  1.0000
  H   H519      1.0  0.45999  0.80946  0.29725  1.0000
  C   C665      1.0  0.46597  0.98842  0.20131  1.0000
  C   C666      1.0  0.46558  0.60425  0.20303  1.0000
  H   H520      1.0  0.50634  0.89947  0.21065  1.0000
  H   H521      1.0  0.58314  0.79546  0.41132  1.0000
  H   H522      1.0  0.51703  0.75853  0.38140  1.0000
  H   H523      1.0  0.47852  0.89461  0.33760  1.0000
  H   H524      1.0  0.50976  0.94939  0.34417  1.0000
  H   H525      1.0  0.55406  0.81856  0.48000  1.0000
  H   H526      1.0  0.36165  0.80989  0.01492  1.0000
  C   C667      1.0  0.38426  0.82432  0.00663  1.0000
  C   C668      1.0  0.49766  0.94184  0.01233  1.0000
  H   H527      1.0  0.42281  0.85739  0.09495  1.0000
  C   C669      1.0  0.63976  0.95444  0.16341  1.0000
  H   H528      1.0  0.42355  0.63946  0.20625  1.0000
  H   H529      1.0  0.47325  0.93241  0.00174  1.0000
  H   H530      1.0  0.36082  0.53102  0.10686  1.0000
  H   H531      1.0  0.44100  0.92025  0.19204  1.0000
  H   H532      1.0  0.54503  0.74631  0.00255  1.0000
  C   C670      1.0  0.41226  0.59261  0.23631  1.0000
  H   H533      1.0  0.46299  0.56811  0.12822  1.0000
  H   H534      1.0  0.60478  0.84997  0.45383  1.0000
  C   C671      1.0  0.59343  0.90750  0.20288  1.0000
  H   H535      1.0  0.62738  0.91511  0.25096  1.0000
  H   H536      1.0  0.48137  0.62117  0.18578  1.0000
  H   H537      1.0  0.56793  0.82919  0.08204  1.0000
  S   S98       1.0  0.64534  0.88219  0.37628  1.0000
  C   C672      1.0  0.55370  0.69544  0.02262  1.0000
  H   H538      1.0  0.41957  0.90875  0.05410  1.0000
  C   C673      1.0  0.49997  0.75659  0.47553  1.0000
  H   H539      1.0  0.47090  0.83547  0.45250  1.0000
  C   C674      1.0  0.51665  0.96624  0.99169  1.0000
  C   C675      1.0  0.53289  0.90252  0.21927  1.0000
  H   H540      1.0  0.55797  0.64203  0.03642  1.0000
  C   C676      1.0  0.59390  0.86454  0.11927  1.0000
  H   H541      1.0  0.55169  0.90302  0.16236  1.0000
  C   C677      1.0  0.35225  0.54167  0.27193  1.0000
  C   C678      1.0  0.58393  0.85195  0.08385  1.0000
  H   H542      1.0  0.52118  0.90337  0.27891  1.0000
  H   H543      1.0  0.42659  0.96635  0.08209  1.0000
  C   C679      1.0  0.51191  0.74611  0.44012  1.0000
  H   H544      1.0  0.36886  0.95955  0.14476  1.0000
  C   C680      1.0  0.53635  0.87170  0.40523  1.0000
  H   H545      1.0  0.58587  0.85088  0.14452  1.0000
  Fe  Fe50      1.0  0.36884  0.95627  0.34442  1.0000
  C   C681      1.0  0.36617  0.98032  0.16473  1.0000
  C   C682      1.0  0.59489  0.86841  0.05084  1.0000
  C   C683      1.0  0.61575  0.89756  0.05318  1.0000
  C   C684      1.0  0.44530  0.54689  0.12403  1.0000
  C   C685      1.0  0.43721  0.91827  0.16177  1.0000
  C   C686      1.0  0.54987  0.66051  0.01547  1.0000
  C   C687      1.0  0.63146  0.78405  0.38451  1.0000
  H   H546      1.0  0.40116  0.57912  0.11869  1.0000
  C   C688      1.0  0.45309  0.97897  0.23703  1.0000
  C   C689      1.0  0.51013  0.92915  0.04662  1.0000
  H   H547      1.0  0.63838  0.58933  0.06558  1.0000
  C   C690      1.0  0.43284  0.61444  0.21437  1.0000
  P   P23       1.0  0.39726  0.53094  0.27363  1.0000
  C   C691      1.0  0.54256  0.71938  0.99600  1.0000
  H   H548      1.0  0.35270  0.55543  0.21250  1.0000
  C   C692      1.0  0.57524  0.90967  0.26878  1.0000
  C   C693      1.0  0.55950  0.96670  0.04170  1.0000
  C   C694      1.0  0.42641  0.88259  0.10703  1.0000
  H   H549      1.0  0.42635  0.97173  0.24076  1.0000
  H   H550      1.0  0.64975  0.74702  0.20494  1.0000
  C   C695      1.0  0.47807  0.57246  0.21426  1.0000
  C   C696      1.0  0.42400  0.55996  0.24631  1.0000
  H   H551      1.0  0.65235  0.84049  0.15209  1.0000
  H   H552      1.0  0.58739  0.85840  0.02348  1.0000
  C   C697      1.0  0.44623  0.50840  0.37326  1.0000
  H   H553      1.0  0.57609  0.90485  0.42740  1.0000
  C   C698      1.0  0.60125  0.91114  0.24153  1.0000
  H   H554      1.0  0.58163  0.91232  0.29856  1.0000
  C   C699      1.0  0.43257  0.88591  0.14574  1.0000
  H   H555      1.0  0.44498  0.53584  0.42606  1.0000
  S   S99       1.0  0.62312  0.97075  0.34047  1.0000
  P   P24       1.0  0.62744  0.91017  0.16796  1.0000
  C   C700      1.0  0.61436  0.89418  0.12200  1.0000
  C   C701      1.0  0.62539  0.91049  0.08857  1.0000
  C   C702      1.0  0.55885  0.90419  0.19191  1.0000
  C   C703      1.0  0.64675  0.52891  0.99719  1.0000
  C   C704      1.0  0.54106  0.94155  0.06128  1.0000
  C   C705      1.0  0.41330  0.53283  0.32159  1.0000
  C   C706      1.0  0.66174  0.80841  0.27218  1.0000
  C   C707      1.0  0.61052  0.75689  0.44181  1.0000
  H   H556      1.0  0.56464  0.70394  0.04925  1.0000
  C   C708      1.0  0.43482  0.50716  0.33575  1.0000
  H   H557      1.0  0.35956  0.87439  0.29792  1.0000
  C   C709      1.0  0.43573  0.94763  0.13902  1.0000
  C   C710      1.0  0.43656  0.53534  0.39681  1.0000
  H   H558      1.0  0.60305  0.55133  0.02494  1.0000
  H   H559      1.0  0.61825  0.63990  0.47992  1.0000
  C   C711      1.0  0.45757  0.55057  0.23624  1.0000
  H   H560      1.0  0.46445  0.97190  0.29609  1.0000
  H   H561      1.0  0.58337  0.97648  0.05325  1.0000
  H   H562      1.0  0.55931  0.95443  0.38808  1.0000
  H   H563      1.0  0.59077  0.75502  0.46321  1.0000
  C   C712      1.0  0.36925  0.83470  0.37093  1.0000
  C   C713      1.0  0.63086  0.55099  0.02273  1.0000
  H   H564      1.0  0.62447  0.91031  0.02756  1.0000
  H   H565      1.0  0.45874  0.96035  0.45544  1.0000
  C   C714      1.0  0.61632  0.98016  0.17260  1.0000
  C   C715      1.0  0.33729  0.55260  0.23786  1.0000
  H   H566      1.0  0.64151  0.93312  0.08936  1.0000
  H   H567      1.0  0.65303  0.66699  0.41686  1.0000
  C   C716      1.0  0.50941  0.98720  0.26474  1.0000
  H   H568      1.0  0.48498  0.50901  0.12582  1.0000
  C   C717      1.0  0.44284  0.86084  0.98538  1.0000
  C   C718      1.0  0.38770  0.52577  0.11193  1.0000
  C   C719      1.0  0.66162  0.76512  0.38684  1.0000
  H   H569      1.0  0.34778  0.90919  0.99243  1.0000
  C   C720      1.0  0.45765  0.51351  0.12280  1.0000
  C   C721      1.0  0.66409  0.88632  0.18445  1.0000
  S   S100      1.0  0.33347  0.94486  0.39378  1.0000
  Fe  Fe51      1.0  0.66495  0.93488  0.36105  1.0000
  H   H570      1.0  0.35352  0.49622  0.17092  1.0000
  H   H571      1.0  0.51760  0.97188  0.47933  1.0000
  C   C722      1.0  0.53455  0.64941  0.98185  1.0000
  H   H572      1.0  0.60312  0.99444  0.83192  1.0000
  C   C723      1.0  0.42763  0.98898  0.95057  1.0000
  H   H573      1.0  0.63310  0.51686  0.55220  1.0000
  C   C724      1.0  0.40374  0.52716  0.52072  1.0000
  C   C725      1.0  0.57612  0.82349  0.49772  1.0000
  S   S101      1.0  0.37925  0.88810  0.85062  1.0000
  C   C726      1.0  0.35367  0.92732  0.53901  1.0000
  Fe  Fe52      1.0  0.51033  0.74096  0.68395  1.0000
  S   S102      1.0  0.55750  0.71164  0.70176  1.0000
  S   S103      1.0  0.46634  0.74110  0.72658  1.0000
  Fe  Fe53      1.0  0.54321  0.76206  0.60911  1.0000
  S   S104      1.0  0.59145  0.73417  0.62168  1.0000
  S   S105      1.0  0.53925  0.79039  0.55337  1.0000
  Fe  Fe54      1.0  0.55722  0.69119  0.64186  1.0000
  S   S106      1.0  0.57396  0.63747  0.62368  1.0000
  Fe  Fe55      1.0  0.58712  0.75715  0.67975  1.0000
  H   H574      1.0  0.36998  0.76537  0.95504  1.0000
  S   S107      1.0  0.50847  0.71787  0.62547  1.0000
  S   S108      1.0  0.54028  0.78749  0.66591  1.0000
  H   H575      1.0  0.37282  0.99423  0.95352  1.0000
  C   C727      1.0  0.54952  0.60276  0.60475  1.0000
  C   C728      1.0  0.51366  0.60119  0.60737  1.0000
  C   C729      1.0  0.49564  0.57198  0.59438  1.0000
  C   C730      1.0  0.51310  0.54426  0.57803  1.0000
  C   C731      1.0  0.54881  0.54629  0.57435  1.0000
  C   C732      1.0  0.56690  0.57522  0.58793  1.0000
  H   H576      1.0  0.49992  0.62208  0.62034  1.0000
  H   H577      1.0  0.46800  0.57074  0.59737  1.0000
  H   H578      1.0  0.56247  0.52531  0.56156  1.0000
  H   H579      1.0  0.59460  0.57622  0.58563  1.0000
  C   C733      1.0  0.57603  0.81176  0.53532  1.0000
  H   H580      1.0  0.39700  0.85350  0.55575  1.0000
  H   H581      1.0  0.60750  0.81990  0.90049  1.0000
  C   C734      1.0  0.60945  0.80425  0.77126  1.0000
  H   H582      1.0  0.46429  0.78977  0.89808  1.0000
  H   H583      1.0  0.59102  0.78361  0.76802  1.0000
  C   C735      1.0  0.38122  0.81990  0.74609  1.0000
  C   C736      1.0  0.40265  0.81010  0.77588  1.0000
  C   C737      1.0  0.42934  0.78669  0.76936  1.0000
  C   C738      1.0  0.43572  0.77391  0.73281  1.0000
  C   C739      1.0  0.41455  0.78411  0.70299  1.0000
  C   C740      1.0  0.38721  0.80668  0.70971  1.0000
  H   H584      1.0  0.39800  0.81966  0.80414  1.0000
  H   H585      1.0  0.44474  0.77805  0.79290  1.0000
  H   H586      1.0  0.41848  0.77365  0.67498  1.0000
  H   H587      1.0  0.59069  0.73765  0.52759  1.0000
  C   C741      1.0  0.36554  0.95204  0.62945  1.0000
  C   C742      1.0  0.38603  0.55736  0.51359  1.0000
  C   C743      1.0  0.37775  0.87074  0.54503  1.0000
  H   H588      1.0  0.41210  0.87981  0.93896  1.0000
  C   C744      1.0  0.56590  0.78467  0.91218  1.0000
  C   C745      1.0  0.41515  0.98794  0.61635  1.0000
  H   H589      1.0  0.46550  0.87493  0.97729  1.0000
  C   C746      1.0  0.41258  0.86367  0.96382  1.0000
  H   H590      1.0  0.50491  0.57111  0.68835  1.0000
  C   C747      1.0  0.62266  0.96322  0.64426  1.0000
  H   H591      1.0  0.43950  0.99277  0.60251  1.0000
  P   P25       1.0  0.51158  0.73899  0.92808  1.0000
  C   C748      1.0  0.51665  0.72141  0.88094  1.0000
  H   H592      1.0  0.56777  0.58086  0.68926  1.0000
  C   C749      1.0  0.35208  0.97752  0.65280  1.0000
  H   H593      1.0  0.41349  0.94052  0.49864  1.0000
  H   H594      1.0  0.63130  0.51225  0.97944  1.0000
  H   H595      1.0  0.58598  0.86455  0.94374  1.0000
  C   C750      1.0  0.52340  0.67324  0.95513  1.0000
  C   C751      1.0  0.54811  0.70700  0.87007  1.0000
  C   C752      1.0  0.55265  0.69444  0.83332  1.0000
  C   C753      1.0  0.52557  0.69537  0.80742  1.0000
  C   C754      1.0  0.49385  0.70845  0.81840  1.0000
  C   C755      1.0  0.48929  0.72134  0.85494  1.0000
  S   S109      1.0  0.64668  0.96487  0.89297  1.0000
  C   C756      1.0  0.52213  0.54956  0.68623  1.0000
  C   C757      1.0  0.49082  0.94871  0.91387  1.0000
  C   C758      1.0  0.49706  0.91438  0.92267  1.0000
  C   C759      1.0  0.47571  0.95678  0.87900  1.0000
  S   S110      1.0  0.34599  0.84754  0.75321  1.0000
  C   C760      1.0  0.55250  0.98474  0.80992  1.0000
  H   H596      1.0  0.52409  0.65085  0.54122  1.0000
  H   H597      1.0  0.35149  0.92821  0.62615  1.0000
  C   C761      1.0  0.55760  0.55503  0.68682  1.0000
  C   C762      1.0  0.60479  0.81797  0.55802  1.0000
  H   H598      1.0  0.43486  0.99016  0.70801  1.0000
  C   C763      1.0  0.63384  0.85054  0.80962  1.0000
  H   H599      1.0  0.45838  0.87652  0.84692  1.0000
  H   H600      1.0  0.56925  0.70566  0.88994  1.0000
  H   H601      1.0  0.57719  0.68401  0.82482  1.0000
  H   H602      1.0  0.52901  0.68580  0.77886  1.0000
  H   H603      1.0  0.47271  0.70870  0.79843  1.0000
  H   H604      1.0  0.46433  0.73110  0.86237  1.0000
  C   C764      1.0  0.58406  0.81541  0.91648  1.0000
  H   H605      1.0  0.42565  0.96742  0.93147  1.0000
  H   H606      1.0  0.39995  0.57990  0.50416  1.0000
  H   H607      1.0  0.56495  0.61490  0.50558  1.0000
  C   C765      1.0  0.50894  0.51648  0.68204  1.0000
  C   C766      1.0  0.51448  0.80373  0.78228  1.0000
  C   C767      1.0  0.52183  0.80636  0.82079  1.0000
  C   C768      1.0  0.52810  0.83834  0.83686  1.0000
  C   C769      1.0  0.52754  0.86764  0.81437  1.0000
  C   C770      1.0  0.51964  0.86527  0.77566  1.0000
  C   C771      1.0  0.51244  0.83309  0.75989  1.0000
  P   P26       1.0  0.51938  0.90312  0.74641  1.0000
  C   C772      1.0  0.47644  0.91977  0.74114  1.0000
  C   C773      1.0  0.54632  0.93417  0.77030  1.0000
  C   C774      1.0  0.53197  0.96291  0.78814  1.0000
  C   C775      1.0  0.37909  0.90579  0.55352  1.0000
  C   C776      1.0  0.58131  0.92723  0.77574  1.0000
  C   C777      1.0  0.47138  0.95157  0.72353  1.0000
  C   C778      1.0  0.43846  0.96530  0.72085  1.0000
  C   C779      1.0  0.41033  0.94756  0.73587  1.0000
  C   C780      1.0  0.41512  0.91605  0.75353  1.0000
  C   C781      1.0  0.44802  0.90218  0.75631  1.0000
  C   C782      1.0  0.53860  0.89241  0.70118  1.0000
  C   C783      1.0  0.52594  0.90593  0.66707  1.0000
  C   C784      1.0  0.54133  0.89750  0.63253  1.0000
  C   C785      1.0  0.56918  0.87536  0.63157  1.0000
  C   C786      1.0  0.58168  0.86145  0.66514  1.0000
  C   C787      1.0  0.56648  0.86983  0.69978  1.0000
  H   H608      1.0  0.51079  0.77879  0.76972  1.0000
  H   H609      1.0  0.52372  0.78357  0.83786  1.0000
  H   H610      1.0  0.53490  0.84043  0.86643  1.0000
  H   H611      1.0  0.53363  0.89197  0.82743  1.0000
  H   H612      1.0  0.50618  0.83052  0.73018  1.0000
  H   H613      1.0  0.50487  0.96834  0.78632  1.0000
  H   H614      1.0  0.59282  0.90448  0.76413  1.0000
  H   H615      1.0  0.49304  0.96623  0.71277  1.0000
  H   H616      1.0  0.65446  0.84245  0.56186  1.0000
  H   H617      1.0  0.38489  0.95852  0.73443  1.0000
  H   H618      1.0  0.39330  0.90251  0.76541  1.0000
  H   H619      1.0  0.45100  0.87778  0.77033  1.0000
  H   H620      1.0  0.50407  0.92261  0.66667  1.0000
  H   H621      1.0  0.53156  0.90777  0.60629  1.0000
  H   H622      1.0  0.58095  0.86885  0.60477  1.0000
  H   H623      1.0  0.60305  0.84387  0.66432  1.0000
  H   H624      1.0  0.57644  0.85833  0.72535  1.0000
  C   C788      1.0  0.41346  0.73451  0.97044  1.0000
  H   H625      1.0  0.35466  0.95447  0.54476  1.0000
  C   C789      1.0  0.47287  0.84323  0.61412  1.0000
  C   C790      1.0  0.63340  0.81077  0.74263  1.0000
  C   C791      1.0  0.46465  0.95652  0.48512  1.0000
  H   H626      1.0  0.64893  0.70164  0.56705  1.0000
  C   C792      1.0  0.57994  0.52748  0.68290  1.0000
  C   C793      1.0  0.45798  0.86914  0.59259  1.0000
  C   C794      1.0  0.44829  0.72806  0.96419  1.0000
  S   S111      1.0  0.48920  0.50737  0.56391  1.0000
  H   H627      1.0  0.49100  0.82586  0.60122  1.0000
  C   C795      1.0  0.45030  0.77402  0.91815  1.0000
  C   C796      1.0  0.57193  0.84063  0.94094  1.0000
  H   H628      1.0  0.51047  0.90744  0.94823  1.0000
  C   C797      1.0  0.35152  0.85765  0.52197  1.0000
  H   H629      1.0  0.37061  0.81391  0.68656  1.0000
  C   C798      1.0  0.52783  0.70841  0.96175  1.0000
  H   H630      1.0  0.53694  0.71236  0.55116  1.0000
  H   H631      1.0  0.60992  0.51578  0.61675  1.0000
  P   P27       1.0  0.41404  0.92393  0.58074  1.0000
  C   C799      1.0  0.44608  0.94086  0.54858  1.0000
  H   H632      1.0  0.62833  0.94276  0.80293  1.0000
  C   C800      1.0  0.43890  0.94533  0.50992  1.0000
  C   C801      1.0  0.48497  0.88842  0.89884  1.0000
  H   H633      1.0  0.46050  0.70808  0.98042  1.0000
  H   H634      1.0  0.48815  0.86191  0.90678  1.0000
  C   C802      1.0  0.52380  0.80402  0.95773  1.0000
  H   H635      1.0  0.43137  0.52632  0.51686  1.0000
  H   H636      1.0  0.57292  0.98514  0.92797  1.0000
  C   C803      1.0  0.61020  0.82363  0.80480  1.0000
  H   H637      1.0  0.46473  0.87139  0.56291  1.0000
  C   C804      1.0  0.49774  0.96322  0.49865  1.0000
  Fe  Fe56      1.0  0.35857  0.94167  0.84902  1.0000
  C   C805      1.0  0.46449  0.93079  0.85472  1.0000
  H   H638      1.0  0.64327  0.89563  0.70008  1.0000
  C   C806      1.0  0.46686  0.74751  0.93759  1.0000
  Fe  Fe57      1.0  0.33781  0.87615  0.80847  1.0000
  C   C807      1.0  0.38318  0.84516  0.97431  1.0000
  C   C808      1.0  0.54189  0.83483  0.96173  1.0000
  H   H639      1.0  0.40257  0.80039  0.90898  1.0000
  H   H640      1.0  0.59278  0.81733  0.82750  1.0000
  H   H641      1.0  0.60248  0.98187  0.64154  1.0000
  C   C809      1.0  0.50502  0.95908  0.53711  1.0000
  C   C810      1.0  0.39702  0.95722  0.61068  1.0000
  C   C811      1.0  0.55452  0.69671  0.53519  1.0000
  C   C812      1.0  0.43423  0.89150  0.60919  1.0000
  S   S112      1.0  0.63461  0.78551  0.70105  1.0000
  S   S113      1.0  0.39685  0.98561  0.84813  1.0000
  C   C813      1.0  0.46423  0.83953  0.65226  1.0000
  C   C814      1.0  0.44117  0.86200  0.66906  1.0000
  C   C815      1.0  0.42615  0.88790  0.64774  1.0000
  S   S114      1.0  0.63223  0.87473  0.85202  1.0000
  C   C816      1.0  0.47925  0.94818  0.56202  1.0000
  C   C817      1.0  0.60155  0.94873  0.79820  1.0000
  C   C818      1.0  0.46817  0.89663  0.86516  1.0000
  H   H642      1.0  0.38358  0.49870  0.67054  1.0000
  S   S115      1.0  0.34495  0.84627  0.94737  1.0000
  H   H643      1.0  0.47102  0.98312  0.87136  1.0000
  C   C819      1.0  0.63282  0.83684  0.54364  1.0000
  H   H644      1.0  0.60513  0.80900  0.58701  1.0000
  H   H645      1.0  0.47498  0.81900  0.66883  1.0000
  H   H646      1.0  0.43437  0.85878  0.69853  1.0000
  H   H647      1.0  0.40807  0.90463  0.66155  1.0000
  H   H648      1.0  0.48511  0.94547  0.59181  1.0000
  P   P28       1.0  0.49939  0.98234  0.94765  1.0000
  H   H649      1.0  0.45163  0.93731  0.82853  1.0000
  C   C820      1.0  0.60066  0.65631  0.49486  1.0000
  H   H650      1.0  0.51090  0.66417  0.92961  1.0000
  C   C821      1.0  0.58721  0.97756  0.81505  1.0000
  C   C822      1.0  0.63315  0.84823  0.50593  1.0000
  C   C823      1.0  0.53542  0.77875  0.93262  1.0000
  H   H651      1.0  0.60737  0.53238  0.68310  1.0000
  C   C824      1.0  0.41537  0.78000  0.92406  1.0000
  C   C825      1.0  0.58502  0.71106  0.52147  1.0000
  H   H652      1.0  0.50246  0.74002  0.49990  1.0000
  C   C826      1.0  0.54720  0.66216  0.52931  1.0000
  C   C827      1.0  0.65760  0.85741  0.78080  1.0000
  Fe  Fe58      1.0  0.33862  0.87864  0.89460  1.0000
  H   H653      1.0  0.47622  0.79685  0.50742  1.0000
  H   H654      1.0  0.62573  0.99367  0.71839  1.0000
  C   C828      1.0  0.61956  0.93834  0.67241  1.0000
  H   H655      1.0  0.53075  0.62230  0.97693  1.0000
  H   H656      1.0  0.59711  0.93805  0.69054  1.0000
  H   H657      1.0  0.57591  0.76592  0.89280  1.0000
  C   C829      1.0  0.39693  0.76018  0.95006  1.0000
  C   C830      1.0  0.65766  0.83724  0.74766  1.0000
  C   C831      1.0  0.60827  0.69110  0.50087  1.0000
  H   H658      1.0  0.35075  0.83065  0.51521  1.0000
  C   C832      1.0  0.64570  0.91469  0.67796  1.0000
  H   H659      1.0  0.50089  0.79987  0.97463  1.0000
  C   C833      1.0  0.35047  0.55848  0.51879  1.0000
  H   H660      1.0  0.48140  0.51235  0.68117  1.0000
  C   C834      1.0  0.60475  0.84130  0.48288  1.0000
  C   C835      1.0  0.57030  0.64193  0.50922  1.0000
  P   P29       1.0  0.64816  0.70997  0.48443  1.0000
  H   H661      1.0  0.53061  0.96441  0.54772  1.0000
  C   C836      1.0  0.65225  0.96497  0.62157  1.0000
  C   C837      1.0  0.66284  0.72491  0.56001  1.0000
  H   H662      1.0  0.53265  0.85399  0.98135  1.0000
  H   H663      1.0  0.36607  0.49620  0.96792  1.0000
  H   H664      1.0  0.33673  0.58190  0.51318  1.0000
  C   C838      1.0  0.35012  0.49872  0.53776  1.0000
  H   H665      1.0  0.66367  0.99413  0.77447  1.0000
  C   C839      1.0  0.38596  0.49799  0.53290  1.0000
  H   H666      1.0  0.63697  0.98738  0.50996  1.0000
  C   C840      1.0  0.33258  0.52938  0.53108  1.0000
  Fe  Fe59      1.0  0.84252  0.37871  0.33878  1.0000
  S   S116      1.0  0.88163  0.40426  0.37599  1.0000
  S   S117      1.0  0.85520  0.33192  0.30399  1.0000
  Fe  Fe60      1.0  0.78462  0.42576  0.36430  1.0000
  S   S118      1.0  0.81994  0.45569  0.40228  1.0000
  S   S119      1.0  0.72831  0.43993  0.35630  1.0000
  Fe  Fe61      1.0  0.85834  0.45315  0.35462  1.0000
  H   H667      1.0  0.98002  0.26605  0.44949  1.0000
  Fe  Fe62      1.0  0.84045  0.40448  0.42029  1.0000
  H   H668      1.0  0.87565  0.29808  0.43507  1.0000
  S   S120      1.0  0.82154  0.42728  0.31476  1.0000
  S   S121      1.0  0.80264  0.37473  0.38482  1.0000
  C   C841      1.0  0.69664  0.43024  0.39103  1.0000
  C   C842      1.0  0.70479  0.41238  0.42407  1.0000
  H   H669      1.0  0.89041  0.32374  0.37352  1.0000
  H   H670      1.0  0.73093  0.40428  0.42887  1.0000
  C   C843      1.0  0.73734  0.04952  0.98393  1.0000
  H   H671      1.0  0.91090  0.27045  0.29132  1.0000
  H   H672      1.0  0.78836  0.34787  0.27966  1.0000
  H   H673      1.0  0.91497  0.38209  0.45013  1.0000
  C   C844      1.0  0.96652  0.33866  0.17350  1.0000
  C   C845      1.0  0.95475  0.36811  0.19034  1.0000
  C   C846      1.0  0.93018  0.36706  0.21939  1.0000
  C   C847      1.0  0.91388  0.33572  0.23538  1.0000
  C   C848      1.0  0.92926  0.30612  0.21502  1.0000
  C   C849      1.0  0.95409  0.30779  0.18624  1.0000
  H   H674      1.0  0.96485  0.39251  0.18084  1.0000
  H   H675      1.0  0.92439  0.39269  0.22855  1.0000
  H   H676      1.0  0.92271  0.27969  0.22048  1.0000
  H   H677      1.0  0.96309  0.28452  0.17310  1.0000
  H   H678      1.0  0.83017  0.08137  0.07629  1.0000
  H   H679      1.0  0.72022  0.03089  0.99682  1.0000
  H   H680      1.0  0.74657  0.38991  0.30335  1.0000
  C   C850      1.0  0.84591  0.06172  0.06365  1.0000
  C   C851      1.0  0.74138  0.47595  0.03069  1.0000
  H   H681      1.0  0.83353  0.33714  0.21367  1.0000
  C   C852      1.0  0.98567  0.30258  0.30618  1.0000
  C   C853      1.0  0.86902  0.29702  0.24870  1.0000
  H   H682      1.0  0.81620  0.42715  0.11024  1.0000
  H   H683      1.0  0.92375  0.41719  0.13774  1.0000
  C   C854      1.0  0.85393  0.33593  0.23430  1.0000
  C   C855      1.0  0.98670  0.05456  0.21976  1.0000
  C   C856      1.0  0.77677  0.46160  0.23853  1.0000
  C   C857      1.0  0.99107  0.42806  0.32077  1.0000
  C   C858      1.0  0.76439  0.04862  0.08191  1.0000
  C   C859      1.0  0.97900  0.01958  0.21832  1.0000
  H   H684      1.0  0.73492  0.42216  0.04171  1.0000
  C   C860      1.0  0.69044  0.32744  0.27532  1.0000
  C   C861      1.0  0.90148  0.29498  0.28232  1.0000
  C   C862      1.0  0.71439  0.30386  0.26138  1.0000
  H   H685      1.0  0.85806  0.27378  0.23724  1.0000
  C   C863      1.0  0.93677  0.46843  0.24171  1.0000
  C   C864      1.0  0.84163  0.38288  0.08822  1.0000
  H   H686      1.0  0.97895  0.00513  0.24439  1.0000
  H   H687      1.0  0.92563  0.49232  0.02471  1.0000
  H   H688      1.0  0.68559  0.39057  0.47611  1.0000
  C   C865      1.0  0.97997  0.05838  0.15185  1.0000
  C   C866      1.0  0.73465  0.06866  0.07962  1.0000
  C   C867      1.0  0.96661  0.48056  0.22401  1.0000
  H   H689      1.0  0.69706  0.09783  0.11039  1.0000
  H   H690      1.0  0.98971  0.48530  0.24034  1.0000
  H   H691      1.0  0.99257  0.06664  0.24662  1.0000
  C   C868      1.0  0.90179  0.37739  0.10402  1.0000
  C   C869      1.0  0.77872  0.04203  0.11766  1.0000
  C   C870      1.0  0.73475  0.07613  0.14775  1.0000
  H   H692      1.0  0.96437  0.25519  0.32817  1.0000
  P   P30       1.0  0.78433  0.03145  0.03966  1.0000
  C   C871      1.0  0.97214  0.37171  0.34182  1.0000
  C   C872      1.0  0.85207  0.01006  0.02653  1.0000
  C   C873      1.0  0.88170  0.06433  0.06676  1.0000
  H   H693      1.0  0.92567  0.36327  0.10254  1.0000
  S   S122      1.0  0.99540  0.34128  0.13517  1.0000
  C   C874      1.0  0.98541  0.41641  0.38767  1.0000
  C   C875      1.0  0.89497  0.49090  0.45622  1.0000
  H   H694      1.0  0.99532  0.29148  0.38740  1.0000
  H   H695      1.0  0.96792  0.01170  0.12280  1.0000
  H   H696      1.0  0.69066  0.04535  0.25495  1.0000
  H   H697      1.0  0.76812  0.29283  0.25282  1.0000
  H   H698      1.0  0.82488  0.40876  0.18431  1.0000
  H   H699      1.0  0.77517  0.05076  0.17791  1.0000
  C   C876      1.0  0.97501  0.38292  0.37956  1.0000
  C   C877      1.0  0.97189  0.00371  0.18346  1.0000
  H   H700      1.0  0.96810  0.36642  0.40293  1.0000
  C   C878      1.0  0.99361  0.43892  0.35833  1.0000
  C   C879      1.0  0.96902  0.29249  0.39722  1.0000
  C   C880      1.0  0.77924  0.43215  0.00669  1.0000
  C   C881      1.0  0.78964  0.49152  0.99068  1.0000
  C   C882      1.0  0.98726  0.07393  0.18652  1.0000
  C   C883      1.0  0.76399  0.05581  0.15040  1.0000
  C   C884      1.0  0.97248  0.02342  0.15019  1.0000
  C   C885      1.0  0.98325  0.26684  0.30960  1.0000
  H   H701      1.0  0.72252  0.07391  0.05275  1.0000
  C   C886      1.0  0.91007  0.31050  0.38922  1.0000
  C   C887      1.0  0.91853  0.33196  0.30103  1.0000
  C   C888      1.0  0.75053  0.44156  0.02794  1.0000
  C   C889      1.0  0.90264  0.03986  0.04980  1.0000
  C   C890      1.0  0.76111  0.34229  0.27799  1.0000
  H   H702      1.0  0.81885  0.37309  0.07419  1.0000
  C   C891      1.0  0.87237  0.36478  0.08604  1.0000
  C   C892      1.0  0.83072  0.03432  0.04386  1.0000
  C   C893      1.0  0.67901  0.40472  0.45086  1.0000
  H   H703      1.0  0.84687  0.47349  0.07354  1.0000
  H   H704      1.0  0.88361  0.45545  0.23545  1.0000
  H   H705      1.0  0.99677  0.44578  0.29804  1.0000
  H   H706      1.0  0.98076  0.07344  0.12616  1.0000
  C   C894      1.0  0.98004  0.39478  0.31249  1.0000
  H   H707      1.0  0.98619  0.42516  0.41674  1.0000
  C   C895      1.0  0.70230  0.35872  0.29019  1.0000
  H   H708      1.0  0.93040  0.04207  0.05173  1.0000
  H   H709      1.0  0.78612  0.40549  0.00411  1.0000
  H   H710      1.0  0.75635  0.46063  0.25949  1.0000
  H   H711      1.0  0.77679  0.40723  0.22954  1.0000
  H   H712      1.0  0.91190  0.39430  0.29996  1.0000
  H   H713      1.0  0.99370  0.10095  0.18741  1.0000
  C   C896      1.0  0.96047  0.27792  0.43219  1.0000
  C   C897      1.0  0.90228  0.37087  0.28766  1.0000
  H   H714      1.0  0.93662  0.46363  0.27194  1.0000
  H   H715      1.0  0.97632  0.38766  0.28316  1.0000
  H   H716      1.0  0.84039  0.49027  0.46648  1.0000
  C   C898      1.0  0.74960  0.31127  0.26289  1.0000
  H   H717      1.0  0.89332  0.08562  0.08184  1.0000
  C   C899      1.0  0.78832  0.43151  0.22166  1.0000
  C   C900      1.0  0.81549  0.43257  0.19572  1.0000
  C   C901      1.0  0.83087  0.46395  0.18575  1.0000
  P   P31       1.0  0.95544  0.32933  0.33136  1.0000
  P   P32       1.0  0.86756  0.46541  0.15425  1.0000
  C   C902      1.0  0.90624  0.47093  0.18184  1.0000
  C   C903      1.0  0.86973  0.42634  0.12687  1.0000
  C   C904      1.0  0.90056  0.40809  0.12419  1.0000
  C   C905      1.0  0.84025  0.41349  0.10862  1.0000
  H   H718      1.0  0.87350  0.34094  0.07045  1.0000
  H   H719      1.0  0.71890  0.48271  0.04709  1.0000
  H   H720      1.0  0.70612  0.27962  0.24964  1.0000
  C   C906      1.0  0.73749  0.36601  0.29143  1.0000
  C   C907      1.0  0.90658  0.46391  0.22083  1.0000
  C   C908      1.0  0.86988  0.37280  0.25405  1.0000
  C   C909      1.0  0.72002  0.08241  0.11239  1.0000
  H   H721      1.0  0.72314  0.08669  0.17314  1.0000
  C   C910      1.0  0.90158  0.29586  0.42414  1.0000
  C   C911      1.0  0.94378  0.30864  0.37533  1.0000
  C   C912      1.0  0.92672  0.27947  0.44555  1.0000
  H   H722      1.0  0.85950  0.39719  0.24608  1.0000
  C   C913      1.0  0.88781  0.01285  0.02961  1.0000
  H   H723      1.0  0.68448  0.37743  0.30121  1.0000
  H   H724      1.0  0.80135  0.02633  0.12020  1.0000
  H   H725      1.0  0.81784  0.08401  0.99158  1.0000
  C   C914      1.0  0.81946  0.49395  0.20335  1.0000
  H   H726      1.0  0.96565  0.35009  0.47230  1.0000
  S   S123      1.0  0.89832  0.49342  0.33869  1.0000
  C   C915      1.0  0.77052  0.05497  0.99844  1.0000
  H   H727      1.0  0.92031  0.26900  0.47312  1.0000
  H   H728      1.0  0.93677  0.48846  0.13417  1.0000
  C   C916      1.0  0.91392  0.36842  0.47671  1.0000
  C   C917      1.0  0.79245  0.49278  0.22949  1.0000
  H   H729      1.0  0.94988  0.49123  0.45506  1.0000
  H   H730      1.0  0.98564  0.11507  0.04724  1.0000
  H   H731      1.0  0.70766  0.00494  0.13769  1.0000
  C   C918      1.0  0.93645  0.48268  0.16418  1.0000
  C   C919      1.0  0.92739  0.48494  0.47173  1.0000
  C   C920      1.0  0.96646  0.48750  0.18525  1.0000
  H   H732      1.0  0.67094  0.32319  0.35250  1.0000
  C   C921      1.0  0.79878  0.45713  0.98814  1.0000
  H   H733      1.0  0.66605  0.05007  0.15554  1.0000
  C   C922      1.0  0.68231  0.99793  0.14772  1.0000
  C   C923      1.0  0.86549  0.48463  0.47778  1.0000
  H   H734      1.0  0.68403  0.99779  0.30125  1.0000
  C   C924      1.0  0.66538  0.03848  0.26533  1.0000
  H   H735      1.0  0.75926  0.45334  0.90603  1.0000
  H   H736      1.0  0.92105  0.29254  0.84552  1.0000
  S   S124      1.0  0.91459  0.43646  0.77683  1.0000
  C   C925      1.0  0.94597  0.28330  0.83672  1.0000
  C   C926      1.0  0.73256  0.46060  0.90418  1.0000
  C   C927      1.0  0.95569  0.43972  0.90218  1.0000
  C   C928      1.0  0.72175  0.48182  0.87474  1.0000
  C   C929      1.0  0.97125  0.44725  0.57450  1.0000
  S   S125      1.0  0.75036  0.49593  0.83852  1.0000
  H   H737      1.0  0.67585  0.12016  0.68034  1.0000
  C   C930      1.0  0.95514  0.10062  0.73732  1.0000
  C   C931      1.0  0.85754  0.44980  0.65113  1.0000
  Fe  Fe63      1.0  0.96309  0.27399  0.67691  1.0000
  C   C932      1.0  0.93894  0.03008  0.63311  1.0000
  S   S126      1.0  0.91958  0.28307  0.71838  1.0000
  H   H738      1.0  0.85253  0.06288  0.55686  1.0000
  C   C933      1.0  0.73615  0.44605  0.59299  1.0000
  C   C934      1.0  0.66643  0.10037  0.62429  1.0000
  C   C935      1.0  0.68286  0.46481  0.76009  1.0000
  H   H739      1.0  0.73901  0.10551  0.91033  1.0000
  C   C936      1.0  0.98690  0.00765  0.68631  1.0000
  C   C937      1.0  0.83940  0.37605  0.64371  1.0000
  S   S127      1.0  0.95783  0.24082  0.62484  1.0000
  S   S128      1.0  0.84145  0.45073  0.86238  1.0000
  P   P33       1.0  0.82304  0.41863  0.65138  1.0000
  C   C938      1.0  0.81710  0.35016  0.63068  1.0000
  Fe  Fe64      1.0  0.87718  0.46503  0.81440  1.0000
  S   S129      1.0  0.84675  0.39040  0.48252  1.0000
  C   C939      1.0  0.67809  0.06526  0.67907  1.0000
  H   H740      1.0  0.87132  0.01229  0.93425  1.0000
  C   C940      1.0  0.84243  0.00929  0.56671  1.0000
  C   C941      1.0  0.94161  0.33176  0.52354  1.0000
  C   C942      1.0  0.79445  0.45304  0.71258  1.0000
  C   C943      1.0  0.88299  0.35111  0.53298  1.0000
  C   C944      1.0  0.91168  0.33248  0.54541  1.0000
  H   H741      1.0  0.76499  0.03112  0.51941  1.0000
  H   H742      1.0  0.85981  0.35122  0.54989  1.0000
  H   H743      1.0  0.91048  0.31812  0.57149  1.0000
  C   C945      1.0  0.77693  0.42418  0.54746  1.0000
  C   C946      1.0  0.77680  0.42642  0.77144  1.0000
  C   C947      1.0  0.71938  0.01769  0.55116  1.0000
  H   H744      1.0  0.96024  0.11106  0.54126  1.0000
  C   C948      1.0  0.95600  0.41464  0.57400  1.0000
  S   S130      1.0  0.98740  0.31760  0.64570  1.0000
  C   C949      1.0  0.91513  0.39305  0.76339  1.0000
  C   C950      1.0  0.94493  0.38076  0.74594  1.0000
  C   C951      1.0  0.94663  0.34689  0.73315  1.0000
  C   C952      1.0  0.91829  0.32503  0.73699  1.0000
  C   C953      1.0  0.88849  0.33711  0.75493  1.0000
  C   C954      1.0  0.88690  0.37109  0.76820  1.0000
  H   H745      1.0  0.96689  0.39757  0.74234  1.0000
  H   H746      1.0  0.97002  0.33765  0.72050  1.0000
  H   H747      1.0  0.86645  0.32033  0.75799  1.0000
  H   H748      1.0  0.86376  0.38045  0.78148  1.0000
  H   H749      1.0  0.94182  0.39076  0.87855  1.0000
  H   H750      1.0  0.92551  0.47479  0.70535  1.0000
  C   C955      1.0  0.93044  0.47242  0.50885  1.0000
  C   C956      1.0  0.97679  0.41840  0.84231  1.0000
  H   H751      1.0  0.71469  0.44108  0.71792  1.0000
  C   C957      1.0  0.94350  0.03308  0.77434  1.0000
  C   C958      1.0  0.80391  0.42110  0.69794  1.0000
  S   S131      1.0  0.88741  0.48288  0.95570  1.0000
  C   C959      1.0  0.96869  0.40749  0.64063  1.0000
  C   C960      1.0  0.67394  0.09748  0.66283  1.0000
  C   C961      1.0  0.95685  0.41394  0.87486  1.0000
  C   C962      1.0  0.88536  0.33458  0.64682  1.0000
  C   C963      1.0  0.74548  0.01177  0.52466  1.0000
  C   C964      1.0  0.92961  0.01861  0.83966  1.0000
  C   C965      1.0  0.95314  0.15460  0.70316  1.0000
  H   H752      1.0  0.68296  0.06303  0.70921  1.0000
  C   C966      1.0  0.93609  0.11550  0.76679  1.0000
  H   H753      1.0  0.79820  0.47609  0.69603  1.0000
  H   H754      1.0  0.72631  0.44166  0.53302  1.0000
  H   H755      1.0  0.78393  0.37204  0.77489  1.0000
  H   H756      1.0  0.78356  0.41753  0.51851  1.0000
  H   H757      1.0  0.79774  0.11571  0.93569  1.0000
  C   C967      1.0  0.85988  0.03692  0.55018  1.0000
  C   C968      1.0  0.72594  0.06803  0.95260  1.0000
  C   C969      1.0  0.88072  0.45092  0.68150  1.0000
  H   H758      1.0  0.91171  0.32839  0.65341  1.0000
  Fe  Fe65      1.0  0.98623  0.28360  0.59503  1.0000
  H   H759      1.0  0.82547  0.40806  0.56952  1.0000
  H   H760      1.0  0.97821  0.16028  0.58131  1.0000
  H   H761      1.0  0.87232  0.28311  0.63075  1.0000
  H   H762      1.0  0.97849  0.10997  0.68247  1.0000
  C   C970      1.0  0.88375  0.36857  0.49818  1.0000
  H   H763      1.0  0.97144  0.49036  0.91760  1.0000
  H   H764      1.0  0.76680  0.42869  0.80003  1.0000
  H   H765      1.0  0.94478  0.40455  0.54821  1.0000
  C   C971      1.0  0.87370  0.36793  0.65177  1.0000
  P   P34       1.0  0.96933  0.05667  0.74041  1.0000
  C   C972      1.0  0.67367  0.45689  0.92887  1.0000
  S   S132      1.0  0.67278  0.04342  0.83477  1.0000
  H   H766      1.0  0.82091  0.44987  0.97137  1.0000
  C   C973      1.0  0.79985  0.39182  0.72061  1.0000
  H   H767      1.0  0.89161  0.38685  0.66223  1.0000
  H   H768      1.0  0.71719  0.43128  0.95317  1.0000
  H   H769      1.0  0.90196  0.45499  0.55811  1.0000
  C   C974      1.0  0.70860  0.44804  0.93085  1.0000
  C   C975      1.0  0.97386  0.47032  0.89666  1.0000
  H   H770      1.0  0.81169  0.29696  0.61568  1.0000
  C   C976      1.0  0.95474  0.39491  0.60691  1.0000
  C   C977      1.0  0.78638  0.39456  0.75723  1.0000
  H   H771      1.0  0.97367  0.31796  0.87259  1.0000
  C   C978      1.0  0.94157  0.04647  0.66818  1.0000
  C   C979      1.0  0.86064  0.47413  0.62210  1.0000
  H   H772      1.0  0.91122  0.16102  0.78724  1.0000
  H   H773      1.0  0.98175  0.22757  0.77454  1.0000
  H   H774      1.0  0.93969  0.43652  0.92709  1.0000
  C   C980      1.0  0.97593  0.29763  0.85202  1.0000
  C   C981      1.0  0.94938  0.03697  0.81340  1.0000
  C   C982      1.0  0.94809  0.25789  0.80904  1.0000
  C   C983      1.0  0.86824  0.47083  0.51400  1.0000
  H   H775      1.0  0.87804  0.43326  0.70497  1.0000
  H   H776      1.0  0.79046  0.35563  0.62455  1.0000
  C   C984      1.0  0.90054  0.46473  0.52957  1.0000
  C   C985      1.0  0.99499  0.44890  0.83666  1.0000
  C   C986      1.0  0.96360  0.12056  0.70550  1.0000
  C   C987      1.0  0.86305  0.30899  0.63406  1.0000
  S   S133      1.0  0.97980  0.04078  0.53863  1.0000
  H   H777      1.0  0.92915  0.10103  0.79174  1.0000
  C   C988      1.0  0.74468  0.43774  0.55565  1.0000
  C   C989      1.0  0.75981  0.44066  0.62221  1.0000
  C   C990      1.0  0.82895  0.31681  0.62577  1.0000
  C   C991      1.0  0.89707  0.99784  0.51701  1.0000
  C   C992      1.0  0.94274  0.35031  0.48947  1.0000
  C   C993      1.0  0.79230  0.42702  0.61417  1.0000
  H   H778      1.0  0.70296  0.46579  0.78137  1.0000
  H   H779      1.0  0.92488  0.24767  0.79626  1.0000
  C   C994      1.0  0.78068  0.45559  0.74903  1.0000
  H   H780      1.0  0.92470  0.06764  0.67418  1.0000
  H   H781      1.0  0.84520  0.46467  0.52980  1.0000
  C   C995      1.0  0.88737  0.03119  0.52561  1.0000
  C   C996      1.0  0.92580  0.14964  0.76439  1.0000
  C   C997      1.0  0.93433  0.16920  0.73259  1.0000
  H   H782      1.0  0.92648  0.19571  0.73069  1.0000
  C   C998      1.0  0.80066  0.41884  0.57652  1.0000
  C   C999      1.0  0.98932  0.13538  0.58593  1.0000
  C   C1000     1.0  0.91688  0.01124  0.76211  1.0000
  H   H783      1.0  0.80776  0.36695  0.71061  1.0000
  H   H784      1.0  0.71923  0.04175  0.56620  1.0000
  C   C1001     1.0  0.90764  0.47470  0.68188  1.0000
  S   S134      1.0  0.97756  0.30699  0.53674  1.0000
  H   H785      1.0  0.95993  0.16978  0.67853  1.0000
  C   C1002     1.0  0.96006  0.00246  0.62473  1.0000
  H   H786      1.0  0.75248  0.44697  0.65086  1.0000
  H   H787      1.0  0.70034  0.06345  0.94143  1.0000
  H   H788      1.0  0.97724  0.39863  0.82081  1.0000
  P   P35       1.0  0.97170  0.47309  0.53206  1.0000
  H   H789      1.0  0.94302  0.36975  0.60612  1.0000
  H   H790      1.0  0.96929  0.05416  0.82363  1.0000
  H   H791      1.0  0.93436  0.02148  0.86980  1.0000
  H   H792      1.0  0.90158  0.05254  0.51354  1.0000
  C   C1003     1.0  0.99332  0.47535  0.86356  1.0000
  C   C1004     1.0  0.98017  0.24660  0.79676  1.0000
  H   H793      1.0  0.82180  0.01456  0.58625  1.0000
  H   H794      1.0  0.66919  0.43892  0.66951  1.0000
  H   H795      1.0  0.96760  0.39211  0.66612  1.0000
  C   C1005     1.0  0.67434  0.03583  0.65694  1.0000
  H   H796      1.0  0.99744  0.48469  0.60983  1.0000
  H   H797      1.0  0.84240  0.47478  0.59908  1.0000
  C   C1006     1.0  0.97920  0.10739  0.56323  1.0000
  C   C1007     1.0  0.66653  0.03845  0.61818  1.0000
  C   C1008     1.0  0.90359  0.99655  0.82721  1.0000
  C   C1009     1.0  0.96600  0.03575  0.69485  1.0000
  H   H798      1.0  0.99497  0.44946  0.66758  1.0000
  C   C1010     1.0  0.98550  0.45967  0.60847  1.0000
  C   C1011     1.0  0.68690  0.49101  0.87296  1.0000
  C   C1012     1.0  0.78083  0.09735  0.94934  1.0000
  Fe  Fe66      1.0  0.80904  0.49474  0.84229  1.0000
  C   C1013     1.0  0.74775  0.09173  0.93509  1.0000
  H   H799      1.0  0.77355  0.48034  0.76029  1.0000
  C   C1014     1.0  0.68949  0.45108  0.72430  1.0000
  H   H800      1.0  0.67646  0.01123  0.67064  1.0000
  C   C1015     1.0  0.98416  0.43980  0.64138  1.0000
  H   H801      1.0  0.71110  0.45656  0.59926  1.0000
  C   C1016     1.0  0.99376  0.07493  0.56827  1.0000
  Fe  Fe67      1.0  0.86945  0.49145  0.89559  1.0000
  H   H802      1.0  0.92110  0.03924  0.61192  1.0000
  H   H803      1.0  0.91122  0.00824  0.73230  1.0000
  C   C1017     1.0  0.79216  0.07921  0.98105  1.0000
  Fe  Fe68      1.0  0.96426  0.61686  0.09469  1.0000
  S   S135      1.0  0.94013  0.65787  0.12995  1.0000
  S   S136      1.0  0.94749  0.61612  0.03355  1.0000
  C   C1018     1.0  0.89024  0.71910  0.02798  1.0000
  H   H804      1.0  0.96939  0.83079  0.27744  1.0000
  Fe  Fe69      1.0  0.93883  0.61837  0.17640  1.0000
  S   S137      1.0  0.88983  0.60648  0.20904  1.0000
  H   H805      1.0  0.81483  0.88577  0.33210  1.0000
  H   H806      1.0  0.87321  0.86492  0.31810  1.0000
  S   S138      1.0  0.95869  0.57667  0.13926  1.0000
  C   C1019     1.0  0.68645  0.90060  0.21153  1.0000
  C   C1020     1.0  0.92822  0.84425  0.16374  1.0000
  S   S139      1.0  0.97816  0.95438  0.03679  1.0000
  Fe  Fe70      1.0  0.69265  0.86468  0.34613  1.0000
  C   C1021     1.0  0.69542  0.63319  0.42583  1.0000
  S   S140      1.0  0.69303  0.81886  0.30696  1.0000
  Fe  Fe71      1.0  0.73986  0.91800  0.38397  1.0000
  S   S141      1.0  0.69477  0.94054  0.41527  1.0000
  S   S142      1.0  0.79243  0.94393  0.39424  1.0000
  H   H807      1.0  0.89781  0.66671  0.01025  1.0000
  H   H808      1.0  0.78423  0.51597  0.24348  1.0000
  C   C1022     1.0  0.91008  0.81950  0.23568  1.0000
  H   H809      1.0  0.93433  0.79469  0.08187  1.0000
  S   S143      1.0  0.72539  0.86407  0.39895  1.0000
  S   S144      1.0  0.71094  0.91692  0.32819  1.0000
  H   H810      1.0  0.84902  0.67890  0.11820  1.0000
  C   C1023     1.0  0.83426  0.93066  0.40877  1.0000
  C   C1024     1.0  0.85874  0.95570  0.41907  1.0000
  C   C1025     1.0  0.89246  0.94670  0.42973  1.0000
  C   C1026     1.0  0.90241  0.91243  0.42996  1.0000
  C   C1027     1.0  0.87785  0.88735  0.41989  1.0000
  C   C1028     1.0  0.84403  0.89631  0.40961  1.0000
  C   C1029     1.0  0.97979  0.76428  0.98349  1.0000
  C   C1030     1.0  0.86408  0.50193  0.12304  1.0000
  C   C1031     1.0  0.91463  0.93764  0.23577  1.0000
  H   H811      1.0  0.82560  0.87662  0.40212  1.0000
  C   C1032     1.0  0.88726  0.68348  0.03164  1.0000
  C   C1033     1.0  0.89222  0.57400  0.24394  1.0000
  C   C1034     1.0  0.86197  0.55852  0.25774  1.0000
  C   C1035     1.0  0.86335  0.53296  0.28589  1.0000
  H   H812      1.0  0.69051  0.72879  0.41865  1.0000
  C   C1036     1.0  0.92510  0.53954  0.28799  1.0000
  C   C1037     1.0  0.92383  0.56403  0.25886  1.0000
  H   H813      1.0  0.83738  0.56638  0.24668  1.0000
  H   H814      1.0  0.73850  0.60247  0.44252  1.0000
  S   S145      1.0  0.94559  0.89994  0.43979  1.0000
  H   H815      1.0  0.94733  0.57569  0.24853  1.0000
  H   H816      1.0  0.93510  0.85332  0.13574  1.0000
  H   H817      1.0  0.70160  0.58804  0.06167  1.0000
  H   H818      1.0  0.88947  0.75325  0.21886  1.0000
  H   H819      1.0  0.76958  0.61536  0.03871  1.0000
  H   H820      1.0  0.73044  0.89243  0.24730  1.0000
  H   H821      1.0  0.88013  0.58781  0.12249  1.0000
  C   C1038     1.0  0.89987  0.85774  0.18266  1.0000
  C   C1039     1.0  0.87215  0.66910  0.06389  1.0000
  P   P36       1.0  0.91295  0.73748  0.98813  1.0000
  H   H822      1.0  0.88489  0.86075  0.42015  1.0000
  C   C1040     1.0  0.92968  0.57876  0.01382  1.0000
  C   C1041     1.0  0.93497  0.54661  0.02998  1.0000
  H   H823      1.0  0.69221  0.62039  0.39882  1.0000
  H   H824      1.0  0.85336  0.74197  0.11182  1.0000
  H   H825      1.0  0.94925  0.54444  0.05612  1.0000
  H   H826      1.0  0.73982  0.83329  0.22483  1.0000
  H   H827      1.0  0.82936  0.77210  0.27183  1.0000
  C   C1042     1.0  0.85983  0.69014  0.09275  1.0000
  C   C1043     1.0  0.69738  0.83406  0.18578  1.0000
  H   H828      1.0  0.87800  0.92350  0.27906  1.0000
  C   C1044     1.0  0.96473  0.92347  0.29016  1.0000
  H   H829      1.0  0.95277  0.74168  0.11419  1.0000
  H   H830      1.0  0.89219  0.69032  0.21601  1.0000
  C   C1045     1.0  0.93866  0.80631  0.21646  1.0000
  C   C1046     1.0  0.76077  0.50124  0.01192  1.0000
  C   C1047     1.0  0.86246  0.72564  0.08923  1.0000
  S   S146      1.0  0.96934  0.85678  0.06098  1.0000
  H   H831      1.0  0.91108  0.96640  0.43654  1.0000
  H   H832      1.0  0.90179  0.65671  0.27411  1.0000
  H   H833      1.0  0.89464  0.80712  0.36444  1.0000
  H   H834      1.0  0.95391  0.78615  0.22890  1.0000
  H   H835      1.0  0.94968  0.53261  0.29987  1.0000
  C   C1048     1.0  0.76683  0.93805  0.99093  1.0000
  C   C1049     1.0  0.97134  0.76165  0.10808  1.0000
  H   H836      1.0  0.93218  0.80583  0.01628  1.0000
  C   C1050     1.0  0.74706  0.93406  0.05578  1.0000
  C   C1051     1.0  0.71391  0.88166  0.22565  1.0000
  C   C1052     1.0  0.94792  0.81901  0.18096  1.0000
  H   H837      1.0  0.89477  0.94321  0.21540  1.0000
  H   H838      1.0  0.96958  0.75129  0.35771  1.0000
  C   C1053     1.0  0.91980  0.81611  0.35560  1.0000
  C   C1054     1.0  0.89085  0.84555  0.21862  1.0000
  H   H839      1.0  0.90863  0.68608  0.33593  1.0000
  C   C1055     1.0  0.87466  0.96987  0.11864  1.0000
  P   P37       1.0  0.74928  0.54576  0.01643  1.0000
  H   H840      1.0  0.90413  0.99422  0.01587  1.0000
  H   H841      1.0  0.93596  0.82720  0.41280  1.0000
  H   H842      1.0  0.88484  0.87756  0.16931  1.0000
  H   H843      1.0  0.76391  0.84985  0.31686  1.0000
  C   C1056     1.0  0.75200  0.91907  0.02026  1.0000
  C   C1057     1.0  0.77175  0.98735  0.03257  1.0000
  C   C1058     1.0  0.67335  0.65966  0.43609  1.0000
  H   H844      1.0  0.84155  0.98911  0.01022  1.0000
  H   H845      1.0  0.98266  0.88682  0.18734  1.0000
  C   C1059     1.0  0.67730  0.67631  0.47111  1.0000
  C   C1060     1.0  0.93000  0.91924  0.29909  1.0000
  H   H846      1.0  0.86875  0.85631  0.23270  1.0000
  H   H847      1.0  0.88021  0.76761  0.05528  1.0000
  Fe  Fe72      1.0  0.99396  0.66950  0.14865  1.0000
  C   C1061     1.0  0.76696  0.56335  0.05966  1.0000
  C   C1062     1.0  0.77420  0.59851  0.06246  1.0000
  C   C1063     1.0  0.78711  0.61229  0.09619  1.0000
  C   C1064     1.0  0.79229  0.59123  0.12757  1.0000
  H   H848      1.0  0.85736  0.94108  0.07007  1.0000
  C   C1065     1.0  0.71933  0.84838  0.21284  1.0000
  C   C1066     1.0  0.95826  0.73922  0.99968  1.0000
  H   H849      1.0  0.98408  0.91851  0.31148  1.0000
  H   H850      1.0  0.95380  0.91051  0.11660  1.0000
  H   H851      1.0  0.73481  0.91950  0.07818  1.0000
  C   C1067     1.0  0.97226  0.71589  0.02557  1.0000
  C   C1068     1.0  0.87353  0.53459  0.13622  1.0000
  H   H852      1.0  0.68236  0.92618  0.22232  1.0000
  H   H853      1.0  0.79286  0.63937  0.09808  1.0000
  H   H854      1.0  0.80255  0.60181  0.15367  1.0000
  C   C1069     1.0  0.94953  0.94197  0.22656  1.0000
  H   H855      1.0  0.97038  0.80909  0.16673  1.0000
  C   C1070     1.0  0.66673  0.77848  0.25131  1.0000
  H   H856      1.0  0.76600  0.51542  0.09041  1.0000
  H   H857      1.0  0.90639  0.74888  0.33970  1.0000
  H   H858      1.0  0.69102  0.94403  0.14267  1.0000
  C   C1071     1.0  0.96101  0.79171  0.08941  1.0000
  P   P38       1.0  0.96269  0.95842  0.18078  1.0000
  H   H859      1.0  0.70086  0.80787  0.17671  1.0000
  H   H860      1.0  0.88257  0.53827  0.16499  1.0000
  C   C1072     1.0  0.92181  0.51717  0.01206  1.0000
  C   C1073     1.0  0.86173  0.55882  0.07461  1.0000
  C   C1074     1.0  0.87715  0.94407  0.09143  1.0000
  H   H861      1.0  0.68853  0.76244  0.25741  1.0000
  H   H862      1.0  0.83996  0.52115  0.29630  1.0000
  H   H863      1.0  0.77122  0.79329  0.28698  1.0000
  Fe  Fe73      1.0  0.98595  0.92748  0.47656  1.0000
  H   H864      1.0  0.68160  0.76870  0.36577  1.0000
  H   H865      1.0  0.87129  0.64160  0.06707  1.0000
  C   C1075     1.0  0.87231  0.56286  0.11210  1.0000
  H   H866      1.0  0.86168  0.58051  0.05562  1.0000
  C   C1076     1.0  0.81825  0.86087  0.31911  1.0000
  C   C1077     1.0  0.78952  0.84072  0.31047  1.0000
  C   C1078     1.0  0.79372  0.80874  0.29359  1.0000
  C   C1079     1.0  0.82671  0.79679  0.28532  1.0000
  C   C1080     1.0  0.85578  0.81665  0.29445  1.0000
  C   C1081     1.0  0.85128  0.84892  0.31119  1.0000
  P   P39       1.0  0.89835  0.80250  0.28155  1.0000
  C   C1082     1.0  0.92882  0.81689  0.31706  1.0000
  C   C1083     1.0  0.89884  0.75619  0.27943  1.0000
  C   C1084     1.0  0.90363  0.73673  0.31241  1.0000
  C   C1085     1.0  0.90475  0.70102  0.31048  1.0000
  C   C1086     1.0  0.90080  0.68441  0.27571  1.0000
  C   C1087     1.0  0.89534  0.70345  0.24288  1.0000
  C   C1088     1.0  0.89407  0.73915  0.24469  1.0000
  C   C1089     1.0  0.96151  0.82936  0.30669  1.0000
  H   H867      1.0  0.90812  0.90311  0.06957  1.0000
  C   C1090     1.0  0.97527  0.84013  0.37246  1.0000
  C   C1091     1.0  0.94309  0.82741  0.38311  1.0000
  C   C1092     1.0  0.77183  0.54246  0.09149  1.0000
  H   H868      1.0  0.74371  0.89298  0.01515  1.0000
  C   C1093     1.0  0.85346  0.49817  0.08521  1.0000
  C   C1094     1.0  0.98457  0.84088  0.33432  1.0000
  H   H869      1.0  0.78829  0.54012  0.14962  1.0000
  C   C1095     1.0  0.87768  0.74011  0.05702  1.0000
  C   C1096     1.0  0.77620  0.97215  0.99688  1.0000
  C   C1097     1.0  0.66639  0.74222  0.41672  1.0000
  C   C1098     1.0  0.70292  0.54889  0.01813  1.0000
  C   C1099     1.0  0.78440  0.55640  0.12527  1.0000
  H   H870      1.0  0.84511  0.52327  0.03183  1.0000
  C   C1100     1.0  0.90497  0.92627  0.27189  1.0000
  C   C1101     1.0  0.98463  0.81826  0.08156  1.0000
  H   H871      1.0  0.85167  0.98238  0.41842  1.0000
  C   C1102     1.0  0.92905  0.95228  0.14604  1.0000
  H   H872      1.0  0.99103  0.77510  0.41768  1.0000
  H   H873      1.0  0.99274  0.85002  0.39379  1.0000
  H   H874      1.0  0.92254  0.91103  0.32733  1.0000
  H   H875      1.0  0.90818  0.86284  0.00618  1.0000
  H   H876      1.0  0.95664  0.69597  0.03828  1.0000
  C   C1103     1.0  0.93156  0.92680  0.11822  1.0000
  C   C1104     1.0  0.68257  0.52779  0.99494  1.0000
  C   C1105     1.0  0.97450  0.93482  0.25411  1.0000
  C   C1106     1.0  0.75700  0.96805  0.06202  1.0000
  C   C1107     1.0  0.89498  0.52367  0.30147  1.0000
  H   H877      1.0  0.79006  0.89419  0.46079  1.0000
  H   H878      1.0  0.89842  0.99439  0.16648  1.0000
  C   C1108     1.0  0.90562  0.92262  0.09121  1.0000
  C   C1109     1.0  0.85225  0.52653  0.06123  1.0000
  S   S147      1.0  0.99064  0.63381  0.19932  1.0000
  H   H879      1.0  0.83191  0.51819  0.19767  1.0000
  C   C1110     1.0  0.67278  0.96352  0.15060  1.0000
  H   H880      1.0  0.99262  0.50075  0.01616  1.0000
  H   H881      1.0  0.81619  0.57772  0.99999  1.0000
  Fe  Fe74      1.0  0.67904  0.88627  0.42772  1.0000
  H   H882      1.0  0.85298  0.98699  0.11825  1.0000
  H   H883      1.0  0.89271  0.50077  0.42759  1.0000
  C   C1111     1.0  0.72149  0.62307  0.45047  1.0000
  S   S148      1.0  0.67439  0.97088  0.00131  1.0000
  C   C1112     1.0  0.89665  0.84092  0.99213  1.0000
  C   C1113     1.0  0.68675  0.57143  0.04339  1.0000
  C   C1114     1.0  0.91044  0.80844  0.99757  1.0000
  C   C1115     1.0  0.90050  0.97402  0.14583  1.0000
  H   H884      1.0  0.75249  0.97924  0.08952  1.0000
  C   C1116     1.0  0.66970  0.85278  0.17186  1.0000
  C   C1117     1.0  0.99432  0.74347  0.36844  1.0000
  H   H885      1.0  0.98951  0.49720  0.17163  1.0000
  Fe  Fe75      1.0  0.87161  0.54180  0.82899  1.0000
  H   H886      1.0  0.96735  0.95328  0.81437  1.0000
  S   S149      1.0  0.89715  0.59232  0.81353  1.0000
  H   H887      1.0  0.87664  0.97609  0.77907  1.0000
  H   H888      1.0  0.86325  0.89093  0.89564  1.0000
  Fe  Fe76      1.0  0.68577  0.96138  0.93906  1.0000
  H   H889      1.0  0.67295  0.73711  0.61857  1.0000
  S   S150      1.0  0.83537  0.53445  0.87818  1.0000
  H   H890      1.0  0.68757  0.77467  0.48525  1.0000
  H   H891      1.0  0.88458  0.55432  0.93559  1.0000
  H   H892      1.0  0.69513  0.89722  0.65942  1.0000
  S   S151      1.0  0.70843  0.94487  0.83261  1.0000
  H   H893      1.0  0.76681  0.97287  0.59112  1.0000
  H   H894      1.0  0.96671  0.84779  0.49876  1.0000
  C   C1118     1.0  0.86757  0.78430  0.95555  1.0000
  C   C1119     1.0  0.99286  0.58545  0.56379  1.0000
  H   H895      1.0  0.74408  0.59008  0.88521  1.0000
  C   C1120     1.0  0.80962  0.95450  0.62412  1.0000
  H   H896      1.0  0.91872  0.99359  0.49830  1.0000
  C   C1121     1.0  0.99275  0.94460  0.82212  1.0000
  H   H897      1.0  0.84521  0.66395  0.90135  1.0000
  C   C1122     1.0  0.89654  0.67216  0.88062  1.0000
  H   H898      1.0  0.85567  0.76282  0.94131  1.0000
  H   H899      1.0  0.72025  0.56110  0.94109  1.0000
  C   C1123     1.0  0.69870  0.78523  0.54337  1.0000
  H   H900      1.0  0.83159  0.82025  0.93201  1.0000
  C   C1124     1.0  0.89853  0.96467  0.92979  1.0000
  C   C1125     1.0  0.89589  0.93030  0.91935  1.0000
  C   C1126     1.0  0.86471  0.91725  0.90493  1.0000
  C   C1127     1.0  0.66650  0.73537  0.52216  1.0000
  H   H901      1.0  0.67507  0.94255  0.54109  1.0000
  C   C1128     1.0  0.91933  0.59554  0.76976  1.0000
  C   C1129     1.0  0.94858  0.61670  0.76691  1.0000
  C   C1130     1.0  0.96577  0.62089  0.73202  1.0000
  C   C1131     1.0  0.95322  0.60472  0.69940  1.0000
  C   C1132     1.0  0.92367  0.58401  0.70219  1.0000
  C   C1133     1.0  0.90719  0.57888  0.73729  1.0000
  H   H902      1.0  0.95810  0.62974  0.79183  1.0000
  H   H903      1.0  0.74561  0.63143  0.50460  1.0000
  H   H904      1.0  0.91343  0.57189  0.67710  1.0000
  H   H905      1.0  0.88445  0.56288  0.73901  1.0000
  Fe  Fe77      1.0  0.98147  0.95563  0.97331  1.0000
  C   C1134     1.0  0.69478  0.96202  0.53718  1.0000
  H   H906      1.0  0.89252  0.65708  0.85515  1.0000
  H   H907      1.0  0.74276  0.86112  0.48998  1.0000
  S   S152      1.0  0.70524  0.91083  0.91828  1.0000
  C   C1135     1.0  0.98884  0.77634  0.54749  1.0000
  H   H908      1.0  0.67658  0.84213  0.72585  1.0000
  C   C1136     1.0  0.75882  0.98132  0.65054  1.0000
  C   C1137     1.0  0.79266  0.60185  0.91151  1.0000
  C   C1138     1.0  0.86816  0.84511  0.96867  1.0000
  S   S153      1.0  0.93853  0.98337  0.94243  1.0000
  C   C1139     1.0  0.95273  0.53961  0.55050  1.0000
  H   H909      1.0  0.94984  0.91524  0.63033  1.0000
  C   C1140     1.0  0.85233  0.97559  0.55859  1.0000
  H   H910      1.0  0.80324  0.61383  0.88635  1.0000
  S   S154      1.0  0.97395  0.60914  0.65482  1.0000
  H   H911      1.0  0.81585  0.98863  0.91041  1.0000
  H   H912      1.0  0.85393  0.69831  0.95929  1.0000
  C   C1141     1.0  0.75445  0.87788  0.54669  1.0000
  C   C1142     1.0  0.77642  0.89750  0.56938  1.0000
  C   C1143     1.0  0.80353  0.91639  0.55303  1.0000
  C   C1144     1.0  0.98012  0.51713  0.54437  1.0000
  P   P40       1.0  0.83311  0.93960  0.58318  1.0000
  H   H913      1.0  0.92638  0.53117  0.54762  1.0000
  C   C1145     1.0  0.86746  0.91166  0.59746  1.0000
  C   C1146     1.0  0.86370  0.87598  0.59520  1.0000
  C   C1147     1.0  0.89083  0.85473  0.60562  1.0000
  C   C1148     1.0  0.92180  0.86891  0.61833  1.0000
  C   C1149     1.0  0.92562  0.90436  0.62090  1.0000
  C   C1150     1.0  0.89857  0.92568  0.61062  1.0000
  H   H914      1.0  0.88789  0.94445  0.52646  1.0000
  H   H915      1.0  0.91822  0.91410  0.92099  1.0000
  H   H916      1.0  0.76574  0.97681  0.48302  1.0000
  H   H917      1.0  0.95833  0.99036  0.59722  1.0000
  C   C1151     1.0  0.98253  0.52686  0.74601  1.0000
  H   H918      1.0  0.78682  0.98669  0.97350  1.0000
  H   H919      1.0  0.93199  0.51686  0.65288  1.0000
  C   C1152     1.0  0.96258  0.59884  0.89150  1.0000
  H   H920      1.0  0.96093  0.51855  0.72905  1.0000
  H   H921      1.0  0.99735  0.61184  0.57134  1.0000
  C   C1153     1.0  0.68464  0.76566  0.51405  1.0000
  H   H922      1.0  0.94896  0.68479  0.86688  1.0000
  H   H923      1.0  0.73304  0.86410  0.55925  1.0000
  H   H924      1.0  0.77229  0.89767  0.59970  1.0000
  H   H925      1.0  0.88827  0.98234  0.84760  1.0000
  H   H926      1.0  0.84006  0.86443  0.58518  1.0000
  H   H927      1.0  0.88793  0.82723  0.60359  1.0000
  H   H928      1.0  0.94301  0.85250  0.62593  1.0000
  C   C1154     1.0  0.89634  0.77983  0.97903  1.0000
  H   H929      1.0  0.90204  0.95311  0.61258  1.0000
  H   H930      1.0  0.69441  0.51017  0.97534  1.0000
  C   C1155     1.0  0.77189  0.97713  0.68705  1.0000
  H   H931      1.0  0.67619  0.87785  0.78429  1.0000
  S   S155      1.0  0.96972  0.94153  0.53523  1.0000
  C   C1156     1.0  0.82270  0.95049  0.66090  1.0000
  C   C1157     1.0  0.91114  0.49831  0.65247  1.0000
  C   C1158     1.0  0.74588  0.57184  0.94272  1.0000
  C   C1159     1.0  0.75930  0.58843  0.91084  1.0000
  C   C1160     1.0  0.86990  0.67592  0.90675  1.0000
  H   H932      1.0  0.81376  0.95824  0.72062  1.0000
  C   C1161     1.0  0.67664  0.74479  0.58931  1.0000
  H   H933      1.0  0.80516  0.51020  0.97569  1.0000
  H   H934      1.0  0.77045  0.92659  0.96326  1.0000
  Fe  Fe78      1.0  0.74317  0.94170  0.88402  1.0000
  C   C1162     1.0  0.75983  0.87625  0.50765  1.0000
  C   C1163     1.0  0.67839  0.94087  0.62716  1.0000
  H   H935      1.0  0.95275  0.81672  0.55797  1.0000
  H   H936      1.0  0.70180  0.94176  0.61074  1.0000
  C   C1164     1.0  0.83553  0.93800  0.90194  1.0000
  C   C1165     1.0  0.77744  0.96983  0.61923  1.0000
  H   H937      1.0  0.96524  0.56905  0.84078  1.0000
  H   H938      1.0  0.67841  0.50784  0.85066  1.0000
  C   C1166     1.0  0.90374  0.51983  0.97784  1.0000
  C   C1167     1.0  0.80379  0.96169  0.69222  1.0000
  C   C1168     1.0  0.85368  0.81685  0.95030  1.0000
  H   H939      1.0  0.98850  0.63686  0.73032  1.0000
  H   H940      1.0  0.93804  0.59085  0.56551  1.0000
  H   H941      1.0  0.84726  0.93850  0.66565  1.0000
  C   C1169     1.0  0.87500  0.69538  0.93953  1.0000
  C   C1170     1.0  0.90690  0.71127  0.94642  1.0000
  H   H942      1.0  0.94377  0.61599  0.87970  1.0000
  H   H943      1.0  0.96988  0.78225  0.96301  1.0000
  H   H944      1.0  0.71189  0.80894  0.53679  1.0000
  S   S156      1.0  0.84270  0.50583  0.79108  1.0000
  Fe  Fe79      1.0  0.68782  0.99246  0.86030  1.0000
  C   C1171     1.0  0.87957  0.97012  0.53320  1.0000
  H   H945      1.0  0.70448  0.79064  0.60386  1.0000
  C   C1172     1.0  0.69376  0.99281  0.55758  1.0000
  C   C1173     1.0  0.98485  0.51686  0.78387  1.0000
  C   C1174     1.0  0.93359  0.70731  0.92001  1.0000
  H   H946      1.0  0.70688  0.67798  0.52310  1.0000
  S   S157      1.0  0.79758  0.92037  0.88185  1.0000
  C   C1175     1.0  0.92836  0.68781  0.88726  1.0000
  C   C1176     1.0  0.78665  0.89491  0.49118  1.0000
  C   C1177     1.0  0.89829  0.55201  0.96200  1.0000
  C   C1178     1.0  0.83790  0.97220  0.91328  1.0000
  C   C1179     1.0  0.80863  0.91478  0.51369  1.0000
  H   H947      1.0  0.82937  0.92873  0.50014  1.0000
  C   C1180     1.0  0.95915  0.57360  0.56025  1.0000
  C   C1181     1.0  0.67494  0.91570  0.65507  1.0000
  C   C1182     1.0  0.72068  0.95640  0.51059  1.0000
  Fe  Fe80      1.0  0.66964  0.91708  0.86874  1.0000
  C   C1183     1.0  0.97409  0.60307  0.92868  1.0000
  C   C1184     1.0  0.76583  0.56851  0.97562  1.0000
  C   C1185     1.0  0.91076  0.58138  0.98024  1.0000
  H   H948      1.0  0.72056  0.93297  0.49428  1.0000
  C   C1186     1.0  0.97471  0.57188  0.86946  1.0000
  H   H949      1.0  0.96454  0.62391  0.94586  1.0000
  C   C1187     1.0  0.69447  0.77499  0.58101  1.0000
  C   C1188     1.0  0.97974  0.82413  0.50539  1.0000
  H   H950      1.0  0.98307  0.76300  0.57364  1.0000
  H   H951      1.0  0.95837  0.71935  0.92445  1.0000
  C   C1189     1.0  0.99851  0.54889  0.88450  1.0000
  H   H952      1.0  0.85726  0.87026  0.96477  1.0000
  C   C1190     1.0  0.81291  0.59819  0.94390  1.0000
  C   C1191     1.0  0.79968  0.58136  0.97571  1.0000
  C   C1192     1.0  0.97175  0.80656  0.53869  1.0000
  S   S158      1.0  0.90749  0.50202  0.84983  1.0000
  H   H953      1.0  0.98842  0.96187  0.87998  1.0000
  C   C1193     1.0  0.98385  0.99106  0.65135  1.0000
  H   H954      1.0  0.88941  0.51729  0.60069  1.0000
  C   C1194     1.0  0.88733  0.49833  0.62288  1.0000
  C   C1195     1.0  0.74603  0.98119  0.50424  1.0000
  C   C1196     1.0  0.70347  0.66589  0.49578  1.0000
  H   H955      1.0  0.73417  0.99336  0.64652  1.0000
  H   H956      1.0  0.75725  0.98573  0.71138  1.0000
  C   C1197     1.0  0.86938  0.98554  0.92674  1.0000
  H   H957      1.0  0.90635  0.60620  0.96775  1.0000
  H   H958      1.0  0.98117  0.80375  0.77122  1.0000
  H   H959      1.0  0.96485  0.50053  0.79540  1.0000
  S   S159      1.0  0.72610  0.99179  0.90820  1.0000
  S   S160      1.0  0.66929  0.87155  0.48925  1.0000
  C   C1198     1.0  0.99677  0.57950  0.94435  1.0000
  H   H960      1.0  0.83925  0.60737  0.94388  1.0000
  C   C1199     1.0  0.72549  0.63940  0.48542  1.0000
  C   C1200     1.0  0.89714  0.99297  0.78850  1.0000
