data_image0
_chemical_formula_structural       FeS2FeS2FeS2FeSFeS3C3H2C3HC6H5CHC7PC2HC10H6CH4CH3C2PC8SH3CH3CH4C2HC3HC2H2C3FeHCHC2H3C3H4CHC2HSH4CHC2HCHC2H2SHCPC4FeC2H5CSHSH2C2HC3H3C3HC2HC3SCHCH3CHFeS3FeHS2FeCSC3H3CH2C7H4C6H2CHC3HC3H8C4HCH5C3H2CHCHCPCFeC3HCHC3PC4HC3H2SHC8HFeCHCHC2HCH6SHPHCH2C3HC3H2CHSC4FeS2FeS2FeSFeS3FeSFeSFeSFeSC3H2C6H4C4HCH2C2HC2HC5H3CH2PHC6PC8H4CH6C2HCHC5HCHCHCH2C3H2C2HSC2HC2H2CH2CHC2H2CPHC2HC2HC4H6C5HCHC3HCHC4PH2SH3C2HC3H5C7H2CHCH3CHC3HCH2C6HCHCH6CH2CH3C2H4C2S3FeS2FeS2FeSFeS3C10H4CHCH2C2HCH2C6PC2SHC12HCH2CH9C4HC4HCH2CH2CHFeHCHCH2C2H2CHC2HC2H2C2HCHC2PHC2HCHCHCH3C2H2C2H2C4PHCHC2H3C3H6CHFeCH2SHCHC4H2C3HC2HC3HC2PC7H2SCH3C2HCSCH3SH3FeH2CHC4HCHCH2C4S2H2C2SFeSFe2SHSFeCSH2C2HCH4C6H4C3HC4FeCH2CHSHC2HCH2CH2CHC2PH2CHC2H2C2H3PC4H3C3H2C2HC3H4C5HCHC2HC2HCHCH2SC3HC3H2CHCSCHC4HCH6CHCPFeSHFeS2H2FeHS2C3H3C6H5C4H2C3HC3H2CHCH2CHCPFeHC2HCHCHCH4C2HC5H2CHCH3SCHCPC2HCHC3HC8HC2H2CH2C2SC3H2CHCH2CH2CHSHC2HC2H4CHCHFeC5HC2H2C2H2C4HCH3S2CFeSC2HFeS2FeS2FeSFeS3C2H2C3H2C6HCH5C7H4CH2C2HCHC3PC2HCH2C5SH3FeHCH3C2H2C3HCHCFeH2CH2CHCHCH3C6PC16H5CH4C3HCHCH5CH3CSCH2SPHC2H3CH2CHC2H2C3HSHC3H3CH3C4H2C3H3PHCH2C4HCHC3H3C2H3CH2CHCHC3HC3H2FeS2FeS2FeHFeS3FeS2FeC2FeHFeHS2HC2H2CH2C4H3PC6H4C3HC2H6C2H2C2S2HC3H2CHCPCHCH2C3H2C2HC2H2C2HC2HC2HC2HCSH2C6HCHC2SCH3C2HC2HC3HC4FeS2FeS2HFeSCS2H3SHC6H6CPC2HC2H2CHCH4CHCHCHCHC4PC9HC4HC3HCH8CH4C5FePCH3CH3C9H3C2HC2HC3H4C2H2CHFeCH3C4HCHCHC2H2CH2C4HC4SFeS2FeS2FeSFeS3FeS2HSC5HC6H3C2FeHC7H4CHC2H2C3HC2HC3H2C2H4SCH3C2H2SHCSHC2HCHC2HC4H4CH2PHC4H2C7H2CHC2H2CH2C3PC2HCHCHCHC4HCH2C3H2C4H3C4HC3HC2H3PH2CHC2HC2HC2HFeCHC2H4CHCPHCSHCSCHCH2C2HCHC2HCH2CHCH2CHCH3C2
_chemical_formula_sum              "Fe64 S128 C960 H768 P32"
_cell_length_a       31.7174
_cell_length_b       62.1785
_cell_length_c       42.2641
_cell_angle_alpha    90.1516
_cell_angle_beta     106.908
_cell_angle_gamma    90.0797

_space_group_name_H-M_alt    "P 1"
_space_group_IT_number       1

loop_
  _space_group_symop_operation_xyz
  'x, y, z'

loop_
  _atom_site_type_symbol
  _atom_site_label
  _atom_site_symmetry_multiplicity
  _atom_site_fract_x
  _atom_site_fract_y
  _atom_site_fract_z
  _atom_site_occupancy
  Fe  Fe1       1.0  0.42399  0.22046  0.12989  1.0000
  S   S1        1.0  0.37720  0.19181  0.11066  1.0000
  S   S2        1.0  0.39716  0.25339  0.11401  1.0000
  Fe  Fe2       1.0  0.08475  0.11113  0.06939  1.0000
  S   S3        1.0  0.05421  0.08803  0.09708  1.0000
  S   S4        1.0  0.05942  0.11856  0.01445  1.0000
  Fe  Fe3       1.0  0.16443  0.12122  0.12953  1.0000
  S   S5        1.0  0.13964  0.09798  0.16141  1.0000
  S   S6        1.0  0.22286  0.14385  0.15394  1.0000
  Fe  Fe4       1.0  0.12276  0.07474  0.11796  1.0000
  S   S7        1.0  0.14242  0.03888  0.11585  1.0000
  Fe  Fe5       1.0  0.07286  0.11294  0.13832  1.0000
  S   S8        1.0  0.02578  0.12157  0.16881  1.0000
  S   S9        1.0  0.15282  0.09706  0.08806  1.0000
  S   S10       1.0  0.09814  0.13687  0.10861  1.0000
  C   C1        1.0  0.15022  0.99469  0.11091  1.0000
  C   C2        1.0  0.12411  0.01160  0.11721  1.0000
  C   C3        1.0  0.08554  0.00622  0.12524  1.0000
  H   H1        1.0  0.18013  0.99852  0.10471  1.0000
  H   H2        1.0  0.06511  0.01887  0.13038  1.0000
  C   C4        1.0  0.01905  0.18598  0.18906  1.0000
  C   C5        1.0  0.02948  0.16640  0.17596  1.0000
  C   C6        1.0  0.01449  0.14682  0.18500  1.0000
  H   H3        1.0  0.04900  0.16646  0.15882  1.0000
  C   C7        1.0  0.33367  0.17925  0.12299  1.0000
  C   C8        1.0  0.30793  0.16334  0.10236  1.0000
  C   C9        1.0  0.27324  0.15275  0.11087  1.0000
  C   C10       1.0  0.26437  0.15759  0.14066  1.0000
  C   C11       1.0  0.29022  0.17349  0.16134  1.0000
  C   C12       1.0  0.32435  0.18437  0.15251  1.0000
  H   H4        1.0  0.31533  0.15896  0.07981  1.0000
  H   H5        1.0  0.25417  0.14041  0.09488  1.0000
  H   H6        1.0  0.28427  0.17715  0.18466  1.0000
  H   H7        1.0  0.34417  0.19631  0.16893  1.0000
  H   H8        1.0  0.11688  0.18298  0.21698  1.0000
  C   C13       1.0  0.15011  0.22652  0.10849  1.0000
  H   H9        1.0  0.10058  0.22145  0.22362  1.0000
  C   C14       1.0  0.46191  0.24076  0.00048  1.0000
  C   C15       1.0  0.18307  0.18907  0.21519  1.0000
  C   C16       1.0  0.14193  0.19510  0.21810  1.0000
  C   C17       1.0  0.13287  0.21680  0.22192  1.0000
  C   C18       1.0  0.16519  0.23246  0.22335  1.0000
  C   C19       1.0  0.20740  0.22640  0.22216  1.0000
  C   C20       1.0  0.21552  0.20465  0.21695  1.0000
  P   P1        1.0  0.24942  0.24635  0.22318  1.0000
  C   C21       1.0  0.24785  0.25046  0.18056  1.0000
  C   C22       1.0  0.24252  0.27110  0.24377  1.0000
  H   H10       1.0  0.28067  0.13851  0.01858  1.0000
  C   C23       1.0  0.22422  0.27087  0.27034  1.0000
  C   C24       1.0  0.27121  0.23651  0.16560  1.0000
  C   C25       1.0  0.27197  0.24000  0.13315  1.0000
  C   C26       1.0  0.22309  0.26721  0.16188  1.0000
  C   C27       1.0  0.30345  0.23663  0.24560  1.0000
  C   C28       1.0  0.30868  0.22059  0.26976  1.0000
  C   C29       1.0  0.35047  0.21208  0.28503  1.0000
  C   C30       1.0  0.38731  0.21981  0.27674  1.0000
  C   C31       1.0  0.38255  0.23646  0.25384  1.0000
  C   C32       1.0  0.34086  0.24496  0.23851  1.0000
  H   H11       1.0  0.18971  0.17229  0.21121  1.0000
  H   H12       1.0  0.15696  0.24921  0.22529  1.0000
  H   H13       1.0  0.24691  0.19968  0.21410  1.0000
  H   H14       1.0  0.21446  0.25588  0.27917  1.0000
  H   H15       1.0  0.28952  0.22310  0.17917  1.0000
  H   H16       1.0  0.14384  0.28041  0.41146  1.0000
  C   C33       1.0  0.24870  0.25722  0.11510  1.0000
  H   H17       1.0  0.28052  0.21437  0.27642  1.0000
  H   H18       1.0  0.35419  0.19927  0.30297  1.0000
  H   H19       1.0  0.41105  0.24266  0.24750  1.0000
  H   H20       1.0  0.33784  0.25773  0.22056  1.0000
  C   C34       1.0  0.17789  0.12859  0.02450  1.0000
  H   H21       1.0  0.03302  0.22175  0.38344  1.0000
  H   H22       1.0  0.07635  0.17814  0.04575  1.0000
  H   H23       1.0  0.04427  0.98055  0.13406  1.0000
  C   C35       1.0  0.19364  0.16695  0.02900  1.0000
  C   C36       1.0  0.16495  0.14964  0.02857  1.0000
  P   P2        1.0  0.17447  0.19416  0.03121  1.0000
  C   C37       1.0  0.16516  0.20011  0.07057  1.0000
  C   C38       1.0  0.21520  0.21353  0.02756  1.0000
  C   C39       1.0  0.27837  0.24451  0.02458  1.0000
  C   C40       1.0  0.28773  0.22949  0.05019  1.0000
  C   C41       1.0  0.25613  0.21424  0.05193  1.0000
  C   C42       1.0  0.14877  0.21020  0.13073  1.0000
  C   C43       1.0  0.15647  0.18894  0.12336  1.0000
  C   C44       1.0  0.16479  0.18385  0.09347  1.0000
  S   S11       1.0  0.41316  0.28060  0.20538  1.0000
  H   H24       1.0  0.30297  0.25641  0.02351  1.0000
  H   H25       1.0  0.31963  0.22956  0.06875  1.0000
  H   H26       1.0  0.26373  0.20288  0.07224  1.0000
  C   C45       1.0  0.02841  0.05522  0.99198  1.0000
  H   H27       1.0  0.14207  0.21403  0.15378  1.0000
  H   H28       1.0  0.15622  0.17633  0.14097  1.0000
  H   H29       1.0  0.17129  0.16726  0.08876  1.0000
  C   C46       1.0  0.21964  0.12456  0.02113  1.0000
  H   H30       1.0  0.29124  0.22946  0.12232  1.0000
  H   H31       1.0  0.07972  0.28547  0.33457  1.0000
  H   H32       1.0  0.19530  0.01546  0.18335  1.0000
  H   H33       1.0  0.24991  0.26011  0.09011  1.0000
  C   C47       1.0  0.23753  0.24406  0.00035  1.0000
  C   C48       1.0  0.34970  0.27733  0.32908  1.0000
  H   H34       1.0  0.01721  0.25447  0.41084  1.0000
  C   C49       1.0  0.11778  0.00291  0.22147  1.0000
  C   C50       1.0  0.14116  0.01500  0.20434  1.0000
  C   C51       1.0  0.17757  0.00607  0.19696  1.0000
  H   H35       1.0  0.13088  0.03123  0.19635  1.0000
  C   C52       1.0  0.99222  0.17508  0.08021  1.0000
  C   C53       1.0  0.09659  0.23278  0.38150  1.0000
  H   H36       1.0  0.10264  0.21862  0.36846  1.0000
  H   H37       1.0  0.20356  0.27772  0.17248  1.0000
  C   C54       1.0  0.22400  0.27073  0.12937  1.0000
  C   C55       1.0  0.15879  0.22157  0.07872  1.0000
  C   C56       1.0  0.19036  0.98495  0.20628  1.0000
  Fe  Fe6       1.0  0.43797  0.26490  0.16441  1.0000
  H   H38       1.0  0.14467  0.24304  0.11447  1.0000
  C   C57       1.0  0.38985  0.26785  0.32968  1.0000
  H   H39       1.0  0.16027  0.23449  0.06196  1.0000
  C   C58       1.0  0.01128  0.97971  0.02445  1.0000
  C   C59       1.0  0.12753  0.24942  0.38935  1.0000
  H   H40       1.0  0.22976  0.10816  0.01859  1.0000
  H   H41       1.0  0.33357  0.17183  0.99526  1.0000
  H   H42       1.0  0.15766  0.24822  0.38232  1.0000
  C   C60       1.0  0.11940  0.26774  0.40594  1.0000
  C   C61       1.0  0.07985  0.26966  0.41447  1.0000
  C   C62       1.0  0.23516  0.16281  0.02462  1.0000
  H   H43       1.0  0.37853  0.19337  0.04255  1.0000
  H   H44       1.0  0.39172  0.23204  0.03526  1.0000
  H   H45       1.0  0.98671  0.17708  0.10415  1.0000
  H   H46       1.0  0.08958  0.00989  0.22718  1.0000
  C   C63       1.0  0.01047  0.16786  0.02027  1.0000
  H   H47       1.0  0.39161  0.25066  0.32640  1.0000
  C   C64       1.0  0.36401  0.20092  0.01877  1.0000
  C   C65       1.0  0.25734  0.29073  0.23439  1.0000
  H   H48       1.0  0.27403  0.29132  0.21539  1.0000
  S   S12       1.0  0.99310  0.24218  0.31226  1.0000
  H   H49       1.0  0.15709  0.29891  0.35356  1.0000
  H   H50       1.0  0.21884  0.97849  0.20042  1.0000
  H   H51       1.0  0.05991  0.18511  0.09870  1.0000
  H   H52       1.0  0.98234  0.10499  0.03374  1.0000
  C   C66       1.0  0.42763  0.28055  0.33427  1.0000
  H   H53       1.0  0.09010  0.01097  0.98945  1.0000
  C   C67       1.0  0.04334  0.17575  0.04746  1.0000
  C   C68       1.0  0.04852  0.25310  0.40563  1.0000
  H   H54       1.0  0.32026  0.26756  0.32492  1.0000
  C   C69       1.0  0.13065  0.98181  0.23103  1.0000
  H   H55       1.0  0.45838  0.27290  0.33460  1.0000
  C   C70       1.0  0.99416  0.18632  0.21182  1.0000
  C   C71       1.0  0.98896  0.14720  0.20729  1.0000
  H   H56       1.0  0.15534  0.11537  0.02391  1.0000
  H   H57       1.0  0.20590  0.28407  0.11539  1.0000
  S   S13       1.0  0.45210  0.27251  0.04562  1.0000
  H   H58       1.0  0.20287  0.29009  0.30557  1.0000
  C   C72       1.0  0.08974  0.21034  0.00054  1.0000
  P   P3        1.0  0.06885  0.29324  0.43593  1.0000
  C   C73       1.0  0.33859  0.18883  0.99212  1.0000
  C   C74       1.0  0.01368  0.30269  0.41577  1.0000
  C   C75       1.0  0.00373  0.11408  0.99176  1.0000
  C   C76       1.0  0.37128  0.22274  0.01469  1.0000
  Fe  Fe7       1.0  0.45814  0.25780  0.09710  1.0000
  C   C77       1.0  0.99818  0.30343  0.38113  1.0000
  C   C78       1.0  0.21798  0.29013  0.28560  1.0000
  H   H59       1.0  0.05020  0.25412  0.46959  1.0000
  H   H60       1.0  0.03054  0.20099  0.18165  1.0000
  H   H61       1.0  0.01806  0.29729  0.36614  1.0000
  H   H62       1.0  0.01282  0.02658  0.06656  1.0000
  H   H63       1.0  0.41958  0.21300  0.28814  1.0000
  C   C79       1.0  0.07387  0.98437  0.12742  1.0000
  S   S14       1.0  0.98246  0.21166  0.22758  1.0000
  H   H64       1.0  0.46754  0.22943  0.02063  1.0000
  S   S15       1.0  0.46231  0.23142  0.18095  1.0000
  H   H65       1.0  0.25782  0.17568  0.02406  1.0000
  H   H66       1.0  0.15861  0.30225  0.47731  1.0000
  C   C80       1.0  0.24821  0.14166  0.02107  1.0000
  C   C81       1.0  0.02734  0.99887  0.04104  1.0000
  H   H67       1.0  0.02921  0.06975  0.00639  1.0000
  C   C82       1.0  0.03410  0.17955  0.07732  1.0000
  C   C83       1.0  0.99999  0.01179  0.05361  1.0000
  C   C84       1.0  0.45429  0.26245  0.00614  1.0000
  H   H68       1.0  0.09258  0.21952  0.02277  1.0000
  H   H69       1.0  0.13226  0.15236  0.03095  1.0000
  H   H70       1.0  0.37914  0.29165  0.25936  1.0000
  C   C85       1.0  0.20593  0.22864  0.00183  1.0000
  C   C86       1.0  0.05729  0.23456  0.38988  1.0000
  C   C87       1.0  0.37361  0.30536  0.24299  1.0000
  H   H71       1.0  0.06148  0.00346  0.04503  1.0000
  C   C88       1.0  0.08786  0.30107  0.32668  1.0000
  C   C89       1.0  0.38627  0.30433  0.21369  1.0000
  H   H72       1.0  0.09153  0.04423  0.02235  1.0000
  C   C90       1.0  0.97913  0.16674  0.22081  1.0000
  C   C91       1.0  0.12412  0.19698  0.99759  1.0000
  C   C92       1.0  0.07188  0.28734  0.47851  1.0000
  S   S16       1.0  0.99759  0.30572  0.29354  1.0000
  C   C93       1.0  0.34758  0.29946  0.33401  1.0000
  H   H73       1.0  0.46517  0.29888  0.40363  1.0000
  C   C94       1.0  0.42537  0.30293  0.33810  1.0000
  H   H74       1.0  0.45890  0.29643  0.28012  1.0000
  H   H75       1.0  0.01818  0.16409  0.99751  1.0000
  H   H76       1.0  0.31653  0.30685  0.33379  1.0000
  C   C95       1.0  0.06368  0.04088  0.00088  1.0000
  H   H77       1.0  0.46557  0.12378  0.75351  1.0000
  Fe  Fe8       1.0  0.37327  0.23784  0.77758  1.0000
  S   S17       1.0  0.39220  0.26715  0.81021  1.0000
  S   S18       1.0  0.30179  0.22554  0.75132  1.0000
  S   S19       1.0  0.98781  0.27199  0.62216  1.0000
  Fe  Fe9       1.0  0.44271  0.24622  0.84612  1.0000
  H   H78       1.0  0.32869  0.10706  0.85192  1.0000
  S   S20       1.0  0.42422  0.24392  0.75086  1.0000
  S   S21       1.0  0.42201  0.21656  0.81403  1.0000
  Fe  Fe10      1.0  0.02541  0.24729  0.65897  1.0000
  C   C96       1.0  0.06282  0.02216  0.98230  1.0000
  S   S22       1.0  0.09879  0.25659  0.68656  1.0000
  C   C97       1.0  0.29994  0.30438  0.68497  1.0000
  C   C98       1.0  0.35433  0.10393  0.84026  1.0000
  C   C99       1.0  0.99040  0.11739  0.95739  1.0000
  H   H79       1.0  0.99319  0.09128  0.85917  1.0000
  H   H80       1.0  0.29473  0.27273  0.95297  1.0000
  H   H81       1.0  0.30120  0.18893  0.94084  1.0000
  C   C100      1.0  0.37374  0.15782  0.77390  1.0000
  H   H82       1.0  0.31610  0.17486  0.74494  1.0000
  H   H83       1.0  0.35488  0.14855  0.78654  1.0000
  C   C101      1.0  0.04494  0.19950  0.94596  1.0000
  C   C102      1.0  0.24564  0.23474  0.73339  1.0000
  C   C103      1.0  0.23332  0.25647  0.73248  1.0000
  C   C104      1.0  0.18867  0.26271  0.71819  1.0000
  C   C105      1.0  0.15511  0.24750  0.70436  1.0000
  C   C106      1.0  0.16750  0.22579  0.70524  1.0000
  C   C107      1.0  0.21210  0.21954  0.71959  1.0000
  H   H84       1.0  0.25818  0.26851  0.74281  1.0000
  H   H85       1.0  0.18005  0.27954  0.71786  1.0000
  H   H86       1.0  0.14264  0.21375  0.69487  1.0000
  H   H87       1.0  0.22064  0.20270  0.71992  1.0000
  C   C108      1.0  0.32014  0.19862  0.96143  1.0000
  C   C109      1.0  0.44261  0.16823  0.76445  1.0000
  C   C110      1.0  0.35137  0.17265  0.75007  1.0000
  C   C111      1.0  0.37769  0.27564  0.56201  1.0000
  C   C112      1.0  0.99124  0.03221  0.94548  1.0000
  C   C113      1.0  0.31261  0.27637  0.93538  1.0000
  H   H88       1.0  0.00278  0.00340  0.87996  1.0000
  H   H89       1.0  0.31463  0.30319  0.60851  1.0000
  C   C114      1.0  0.37457  0.18530  0.73356  1.0000
  H   H90       1.0  0.11394  0.23787  0.88366  1.0000
  C   C115      1.0  0.99238  0.05097  0.96442  1.0000
  C   C116      1.0  0.41495  0.11677  0.82085  1.0000
  C   C117      1.0  0.42079  0.23557  0.64042  1.0000
  H   H91       1.0  0.15383  0.21039  0.92356  1.0000
  C   C118      1.0  0.05034  0.21154  0.97483  1.0000
  C   C119      1.0  0.05966  0.26702  0.48744  1.0000
  C   C120      1.0  0.32611  0.25863  0.58672  1.0000
  H   H92       1.0  0.29299  0.25233  0.50305  1.0000
  H   H93       1.0  0.07467  0.17679  0.92041  1.0000
  H   H94       1.0  0.40745  0.28477  0.56396  1.0000
  H   H95       1.0  0.44261  0.29372  0.98340  1.0000
  H   H96       1.0  0.37575  0.29035  0.87208  1.0000
  H   H97       1.0  0.36156  0.27326  0.50894  1.0000
  H   H98       1.0  0.02653  0.00296  0.94137  1.0000
  H   H99       1.0  0.33844  0.07025  0.83238  1.0000
  C   C121      1.0  0.45464  0.24802  0.94173  1.0000
  C   C122      1.0  0.44865  0.26980  0.94773  1.0000
  C   C123      1.0  0.36818  0.28641  0.68654  1.0000
  C   C124      1.0  0.02664  0.01772  0.95486  1.0000
  H   H100      1.0  0.35727  0.19727  0.71590  1.0000
  C   C125      1.0  0.32668  0.29748  0.93299  1.0000
  H   H101      1.0  0.23036  0.25568  0.98044  1.0000
  H   H102      1.0  0.06598  0.27671  0.56799  1.0000
  H   H103      1.0  0.39753  0.27845  0.70106  1.0000
  H   H104      1.0  0.34528  0.29145  0.72916  1.0000
  H   H105      1.0  0.01441  0.12236  0.94518  1.0000
  C   C126      1.0  0.41973  0.15559  0.78155  1.0000
  C   C127      1.0  0.43491  0.30012  0.62644  1.0000
  C   C128      1.0  0.46204  0.26023  0.68264  1.0000
  H   H106      1.0  0.46881  0.27634  0.69277  1.0000
  H   H107      1.0  0.31581  0.25442  0.60825  1.0000
  C   C129      1.0  0.36495  0.27050  0.59026  1.0000
  H   H108      1.0  0.02367  0.22158  0.97750  1.0000
  C   C130      1.0  0.35978  0.08320  0.82924  1.0000
  H   H109      1.0  0.14439  0.17467  0.96524  1.0000
  C   C131      1.0  0.06823  0.27970  0.54324  1.0000
  P   P4        1.0  0.39756  0.27916  0.63087  1.0000
  C   C132      1.0  0.17214  0.22172  0.91326  1.0000
  Fe  Fe11      1.0  0.44529  0.27244  0.78434  1.0000
  C   C133      1.0  0.32159  0.30038  0.63480  1.0000
  C   C134      1.0  0.35986  0.28932  0.65235  1.0000
  C   C135      1.0  0.31307  0.25735  0.52735  1.0000
  H   H110      1.0  0.36014  0.24938  0.98155  1.0000
  C   C136      1.0  0.07908  0.18635  0.94265  1.0000
  H   H111      1.0  0.46665  0.21676  0.96454  1.0000
  C   C137      1.0  0.42017  0.09587  0.80983  1.0000
  C   C138      1.0  0.32192  0.26006  0.91537  1.0000
  C   C139      1.0  0.34462  0.26530  0.89238  1.0000
  P   P5        1.0  0.30138  0.23314  0.91754  1.0000
  C   C140      1.0  0.32626  0.22072  0.95732  1.0000
  C   C141      1.0  0.24208  0.23503  0.90828  1.0000
  C   C142      1.0  0.21817  0.22065  0.92210  1.0000
  C   C143      1.0  0.14963  0.23720  0.89078  1.0000
  H   H112      1.0  0.39566  0.23220  0.61750  1.0000
  C   C144      1.0  0.17313  0.25165  0.87707  1.0000
  C   C145      1.0  0.21911  0.25058  0.88572  1.0000
  C   C146      1.0  0.08227  0.30381  0.50246  1.0000
  H   H113      1.0  0.27035  0.24295  0.55283  1.0000
  H   H114      1.0  0.23465  0.20850  0.93949  1.0000
  S   S23       1.0  0.99790  0.21943  0.62408  1.0000
  H   H115      1.0  0.39688  0.06310  0.80547  1.0000
  C   C147      1.0  0.31415  0.21668  0.88631  1.0000
  C   C148      1.0  0.35588  0.20713  0.89286  1.0000
  C   C149      1.0  0.36715  0.19544  0.86822  1.0000
  C   C150      1.0  0.33703  0.19340  0.83682  1.0000
  C   C151      1.0  0.29557  0.20296  0.83001  1.0000
  C   C152      1.0  0.28405  0.21454  0.85463  1.0000
  C   C153      1.0  0.38178  0.12065  0.83613  1.0000
  C   C154      1.0  0.30031  0.25209  0.55537  1.0000
  H   H116      1.0  0.35257  0.25316  0.87662  1.0000
  Fe  Fe12      1.0  0.47488  0.22556  0.79033  1.0000
  C   C155      1.0  0.42010  0.18295  0.74054  1.0000
  H   H117      1.0  0.99083  0.06846  0.90598  1.0000
  C   C156      1.0  0.39269  0.07918  0.81406  1.0000
  H   H118      1.0  0.23660  0.26161  0.87415  1.0000
  C   C157      1.0  0.33833  0.29384  0.70271  1.0000
  C   C158      1.0  0.35173  0.26911  0.53068  1.0000
  H   H119      1.0  0.15568  0.26348  0.85924  1.0000
  C   C159      1.0  0.42876  0.25666  0.65288  1.0000
  H   H120      1.0  0.01416  0.20019  0.92625  1.0000
  H   H121      1.0  0.38042  0.20942  0.91657  1.0000
  H   H122      1.0  0.39999  0.18884  0.87309  1.0000
  H   H123      1.0  0.34635  0.18518  0.81732  1.0000
  H   H124      1.0  0.27292  0.20204  0.80523  1.0000
  H   H125      1.0  0.25218  0.22224  0.84838  1.0000
  S   S24       1.0  0.45388  0.23783  0.90165  1.0000
  H   H126      1.0  0.43824  0.19304  0.72819  1.0000
  P   P6        1.0  0.44998  0.13854  0.81524  1.0000
  H   H127      1.0  0.37700  0.13665  0.84471  1.0000
  C   C160      1.0  0.46158  0.23362  0.96852  1.0000
  H   H128      1.0  0.44532  0.09234  0.79793  1.0000
  H   H129      1.0  0.04748  0.24769  0.52617  1.0000
  C   C161      1.0  0.11856  0.18515  0.96825  1.0000
  C   C162      1.0  0.05799  0.26326  0.51966  1.0000
  C   C163      1.0  0.35781  0.28650  0.88960  1.0000
  H   H130      1.0  0.17433  0.22874  0.98312  1.0000
  C   C164      1.0  0.44798  0.27687  0.97948  1.0000
  C   C165      1.0  0.44548  0.21841  0.65766  1.0000
  C   C166      1.0  0.08060  0.29995  0.53470  1.0000
  H   H131      1.0  0.45721  0.13044  0.88573  1.0000
  H   H132      1.0  0.44458  0.28125  0.92791  1.0000
  C   C167      1.0  0.34922  0.30254  0.91007  1.0000
  H   H133      1.0  0.43904  0.20217  0.64809  1.0000
  S   S25       1.0  0.45177  0.30392  0.75759  1.0000
  C   C168      1.0  0.46831  0.15479  0.85231  1.0000
  C   C169      1.0  0.46770  0.14675  0.88324  1.0000
  C   C170      1.0  0.29167  0.30776  0.65103  1.0000
  C   C171      1.0  0.35280  0.23261  0.98407  1.0000
  Fe  Fe13      1.0  0.29894  0.37541  0.28573  1.0000
  S   S26       1.0  0.30991  0.35723  0.33329  1.0000
  S   S27       1.0  0.32064  0.36583  0.24008  1.0000
  Fe  Fe14      1.0  0.25419  0.41363  0.31160  1.0000
  S   S28       1.0  0.26050  0.39695  0.36016  1.0000
  S   S29       1.0  0.22331  0.44735  0.29841  1.0000
  Fe  Fe15      1.0  0.32950  0.38896  0.35941  1.0000
  S   S30       1.0  0.39027  0.40025  0.40017  1.0000
  Fe  Fe16      1.0  0.23950  0.36636  0.33018  1.0000
  S   S31       1.0  0.19921  0.33834  0.34317  1.0000
  S   S32       1.0  0.32349  0.40665  0.31187  1.0000
  S   S33       1.0  0.22801  0.38352  0.28139  1.0000
  Fe  Fe17      1.0  0.34575  0.61872  0.35867  1.0000
  S   S34       1.0  0.34715  0.59599  0.31759  1.0000
  Fe  Fe18      1.0  0.24483  0.62589  0.33047  1.0000
  S   S35       1.0  0.24021  0.60258  0.28829  1.0000
  Fe  Fe19      1.0  0.28656  0.58081  0.32615  1.0000
  S   S36       1.0  0.29521  0.54405  0.33637  1.0000
  Fe  Fe20      1.0  0.30169  0.61925  0.28368  1.0000
  S   S37       1.0  0.28725  0.60319  0.36891  1.0000
  C   C172      1.0  0.14337  0.32906  0.32748  1.0000
  C   C173      1.0  0.06596  0.33412  0.29667  1.0000
  C   C174      1.0  0.11002  0.34163  0.30686  1.0000
  H   H134      1.0  0.04054  0.34419  0.28109  1.0000
  H   H135      1.0  0.11799  0.35733  0.29918  1.0000
  C   C175      1.0  0.24434  0.47408  0.30891  1.0000
  C   C176      1.0  0.21880  0.49186  0.29378  1.0000
  C   C177      1.0  0.23379  0.51327  0.30145  1.0000
  C   C178      1.0  0.27447  0.51733  0.32486  1.0000
  C   C179      1.0  0.30014  0.49952  0.33975  1.0000
  C   C180      1.0  0.28536  0.47814  0.33182  1.0000
  H   H136      1.0  0.18705  0.48903  0.27596  1.0000
  H   H137      1.0  0.21362  0.52658  0.28939  1.0000
  H   H138      1.0  0.33196  0.50221  0.35737  1.0000
  H   H139      1.0  0.30547  0.46475  0.34367  1.0000
  C   C181      1.0  0.43125  0.62240  0.43664  1.0000
  C   C182      1.0  0.40517  0.61130  0.45270  1.0000
  C   C183      1.0  0.42206  0.38683  0.43625  1.0000
  C   C184      1.0  0.41461  0.36535  0.44281  1.0000
  H   H140      1.0  0.38857  0.35639  0.42557  1.0000
  C   C185      1.0  0.34575  0.34187  0.23057  1.0000
  H   H141      1.0  0.35165  0.35442  0.18455  1.0000
  H   H142      1.0  0.46862  0.50337  0.37843  1.0000
  C   C186      1.0  0.35782  0.34076  0.20104  1.0000
  C   C187      1.0  0.17426  0.34236  0.42745  1.0000
  H   H143      1.0  0.36187  0.56726  0.43004  1.0000
  C   C188      1.0  0.47443  0.62826  0.45466  1.0000
  C   C189      1.0  0.18297  0.59405  0.39594  1.0000
  H   H144      1.0  0.14713  0.61441  0.35551  1.0000
  C   C190      1.0  0.20759  0.57503  0.40396  1.0000
  C   C191      1.0  0.21284  0.56142  0.37897  1.0000
  C   C192      1.0  0.19365  0.56673  0.34580  1.0000
  C   C193      1.0  0.16954  0.58573  0.33760  1.0000
  C   C194      1.0  0.16453  0.59944  0.36253  1.0000
  H   H145      1.0  0.37872  0.46645  0.19919  1.0000
  H   H146      1.0  0.46236  0.41480  0.45393  1.0000
  H   H147      1.0  0.06893  0.32811  0.38817  1.0000
  C   C195      1.0  0.46775  0.46786  0.26789  1.0000
  H   H148      1.0  0.19834  0.55631  0.32650  1.0000
  H   H149      1.0  0.15553  0.59011  0.31187  1.0000
  P   P7        1.0  0.47337  0.31975  0.34282  1.0000
  H   H150      1.0  0.39860  0.54387  0.34090  1.0000
  C   C196      1.0  0.29833  0.43020  0.23226  1.0000
  C   C197      1.0  0.25681  0.43966  0.22582  1.0000
  C   C198      1.0  0.25324  0.46171  0.23097  1.0000
  C   C199      1.0  0.29112  0.47432  0.24293  1.0000
  C   C200      1.0  0.33300  0.46497  0.24925  1.0000
  C   C201      1.0  0.33629  0.44275  0.24409  1.0000
  P   P8        1.0  0.38240  0.48081  0.26588  1.0000
  C   C202      1.0  0.37160  0.50883  0.25505  1.0000
  C   C203      1.0  0.38869  0.46066  0.32619  1.0000
  C   C204      1.0  0.40509  0.45834  0.36048  1.0000
  C   C205      1.0  0.35126  0.52178  0.27358  1.0000
  C   C206      1.0  0.34212  0.54338  0.26537  1.0000
  C   C207      1.0  0.35355  0.55235  0.23875  1.0000
  C   C208      1.0  0.37406  0.53965  0.22022  1.0000
  C   C209      1.0  0.38299  0.51795  0.22824  1.0000
  H   H151      1.0  0.30100  0.41299  0.22896  1.0000
  H   H152      1.0  0.22739  0.42980  0.21791  1.0000
  H   H153      1.0  0.22098  0.46880  0.22725  1.0000
  H   H154      1.0  0.28730  0.49115  0.24790  1.0000
  C   C210      1.0  0.09774  0.62962  0.39388  1.0000
  H   H155      1.0  0.36624  0.44862  0.31224  1.0000
  H   H156      1.0  0.34198  0.51511  0.29422  1.0000
  H   H157      1.0  0.32571  0.55311  0.27952  1.0000
  H   H158      1.0  0.34613  0.56911  0.23241  1.0000
  H   H159      1.0  0.38268  0.54661  0.19946  1.0000
  H   H160      1.0  0.39858  0.50845  0.21340  1.0000
  C   C211      1.0  0.18315  0.32810  0.45408  1.0000
  C   C212      1.0  0.40406  0.60968  0.19733  1.0000
  H   H161      1.0  0.39987  0.60728  0.24714  1.0000
  C   C213      1.0  0.38536  0.31217  0.33880  1.0000
  H   H162      1.0  0.39534  0.44456  0.37250  1.0000
  C   C214      1.0  0.43085  0.61475  0.17730  1.0000
  C   C215      1.0  0.12245  0.56776  0.47624  1.0000
  C   C216      1.0  0.38099  0.46076  0.44189  1.0000
  C   C217      1.0  0.45620  0.39822  0.45887  1.0000
  C   C218      1.0  0.43640  0.36874  0.27553  1.0000
  H   H163      1.0  0.37193  0.60681  0.43906  1.0000
  C   C219      1.0  0.42110  0.61063  0.23170  1.0000
  H   H164      1.0  0.11097  0.55126  0.47259  1.0000
  C   C220      1.0  0.46055  0.57590  0.40228  1.0000
  H   H165      1.0  0.12634  0.35307  0.38306  1.0000
  C   C221      1.0  0.44625  0.49147  0.36379  1.0000
  H   H166      1.0  0.36964  0.60561  0.18629  1.0000
  H   H167      1.0  0.41699  0.61400  0.15069  1.0000
  C   C222      1.0  0.42400  0.47059  0.24827  1.0000
  C   C223      1.0  0.35360  0.56157  0.45169  1.0000
  C   C224      1.0  0.42977  0.49388  0.32950  1.0000
  H   H168      1.0  0.44694  0.47172  0.40575  1.0000
  H   H169      1.0  0.39154  0.52349  0.38854  1.0000
  C   C225      1.0  0.41148  0.53783  0.39297  1.0000
  C   C226      1.0  0.41236  0.46463  0.21473  1.0000
  H   H170      1.0  0.26087  0.32516  0.24152  1.0000
  S   S38       1.0  0.30590  0.63110  0.23351  1.0000
  C   C227      1.0  0.35344  0.47716  0.42510  1.0000
  C   C228      1.0  0.45544  0.34552  0.32381  1.0000
  H   H171      1.0  0.41245  0.40025  0.28250  1.0000
  C   C229      1.0  0.40107  0.47839  0.31040  1.0000
  C   C230      1.0  0.13269  0.34246  0.40427  1.0000
  H   H172      1.0  0.30148  0.58464  0.44553  1.0000
  H   H173      1.0  0.36812  0.43497  0.24981  1.0000
  C   C231      1.0  0.10004  0.32820  0.40739  1.0000
  H   H174      1.0  0.43170  0.37099  0.24932  1.0000
  H   H175      1.0  0.22291  0.57078  0.42952  1.0000
  C   C232      1.0  0.45606  0.56454  0.42962  1.0000
  H   H176      1.0  0.19983  0.35298  0.42418  1.0000
  C   C233      1.0  0.43160  0.54533  0.42521  1.0000
  C   C234      1.0  0.44386  0.36216  0.34231  1.0000
  H   H177      1.0  0.38317  0.32927  0.34252  1.0000
  H   H178      1.0  0.43455  0.45122  0.17530  1.0000
  C   C235      1.0  0.98651  0.31028  0.43439  1.0000
  P   P9        1.0  0.42278  0.53214  0.46086  1.0000
  H   H179      1.0  0.42040  0.39463  0.34203  1.0000
  C   C236      1.0  0.37804  0.32218  0.19266  1.0000
  C   C237      1.0  0.31884  0.57139  0.46027  1.0000
  H   H180      1.0  0.34390  0.51118  0.41837  1.0000
  C   C238      1.0  0.40724  0.50406  0.45345  1.0000
  C   C239      1.0  0.42535  0.38521  0.29418  1.0000
  H   H181      1.0  0.38745  0.32172  0.17004  1.0000
  C   C240      1.0  0.32146  0.63494  0.47594  1.0000
  C   C241      1.0  0.44028  0.56835  0.37033  1.0000
  C   C242      1.0  0.43406  0.48746  0.47105  1.0000
  C   C243      1.0  0.42941  0.38196  0.32760  1.0000
  H   H182      1.0  0.32204  0.47315  0.40745  1.0000
  H   H183      1.0  0.45840  0.33636  0.27487  1.0000
  H   H184      1.0  0.23251  0.54693  0.38513  1.0000
  H   H185      1.0  0.34472  0.32460  0.27414  1.0000
  H   H186      1.0  0.14216  0.56826  0.43195  1.0000
  H   H187      1.0  0.37119  0.44403  0.43707  1.0000
  C   C244      1.0  0.47492  0.62105  0.19160  1.0000
  C   C245      1.0  0.35395  0.32402  0.25151  1.0000
  C   C246      1.0  0.46482  0.61690  0.24613  1.0000
  C   C247      1.0  0.43400  0.47368  0.37925  1.0000
  C   C248      1.0  0.37738  0.54484  0.47113  1.0000
  H   H188      1.0  0.44513  0.35988  0.36799  1.0000
  C   C249      1.0  0.44097  0.35546  0.47184  1.0000
  H   H189      1.0  0.08692  0.61320  0.38775  1.0000
  C   C250      1.0  0.44391  0.45602  0.20110  1.0000
  C   C251      1.0  0.36622  0.49869  0.43112  1.0000
  C   C252      1.0  0.41573  0.54933  0.36567  1.0000
  H   H190      1.0  0.21571  0.32781  0.47169  1.0000
  C   C253      1.0  0.15574  0.59881  0.45799  1.0000
  H   H191      1.0  0.24023  0.63577  0.40297  1.0000
  C   C254      1.0  0.14138  0.63402  0.41250  1.0000
  C   C255      1.0  0.14066  0.57744  0.45336  1.0000
  C   C256      1.0  0.23380  0.62156  0.44796  1.0000
  C   C257      1.0  0.25578  0.61721  0.48132  1.0000
  P   P10       1.0  0.17841  0.61197  0.42854  1.0000
  H   H192      1.0  0.44259  0.57761  0.34922  1.0000
  H   H193      1.0  0.43983  0.50768  0.31787  1.0000
  S   S39       1.0  0.41116  0.62952  0.39429  1.0000
  H   H194      1.0  0.11504  0.63009  0.29832  1.0000
  H   H195      1.0  0.47057  0.57121  0.45413  1.0000
  H   H196      1.0  0.22537  0.32462  0.28642  1.0000
  C   C258      1.0  0.42103  0.46593  0.46511  1.0000
  C   C259      1.0  0.45138  0.34898  0.29021  1.0000
  H   H197      1.0  0.02005  0.34621  0.48199  1.0000
  C   C260      1.0  0.25631  0.63255  0.42883  1.0000
  C   C261      1.0  0.47694  0.64109  0.12884  1.0000
  C   C262      1.0  0.05442  0.31378  0.30634  1.0000
  H   H198      1.0  0.43497  0.33885  0.47674  1.0000
  H   H199      1.0  0.44191  0.45318  0.47864  1.0000
  H   H200      1.0  0.01826  0.38599  0.48020  1.0000
  H   H201      1.0  0.03669  0.64167  0.28203  1.0000
  H   H202      1.0  0.99662  0.30918  0.46103  1.0000
  C   C263      1.0  0.29997  0.63917  0.44272  1.0000
  C   C264      1.0  0.10852  0.31384  0.43414  1.0000
  C   C265      1.0  0.15057  0.31378  0.45731  1.0000
  C   C266      1.0  0.13185  0.30874  0.33735  1.0000
  C   C267      1.0  0.23071  0.30967  0.27490  1.0000
  C   C268      1.0  0.25060  0.30995  0.24948  1.0000
  C   C269      1.0  0.15074  0.61054  0.48511  1.0000
  H   H203      1.0  0.47767  0.47208  0.29386  1.0000
  H   H204      1.0  0.47746  0.61826  0.27279  1.0000
  C   C270      1.0  0.47333  0.53558  0.49415  1.0000
  H   H205      1.0  0.09070  0.31976  0.49606  1.0000
  C   C271      1.0  0.04185  0.32259  0.62799  1.0000
  H   H206      1.0  0.38627  0.32553  0.61839  1.0000
  H   H207      1.0  0.07600  0.31972  0.62932  1.0000
  H   H208      1.0  0.02335  0.33093  0.57679  1.0000
  C   C272      1.0  0.02786  0.31948  0.65608  1.0000
  H   H209      1.0  0.12891  0.60995  0.52887  1.0000
  C   C273      1.0  0.01165  0.32880  0.59812  1.0000
  C   C274      1.0  0.44703  0.33697  0.61212  1.0000
  C   C275      1.0  0.42181  0.60647  0.48663  1.0000
  H   H210      1.0  0.28009  0.57188  0.49452  1.0000
  C   C276      1.0  0.36492  0.53759  0.49853  1.0000
  H   H211      1.0  0.46465  0.49088  0.48980  1.0000
  H   H212      1.0  0.26201  0.31605  0.63733  1.0000
  C   C277      1.0  0.13250  0.60083  0.50792  1.0000
  C   C278      1.0  0.47489  0.36691  0.49461  1.0000
  C   C279      1.0  0.41957  0.32123  0.61919  1.0000
  C   C280      1.0  0.46477  0.61259  0.50480  1.0000
  C   C281      1.0  0.00197  0.35496  0.49602  1.0000
  C   C282      1.0  0.11854  0.57941  0.50357  1.0000
  H   H213      1.0  0.43505  0.35320  0.60608  1.0000
  C   C283      1.0  0.00105  0.37741  0.49504  1.0000
  H   H214      1.0  0.32082  0.54182  0.52833  1.0000
  C   C284      1.0  0.98357  0.32243  0.65428  1.0000
  H   H215      1.0  0.35552  0.63986  0.48656  1.0000
  H   H216      1.0  0.27676  0.30996  0.69761  1.0000
  H   H217      1.0  0.44651  0.33645  0.70832  1.0000
  H   H218      1.0  0.10426  0.57191  0.52120  1.0000
  H   H219      1.0  0.38265  0.52454  0.51357  1.0000
  H   H220      1.0  0.31660  0.62035  0.52081  1.0000
  C   C285      1.0  0.32991  0.54734  0.50691  1.0000
  H   H221      1.0  0.44631  0.55773  0.52313  1.0000
  H   H222      1.0  0.36039  0.31885  0.90832  1.0000
  C   C286      1.0  0.97969  0.34385  0.51509  1.0000
  H   H223      1.0  0.98074  0.32641  0.51567  1.0000
  H   H224      1.0  0.40113  0.59816  0.49900  1.0000
  H   H225      1.0  0.16092  0.62725  0.48854  1.0000
  C   C287      1.0  0.47502  0.54903  0.52129  1.0000
  C   C288      1.0  0.30697  0.56428  0.48786  1.0000
  H   H226      1.0  0.05103  0.31406  0.67895  1.0000
  H   H227      1.0  0.08841  0.31268  0.55302  1.0000
  H   H228      1.0  0.32030  0.30991  0.94900  1.0000
  H   H229      1.0  0.23988  0.60832  0.49658  1.0000
  C   C289      1.0  0.29943  0.62395  0.49521  1.0000
  C   C290      1.0  0.97799  0.38880  0.51322  1.0000
  S   S40       1.0  0.35096  0.77419  0.13923  1.0000
  S   S41       1.0  0.40370  0.72545  0.12287  1.0000
  S   S42       1.0  0.19622  0.65147  0.33909  1.0000
  Fe  Fe21      1.0  0.17873  0.86965  0.12760  1.0000
  S   S43       1.0  0.15152  0.88543  0.16562  1.0000
  S   S44       1.0  0.25280  0.86437  0.13660  1.0000
  Fe  Fe22      1.0  0.08712  0.86507  0.07882  1.0000
  S   S45       1.0  0.05325  0.87951  0.11390  1.0000
  S   S46       1.0  0.05919  0.85350  0.02566  1.0000
  Fe  Fe23      1.0  0.10734  0.90481  0.12373  1.0000
  S   S47       1.0  0.08429  0.94012  0.12579  1.0000
  Fe  Fe24      1.0  0.09982  0.85918  0.15320  1.0000
  S   S48       1.0  0.09317  0.84055  0.19863  1.0000
  S   S49       1.0  0.13870  0.89104  0.08672  1.0000
  S   S50       1.0  0.12953  0.84281  0.11712  1.0000
  C   C291      1.0  0.05996  0.81353  0.23736  1.0000
  C   C292      1.0  0.05226  0.82311  0.20598  1.0000
  C   C293      1.0  0.01274  0.81853  0.18169  1.0000
  C   C294      1.0  0.06212  0.65278  0.29509  1.0000
  C   C295      1.0  0.32451  0.79963  0.13686  1.0000
  C   C296      1.0  0.27866  0.80011  0.13200  1.0000
  C   C297      1.0  0.25621  0.81975  0.13146  1.0000
  C   C298      1.0  0.27936  0.83921  0.13590  1.0000
  C   C299      1.0  0.32519  0.83875  0.14061  1.0000
  C   C300      1.0  0.34765  0.81910  0.14091  1.0000
  H   H230      1.0  0.26050  0.78515  0.12916  1.0000
  H   H231      1.0  0.22112  0.81986  0.12810  1.0000
  H   H232      1.0  0.34347  0.85370  0.14416  1.0000
  H   H233      1.0  0.38288  0.81901  0.14480  1.0000
  C   C301      1.0  0.41224  0.67587  0.21479  1.0000
  H   H234      1.0  0.99348  0.71272  0.48451  1.0000
  C   C302      1.0  0.37371  0.67122  0.18950  1.0000
  H   H235      1.0  0.36986  0.67714  0.16479  1.0000
  H   H236      1.0  0.24634  0.77464  0.06197  1.0000
  C   C303      1.0  0.30444  0.71756  0.16089  1.0000
  C   C304      1.0  0.28841  0.86615  0.06520  1.0000
  H   H237      1.0  0.34507  0.74301  0.18802  1.0000
  C   C305      1.0  0.33102  0.75110  0.04125  1.0000
  H   H238      1.0  0.06534  0.79631  0.03570  1.0000
  H   H239      1.0  0.20517  0.80588  0.06817  1.0000
  C   C306      1.0  0.20879  0.69396  0.28690  1.0000
  C   C307      1.0  0.20478  0.67706  0.26438  1.0000
  C   C308      1.0  0.17548  0.67873  0.23266  1.0000
  C   C309      1.0  0.14999  0.69727  0.22349  1.0000
  C   C310      1.0  0.15376  0.71433  0.24604  1.0000
  C   C311      1.0  0.18367  0.71263  0.27779  1.0000
  P   P11       1.0  0.11950  0.73789  0.23403  1.0000
  C   C312      1.0  0.13756  0.75367  0.20427  1.0000
  C   C313      1.0  0.06282  0.72919  0.21741  1.0000
  S   S51       1.0  0.46929  0.76470  0.11478  1.0000
  H   H240      1.0  0.30191  0.74639  0.08079  1.0000
  C   C314      1.0  0.04923  0.70931  0.22701  1.0000
  C   C315      1.0  0.12138  0.77460  0.19628  1.0000
  C   C316      1.0  0.13554  0.78699  0.17373  1.0000
  C   C317      1.0  0.16671  0.77880  0.15942  1.0000
  C   C318      1.0  0.18362  0.75815  0.16755  1.0000
  C   C319      1.0  0.16904  0.74559  0.18976  1.0000
  C   C320      1.0  0.12180  0.75409  0.27007  1.0000
  C   C321      1.0  0.15112  0.77153  0.27870  1.0000
  C   C322      1.0  0.15234  0.78424  0.30631  1.0000
  C   C323      1.0  0.12480  0.77942  0.32581  1.0000
  C   C324      1.0  0.09623  0.76181  0.31784  1.0000
  C   C325      1.0  0.09464  0.74918  0.29008  1.0000
  H   H241      1.0  0.35576  0.73874  0.04984  1.0000
  C   C326      1.0  0.09666  0.79680  0.03020  1.0000
  H   H242      1.0  0.12682  0.69820  0.19898  1.0000
  H   H243      1.0  0.18693  0.72535  0.29586  1.0000
  C   C327      1.0  0.98693  0.73647  0.18588  1.0000
  H   H244      1.0  0.07223  0.69888  0.24414  1.0000
  H   H245      1.0  0.09819  0.78154  0.20778  1.0000
  H   H246      1.0  0.12276  0.80314  0.16780  1.0000
  H   H247      1.0  0.17826  0.78861  0.14247  1.0000
  H   H248      1.0  0.20842  0.75195  0.15689  1.0000
  H   H249      1.0  0.18295  0.72977  0.19568  1.0000
  H   H250      1.0  0.17264  0.77551  0.26395  1.0000
  H   H251      1.0  0.17423  0.79800  0.31234  1.0000
  H   H252      1.0  0.07186  0.73576  0.28422  1.0000
  C   C328      1.0  0.45752  0.73247  0.26586  1.0000
  C   C329      1.0  0.26886  0.77144  0.04769  1.0000
  C   C330      1.0  0.41651  0.66803  0.24677  1.0000
  C   C331      1.0  0.30041  0.75529  0.05847  1.0000
  H   H253      1.0  0.20156  0.94226  0.35672  1.0000
  C   C332      1.0  0.04999  0.67345  0.30311  1.0000
  C   C333      1.0  0.32097  0.73075  0.18856  1.0000
  C   C334      1.0  0.25958  0.95496  0.34667  1.0000
  C   C335      1.0  0.25242  0.82932  0.02868  1.0000
  H   H254      1.0  0.39538  0.67857  0.10524  1.0000
  C   C336      1.0  0.27358  0.70157  0.16119  1.0000
  H   H255      1.0  0.18755  0.65937  0.43499  1.0000
  H   H256      1.0  0.15901  0.96023  0.10792  1.0000
  C   C337      1.0  0.10029  0.96747  0.12152  1.0000
  H   H257      1.0  0.31594  0.71972  0.13935  1.0000
  H   H258      1.0  0.26149  0.69105  0.13999  1.0000
  C   C338      1.0  0.25872  0.69898  0.18901  1.0000
  H   H259      1.0  0.23523  0.68639  0.18940  1.0000
  Fe  Fe25      1.0  0.41825  0.75933  0.14191  1.0000
  H   H260      1.0  0.22140  0.87689  0.05557  1.0000
  C   C339      1.0  0.30663  0.72810  0.21672  1.0000
  H   H261      1.0  0.12527  0.78940  0.34697  1.0000
  C   C340      1.0  0.27461  0.71241  0.21652  1.0000
  H   H262      1.0  0.07480  0.75811  0.33292  1.0000
  H   H263      1.0  0.26199  0.71038  0.23751  1.0000
  C   C341      1.0  0.12802  0.68080  0.32970  1.0000
  C   C342      1.0  0.08352  0.68764  0.31976  1.0000
  H   H264      1.0  0.07502  0.70357  0.32616  1.0000
  H   H265      1.0  0.15329  0.69168  0.34367  1.0000
  C   C343      1.0  0.26056  0.81142  0.21726  1.0000
  H   H266      1.0  0.09042  0.81688  0.25636  1.0000
  C   C344      1.0  0.02848  0.79970  0.24448  1.0000
  C   C345      1.0  0.14000  0.65990  0.32252  1.0000
  H   H267      1.0  0.20597  0.79940  0.23233  1.0000
  C   C346      1.0  0.23870  0.79596  0.23059  1.0000
  C   C347      1.0  0.30679  0.71808  0.34701  1.0000
  H   H268      1.0  0.03476  0.79263  0.26875  1.0000
  H   H269      1.0  0.24486  0.82669  0.20869  1.0000
  C   C348      1.0  0.25853  0.77603  0.24077  1.0000
  C   C349      1.0  0.30226  0.80697  0.21407  1.0000
  H   H270      1.0  0.31877  0.81878  0.20301  1.0000
  C   C350      1.0  0.32211  0.78709  0.22406  1.0000
  H   H271      1.0  0.24058  0.76393  0.24996  1.0000
  C   C351      1.0  0.30102  0.77171  0.23852  1.0000
  C   C352      1.0  0.31706  0.73515  0.28822  1.0000
  P   P12       1.0  0.32692  0.74603  0.25143  1.0000
  H   H272      1.0  0.34143  0.70343  0.28120  1.0000
  C   C353      1.0  0.32828  0.71365  0.29690  1.0000
  C   C354      1.0  0.29635  0.73959  0.33891  1.0000
  H   H273      1.0  0.35357  0.78368  0.21987  1.0000
  C   C355      1.0  0.30211  0.74822  0.30989  1.0000
  H   H274      1.0  0.28444  0.74967  0.35543  1.0000
  C   C356      1.0  0.32314  0.70519  0.32616  1.0000
  H   H275      1.0  0.33208  0.68863  0.33276  1.0000
  C   C357      1.0  0.09800  0.79468  0.99760  1.0000
  H   H276      1.0  0.29572  0.76514  0.30490  1.0000
  H   H277      1.0  0.30267  0.71140  0.36960  1.0000
  H   H278      1.0  0.99476  0.68784  0.22374  1.0000
  C   C358      1.0  0.38618  0.74816  0.26233  1.0000
  C   C359      1.0  0.44915  0.72656  0.00619  1.0000
  H   H279      1.0  0.39590  0.71675  0.24314  1.0000
  H   H280      1.0  0.38879  0.77927  0.28599  1.0000
  C   C360      1.0  0.40762  0.76625  0.27977  1.0000
  C   C361      1.0  0.41150  0.73113  0.25580  1.0000
  H   H281      1.0  0.44619  0.67147  0.26652  1.0000
  H   H282      1.0  0.01463  0.91246  0.02663  1.0000
  C   C362      1.0  0.07120  0.89602  0.21652  1.0000
  C   C363      1.0  0.34094  0.65796  0.19584  1.0000
  C   C364      1.0  0.17740  0.80020  0.01567  1.0000
  C   C365      1.0  0.19395  0.94335  0.30438  1.0000
  P   P13       1.0  0.22865  0.80533  0.00628  1.0000
  H   H283      1.0  0.11788  0.87567  0.25032  1.0000
  C   C366      1.0  0.11200  0.89147  0.23912  1.0000
  H   H284      1.0  0.46997  0.78180  0.30232  1.0000
  C   C367      1.0  0.06401  0.91601  0.20086  1.0000
  C   C368      1.0  0.14572  0.90684  0.24594  1.0000
  H   H285      1.0  0.13430  0.80226  0.08078  1.0000
  H   H286      1.0  0.27728  0.95742  0.37254  1.0000
  H   H287      1.0  0.17773  0.90269  0.26239  1.0000
  C   C369      1.0  0.22983  0.92662  0.16003  1.0000
  C   C370      1.0  0.13854  0.92708  0.23066  1.0000
  C   C371      1.0  0.20512  0.93620  0.17871  1.0000
  H   H288      1.0  0.16060  0.93716  0.29796  1.0000
  H   H289      1.0  0.41103  0.67355  0.05159  1.0000
  H   H290      1.0  0.03293  0.91932  0.18250  1.0000
  H   H291      1.0  0.03355  0.96979  0.01566  1.0000
  H   H292      1.0  0.18939  0.84497  0.02269  1.0000
  H   H293      1.0  0.28594  0.90687  0.16112  1.0000
  C   C372      1.0  0.38311  0.65535  0.25334  1.0000
  H   H294      1.0  0.22368  0.66245  0.27181  1.0000
  Fe  Fe26      1.0  0.45648  0.71493  0.16781  1.0000
  C   C373      1.0  0.00509  0.70297  0.21561  1.0000
  H   H295      1.0  0.04571  0.88376  0.21045  1.0000
  H   H296      1.0  0.00626  0.82569  0.15746  1.0000
  S   S52       1.0  0.99257  0.68006  0.29333  1.0000
  H   H297      1.0  0.31743  0.64723  0.42753  1.0000
  C   C374      1.0  0.26763  0.78354  0.01942  1.0000
  H   H298      1.0  0.31192  0.96760  0.32907  1.0000
  C   C375      1.0  0.13554  0.80029  0.05561  1.0000
  C   C376      1.0  0.03109  0.74281  0.19702  1.0000
  C   C377      1.0  0.13820  0.79629  0.99031  1.0000
  C   C378      1.0  0.42913  0.66435  0.07302  1.0000
  H   H299      1.0  0.13451  0.68874  0.41500  1.0000
  H   H300      1.0  0.32026  0.81852  0.04029  1.0000
  C   C379      1.0  0.46157  0.64983  0.07049  1.0000
  C   C380      1.0  0.09758  0.93146  0.20778  1.0000
  C   C381      1.0  0.31606  0.84965  0.06081  1.0000
  H   H301      1.0  0.17540  0.94484  0.16624  1.0000
  C   C382      1.0  0.29822  0.83127  0.04268  1.0000
  C   C383      1.0  0.21377  0.94860  0.27971  1.0000
  H   H302      1.0  0.21926  0.92798  0.13332  1.0000
  C   C384      1.0  0.21800  0.93419  0.21322  1.0000
  C   C385      1.0  0.26730  0.91467  0.17569  1.0000
  C   C386      1.0  0.98850  0.79550  0.22038  1.0000
  H   H303      1.0  0.06918  0.89675  0.00256  1.0000
  C   C387      1.0  0.13839  0.97287  0.11287  1.0000
  C   C388      1.0  0.27978  0.91210  0.21001  1.0000
  P   P14       1.0  0.18404  0.94560  0.23655  1.0000
  C   C389      1.0  0.25509  0.92171  0.22877  1.0000
  C   C390      1.0  0.42040  0.66724  0.10327  1.0000
  C   C391      1.0  0.22488  0.84612  0.03291  1.0000
  C   C392      1.0  0.10670  0.64612  0.30436  1.0000
  C   C393      1.0  0.12425  0.67219  0.40940  1.0000
  C   C394      1.0  0.24287  0.86439  0.05122  1.0000
  C   C395      1.0  0.21696  0.94639  0.33776  1.0000
  H   H304      1.0  0.05800  0.68066  0.38135  1.0000
  H   H305      1.0  0.00110  0.94350  0.07219  1.0000
  S   S53       1.0  0.45758  0.68954  0.20711  1.0000
  C   C396      1.0  0.17568  0.80216  0.04839  1.0000
  H   H306      1.0  0.30805  0.90224  0.22189  1.0000
  H   H307      1.0  0.46841  0.64778  0.04698  1.0000
  H   H308      1.0  0.35466  0.76001  0.00033  1.0000
  C   C397      1.0  0.00470  0.85914  0.00130  1.0000
  C   C398      1.0  0.98109  0.80490  0.18894  1.0000
  H   H309      1.0  0.09186  0.94645  0.19428  1.0000
  C   C399      1.0  0.08107  0.66767  0.39054  1.0000
  S   S54       1.0  0.43805  0.71842  0.04363  1.0000
  C   C400      1.0  0.45364  0.76765  0.28935  1.0000
  H   H310      1.0  0.35127  0.85081  0.07239  1.0000
  H   H311      1.0  0.26446  0.91899  0.25516  1.0000
  H   H312      1.0  0.31210  0.65374  0.17582  1.0000
  S   S55       1.0  0.98094  0.74304  0.31599  1.0000
  H   H313      1.0  0.03964  0.75861  0.19037  1.0000
  H   H314      1.0  0.30206  0.87999  0.08039  1.0000
  H   H315      1.0  0.43757  0.65851  0.15443  1.0000
  Fe  Fe27      1.0  0.45661  0.73040  0.09759  1.0000
  H   H316      1.0  0.38729  0.64912  0.27795  1.0000
  H   H317      1.0  0.17201  0.66543  0.21546  1.0000
  C   C401      1.0  0.34564  0.64973  0.22767  1.0000
  H   H318      1.0  0.23037  0.69218  0.31184  1.0000
  C   C402      1.0  0.44429  0.65576  0.13107  1.0000
  C   C403      1.0  0.25621  0.95763  0.28881  1.0000
  C   C404      1.0  0.01679  0.91855  0.00319  1.0000
  C   C405      1.0  0.15435  0.65546  0.42042  1.0000
  H   H319      1.0  0.98040  0.86785  0.04211  1.0000
  C   C406      1.0  0.33035  0.76315  0.01330  1.0000
  H   H320      1.0  0.27143  0.96244  0.27005  1.0000
  C   C407      1.0  0.27913  0.96065  0.32220  1.0000
  H   H321      1.0  0.11254  0.97272  0.24463  1.0000
  H   H322      1.0  0.99438  0.92129  0.11840  1.0000
  C   C408      1.0  0.29903  0.77940  0.00251  1.0000
  C   C409      1.0  0.04795  0.90953  0.98956  1.0000
  C   C410      1.0  0.16648  0.97251  0.22289  1.0000
  C   C411      1.0  0.06792  0.64641  0.38260  1.0000
  S   S56       1.0  0.46924  0.74839  0.18831  1.0000
  S   S57       1.0  0.30442  0.64295  0.32392  1.0000
  H   H323      1.0  0.47684  0.71929  0.26067  1.0000
  H   H324      1.0  0.03472  0.64305  0.36721  1.0000
  C   C412      1.0  0.98874  0.93492  0.98632  1.0000
  C   C413      1.0  0.32470  0.78250  0.64257  1.0000
  S   S58       1.0  0.41361  0.75434  0.75962  1.0000
  Fe  Fe28      1.0  0.45187  0.74074  0.85286  1.0000
  S   S59       1.0  0.41907  0.77189  0.83221  1.0000
  Fe  Fe29      1.0  0.44675  0.72382  0.78262  1.0000
  Fe  Fe30      1.0  0.37056  0.75170  0.79333  1.0000
  S   S60       1.0  0.29689  0.76237  0.77437  1.0000
  H   H325      1.0  0.01836  0.85127  0.95555  1.0000
  S   S61       1.0  0.40139  0.72026  0.81545  1.0000
  Fe  Fe31      1.0  0.03018  0.73578  0.66663  1.0000
  C   C414      1.0  0.08171  0.82069  0.90014  1.0000
  S   S62       1.0  0.10212  0.72672  0.69635  1.0000
  H   H326      1.0  0.22039  0.84432  0.96501  1.0000
  H   H327      1.0  0.43254  0.72728  0.65106  1.0000
  C   C415      1.0  0.23415  0.80056  0.80572  1.0000
  C   C416      1.0  0.33894  0.69227  0.73791  1.0000
  H   H328      1.0  0.99814  0.96710  0.85513  1.0000
  C   C417      1.0  0.21815  0.78292  0.81912  1.0000
  H   H329      1.0  0.38835  0.67868  0.61754  1.0000
  H   H330      1.0  0.31344  0.66856  0.76451  1.0000
  H   H331      1.0  0.33133  0.79234  0.62344  1.0000
  H   H332      1.0  0.13851  0.82794  0.77447  1.0000
  C   C418      1.0  0.24339  0.75203  0.75157  1.0000
  C   C419      1.0  0.23401  0.72999  0.74775  1.0000
  C   C420      1.0  0.19092  0.72269  0.73081  1.0000
  C   C421      1.0  0.15624  0.73717  0.71707  1.0000
  C   C422      1.0  0.16573  0.75924  0.72047  1.0000
  C   C423      1.0  0.20880  0.76653  0.73750  1.0000
  H   H333      1.0  0.25984  0.71855  0.75837  1.0000
  H   H334      1.0  0.18433  0.70560  0.72849  1.0000
  H   H335      1.0  0.13986  0.77071  0.71007  1.0000
  H   H336      1.0  0.21535  0.78361  0.73972  1.0000
  C   C424      1.0  0.29970  0.74873  0.65999  1.0000
  C   C425      1.0  0.14734  0.71101  0.59869  1.0000
  C   C426      1.0  0.33253  0.79074  0.67457  1.0000
  H   H337      1.0  0.21279  0.75224  0.66362  1.0000
  C   C427      1.0  0.30101  0.70979  0.62085  1.0000
  C   C428      1.0  0.21050  0.79169  0.94080  1.0000
  C   C429      1.0  0.99267  0.94225  0.95590  1.0000
  C   C430      1.0  0.42517  0.71685  0.97617  1.0000
  Fe  Fe32      1.0  0.46457  0.77170  0.79993  1.0000
  C   C431      1.0  0.09009  0.82751  0.84585  1.0000
  H   H338      1.0  0.09567  0.83882  0.82801  1.0000
  H   H339      1.0  0.16154  0.76773  0.82739  1.0000
  C   C432      1.0  0.33932  0.69720  0.63169  1.0000
  H   H340      1.0  0.02595  0.93850  0.91848  1.0000
  S   S63       1.0  0.00857  0.76364  0.63154  1.0000
  H   H341      1.0  0.08965  0.72859  0.60103  1.0000
  C   C433      1.0  0.21762  0.72456  0.63350  1.0000
  C   C434      1.0  0.06673  0.73304  0.76815  1.0000
  H   H342      1.0  0.06760  0.79239  0.97794  1.0000
  C   C435      1.0  0.99908  0.83407  0.70998  1.0000
  H   H343      1.0  0.24061  0.77018  0.83078  1.0000
  H   H344      1.0  0.01634  0.82864  0.79254  1.0000
  C   C436      1.0  0.19516  0.74092  0.64489  1.0000
  H   H345      1.0  0.37155  0.69227  0.75542  1.0000
  H   H346      1.0  0.13197  0.75476  0.64240  1.0000
  C   C437      1.0  0.32984  0.70570  0.71027  1.0000
  H   H347      1.0  0.35581  0.71603  0.70699  1.0000
  C   C438      1.0  0.30626  0.67878  0.74288  1.0000
  C   C439      1.0  0.05359  0.81186  0.76427  1.0000
  P   P15       1.0  0.27675  0.72206  0.65033  1.0000
  H   H348      1.0  0.08358  0.72091  0.75791  1.0000
  H   H349      1.0  0.19653  0.78088  0.89033  1.0000
  C   C440      1.0  0.20663  0.83322  0.91498  1.0000
  H   H350      1.0  0.07460  0.77407  0.85682  1.0000
  C   C441      1.0  0.25520  0.69182  0.69217  1.0000
  C   C442      1.0  0.16031  0.81520  0.78684  1.0000
  H   H351      1.0  0.08012  0.82660  0.92395  1.0000
  H   H352      1.0  0.09252  0.85206  0.88248  1.0000
  C   C443      1.0  0.43406  0.75504  0.68189  1.0000
  C   C444      1.0  0.05121  0.91665  0.95904  1.0000
  H   H353      1.0  0.35623  0.68561  0.55757  1.0000
  H   H354      1.0  0.20508  0.84932  0.90493  1.0000
  H   H355      1.0  0.26882  0.80137  0.80707  1.0000
  P   P16       1.0  0.08643  0.79597  0.79815  1.0000
  C   C445      1.0  0.02197  0.82646  0.76870  1.0000
  C   C446      1.0  0.20529  0.81674  0.78972  1.0000
  C   C447      1.0  0.08379  0.80556  0.83790  1.0000
  C   C448      1.0  0.02972  0.81922  0.70527  1.0000
  H   H356      1.0  0.03122  0.81574  0.68048  1.0000
  H   H357      1.0  0.21778  0.83030  0.77910  1.0000
  H   H358      1.0  0.11603  0.75686  0.77031  1.0000
  C   C449      1.0  0.20002  0.81543  0.89382  1.0000
  C   C450      1.0  0.07664  0.79874  0.89275  1.0000
  C   C451      1.0  0.17329  0.78143  0.81659  1.0000
  H   H359      1.0  0.41591  0.71372  0.92344  1.0000
  H   H360      1.0  0.07495  0.90935  0.94840  1.0000
  C   C452      1.0  0.28792  0.70549  0.68700  1.0000
  C   C453      1.0  0.14385  0.79730  0.79971  1.0000
  H   H361      1.0  0.25490  0.72416  0.57793  1.0000
  C   C454      1.0  0.05697  0.80817  0.73230  1.0000
  C   C455      1.0  0.30327  0.70519  0.56414  1.0000
  C   C456      1.0  0.99343  0.85631  0.96681  1.0000
  H   H362      1.0  0.19351  0.81773  0.86742  1.0000
  H   H363      1.0  0.22238  0.69143  0.67505  1.0000
  H   H364      1.0  0.12854  0.69930  0.58118  1.0000
  H   H365      1.0  0.32929  0.78451  0.72397  1.0000
  C   C457      1.0  0.43425  0.72164  0.94610  1.0000
  C   C458      1.0  0.06376  0.76927  0.78899  1.0000
  C   C459      1.0  0.07802  0.79115  0.86186  1.0000
  C   C460      1.0  0.08537  0.75347  0.77570  1.0000
  C   C461      1.0  0.19327  0.70939  0.61065  1.0000
  H   H366      1.0  0.28952  0.70841  0.53797  1.0000
  C   C462      1.0  0.14926  0.74242  0.63295  1.0000
  H   H367      1.0  0.20960  0.69610  0.60256  1.0000
  C   C463      1.0  0.20175  0.79468  0.90672  1.0000
  C   C464      1.0  0.21543  0.83030  0.94911  1.0000
  H   H368      1.0  0.13819  0.79509  0.96483  1.0000
  C   C465      1.0  0.28358  0.71398  0.58687  1.0000
  C   C466      1.0  0.30717  0.75726  0.69189  1.0000
  H   H369      1.0  0.44599  0.78244  0.71480  1.0000
  C   C467      1.0  0.32358  0.77814  0.69915  1.0000
  H   H370      1.0  0.30191  0.75565  0.61026  1.0000
  C   C468      1.0  0.12534  0.72753  0.60982  1.0000
  H   H371      1.0  0.35442  0.69402  0.65766  1.0000
  H   H372      1.0  0.30004  0.74785  0.71119  1.0000
  S   S64       1.0  0.45333  0.70148  0.74057  1.0000
  C   C469      1.0  0.08862  0.83505  0.87674  1.0000
  C   C470      1.0  0.30819  0.76160  0.63524  1.0000
  C   C471      1.0  0.34087  0.69240  0.57514  1.0000
  H   H373      1.0  0.34539  0.80690  0.68037  1.0000
  C   C472      1.0  0.45319  0.73908  0.66729  1.0000
  C   C473      1.0  0.35895  0.68847  0.60891  1.0000
  C   C474      1.0  0.26437  0.67858  0.72005  1.0000
  H   H374      1.0  0.07977  0.79629  0.72811  1.0000
  H   H375      1.0  0.00381  0.77703  0.80119  1.0000
  C   C475      1.0  0.02363  0.93305  0.94223  1.0000
  H   H376      1.0  0.39872  0.75550  0.67721  1.0000
  C   C476      1.0  0.00313  0.74435  0.78448  1.0000
  S   S65       1.0  0.99403  0.71166  0.62815  1.0000
  C   C477      1.0  0.46834  0.73585  0.94568  1.0000
  H   H377      1.0  0.23882  0.66831  0.72409  1.0000
  C   C478      1.0  0.46066  0.77007  0.70327  1.0000
  C   C479      1.0  0.02575  0.72846  0.77257  1.0000
  C   C480      1.0  0.21801  0.80948  0.96232  1.0000
  C   C481      1.0  0.99537  0.83777  0.74168  1.0000
  H   H378      1.0  0.39960  0.70532  0.97616  1.0000
  C   C482      1.0  0.02204  0.76471  0.79262  1.0000
  H   H379      1.0  0.01118  0.71275  0.76579  1.0000
  H   H380      1.0  0.07130  0.78761  0.91088  1.0000
  H   H381      1.0  0.21162  0.77550  0.95044  1.0000
  H   H382      1.0  0.98594  0.68182  0.55898  1.0000
  H   H383      1.0  0.29997  0.78894  0.98134  1.0000
  H   H384      1.0  0.45563  0.68073  0.68033  1.0000
  C   C483      1.0  0.83959  0.20242  0.35175  1.0000
  H   H385      1.0  0.58985  0.28276  0.27711  1.0000
  C   C484      1.0  0.90385  0.08857  0.08201  1.0000
  P   P17       1.0  0.65712  0.20493  0.10662  1.0000
  Fe  Fe33      1.0  0.52011  0.23873  0.16135  1.0000
  S   S66       1.0  0.59027  0.22828  0.19321  1.0000
  H   H386      1.0  0.88687  0.18580  0.33296  1.0000
  Fe  Fe34      1.0  0.86647  0.25216  0.26929  1.0000
  S   S67       1.0  0.89496  0.21948  0.28626  1.0000
  S   S68       1.0  0.79340  0.26082  0.24184  1.0000
  H   H387      1.0  0.83392  0.27025  0.48353  1.0000
  H   H388      1.0  0.69093  0.24829  0.13100  1.0000
  Fe  Fe35      1.0  0.93531  0.23695  0.33284  1.0000
  H   H389      1.0  0.74036  0.18322  0.13789  1.0000
  S   S69       1.0  0.91981  0.25950  0.24516  1.0000
  S   S70       1.0  0.90504  0.26920  0.31638  1.0000
  C   C485      1.0  0.75858  0.24395  0.15823  1.0000
  C   C486      1.0  0.75164  0.23070  0.46666  1.0000
  C   C487      1.0  0.86125  0.16526  0.36388  1.0000
  H   H390      1.0  0.73457  0.18029  0.02718  1.0000
  H   H391      1.0  0.88104  0.15158  0.36110  1.0000
  H   H392      1.0  0.86808  0.29130  0.40035  1.0000
  C   C488      1.0  0.64649  0.23782  0.20667  1.0000
  C   C489      1.0  0.65903  0.25824  0.19865  1.0000
  C   C490      1.0  0.70371  0.26495  0.20998  1.0000
  C   C491      1.0  0.73704  0.25140  0.22923  1.0000
  C   C492      1.0  0.72450  0.23097  0.23728  1.0000
  C   C493      1.0  0.67973  0.22434  0.22624  1.0000
  H   H393      1.0  0.63430  0.26893  0.18376  1.0000
  H   H394      1.0  0.71262  0.28078  0.20345  1.0000
  H   H395      1.0  0.74931  0.22025  0.25199  1.0000
  H   H396      1.0  0.67080  0.20857  0.23287  1.0000
  H   H397      1.0  0.90434  0.09962  0.00086  1.0000
  C   C494      1.0  0.86664  0.11982  0.05275  1.0000
  C   C495      1.0  0.94448  0.23160  0.42565  1.0000
  C   C496      1.0  0.64127  0.22060  0.30417  1.0000
  C   C497      1.0  0.56794  0.28942  0.29010  1.0000
  H   H398      1.0  0.91212  0.22666  0.12449  1.0000
  H   H399      1.0  0.83799  0.19549  0.03881  1.0000
  C   C498      1.0  0.70047  0.19099  0.06165  1.0000
  C   C499      1.0  0.60247  0.24031  0.10378  1.0000
  C   C500      1.0  0.89846  0.17577  0.09229  1.0000
  H   H400      1.0  0.91360  0.20654  0.07423  1.0000
  C   C501      1.0  0.89758  0.19879  0.14942  1.0000
  C   C502      1.0  0.57474  0.25693  0.08792  1.0000
  C   C503      1.0  0.62736  0.17382  0.18305  1.0000
  H   H401      1.0  0.90838  0.98029  0.03428  1.0000
  H   H402      1.0  0.89880  0.20755  0.17193  1.0000
  C   C504      1.0  0.71719  0.23670  0.13919  1.0000
  H   H403      1.0  0.50892  0.28087  0.25159  1.0000
  C   C505      1.0  0.86647  0.09797  0.06048  1.0000
  H   H404      1.0  0.97147  0.13212  0.09882  1.0000
  H   H405      1.0  0.57939  0.24908  0.00941  1.0000
  C   C506      1.0  0.95688  0.00521  0.05063  1.0000
  H   H406      1.0  0.61549  0.16396  0.07803  1.0000
  C   C507      1.0  0.66953  0.20298  0.30774  1.0000
  P   P18       1.0  0.90499  0.16074  0.05722  1.0000
  Fe  Fe36      1.0  0.95052  0.22764  0.26448  1.0000
  H   H407      1.0  0.84436  0.25645  0.41594  1.0000
  C   C508      1.0  0.94206  0.12276  0.08758  1.0000
  C   C509      1.0  0.64972  0.15368  0.04382  1.0000
  H   H408      1.0  0.63233  0.25232  0.32152  1.0000
  C   C510      1.0  0.58174  0.17111  0.17092  1.0000
  H   H409      1.0  0.70566  0.25356  0.36291  1.0000
  C   C511      1.0  0.83329  0.16378  0.38393  1.0000
  H   H410      1.0  0.93621  0.01490  0.06139  1.0000
  C   C512      1.0  0.72433  0.22157  0.35180  1.0000
  H   H411      1.0  0.83694  0.12686  0.03671  1.0000
  H   H412      1.0  0.65978  0.18921  0.29148  1.0000
  H   H413      1.0  0.73264  0.18985  0.33279  1.0000
  H   H414      1.0  0.72315  0.23421  0.47500  1.0000
  C   C513      1.0  0.65050  0.18406  0.16376  1.0000
  C   C514      1.0  0.81192  0.20114  0.37219  1.0000
  H   H415      1.0  0.56402  0.19460  0.09577  1.0000
  C   C515      1.0  0.86428  0.18452  0.34776  1.0000
  C   C516      1.0  0.90589  0.19810  0.09425  1.0000
  C   C517      1.0  0.56678  0.26015  0.05401  1.0000
  C   C518      1.0  0.79296  0.22938  0.17029  1.0000
  C   C519      1.0  0.68324  0.15817  0.02942  1.0000
  H   H416      1.0  0.54492  0.27294  0.04175  1.0000
  H   H417      1.0  0.84318  0.21733  0.33959  1.0000
  C   C520      1.0  0.78415  0.22483  0.42188  1.0000
  H   H418      1.0  0.68553  0.18655  0.17416  1.0000
  C   C521      1.0  0.62272  0.22683  0.08581  1.0000
  H   H419      1.0  0.60982  0.22047  0.28506  1.0000
  H   H420      1.0  0.52366  0.17682  0.13028  1.0000
  H   H421      1.0  0.76370  0.26083  0.16480  1.0000
  S   S71       1.0  0.49720  0.27256  0.14655  1.0000
  C   C522      1.0  0.80865  0.18164  0.38807  1.0000
  H   H422      1.0  0.94192  0.27616  0.47268  1.0000
  C   C523      1.0  0.84470  0.28174  0.38196  1.0000
  P   P19       1.0  0.78040  0.22407  0.37832  1.0000
  C   C524      1.0  0.64156  0.16779  0.06720  1.0000
  C   C525      1.0  0.71089  0.20342  0.33141  1.0000
  H   H423      1.0  0.94414  0.15676  0.00181  1.0000
  C   C526      1.0  0.78625  0.20753  0.16280  1.0000
  H   H424      1.0  0.83116  0.14887  0.39659  1.0000
  C   C527      1.0  0.90475  0.13231  0.06583  1.0000
  C   C528      1.0  0.65407  0.23858  0.32463  1.0000
  C   C529      1.0  0.83128  0.26175  0.39068  1.0000
  H   H425      1.0  0.76512  0.24642  0.31477  1.0000
  C   C530      1.0  0.94140  0.10102  0.09579  1.0000
  C   C531      1.0  0.70860  0.17682  0.03835  1.0000
  C   C532      1.0  0.66698  0.18653  0.07637  1.0000
  C   C533      1.0  0.55918  0.17850  0.13937  1.0000
  C   C534      1.0  0.82854  0.28915  0.34951  1.0000
  C   C535      1.0  0.78685  0.25619  0.33401  1.0000
  C   C536      1.0  0.61440  0.23013  0.05164  1.0000
  C   C537      1.0  0.94168  0.25331  0.43387  1.0000
  H   H426      1.0  0.83723  0.08835  0.04992  1.0000
  C   C538      1.0  0.89006  0.17662  0.14770  1.0000
  C   C539      1.0  0.74732  0.22945  0.43276  1.0000
  H   H427      1.0  0.63004  0.13922  0.03688  1.0000
  H   H428      1.0  0.62894  0.21988  0.03698  1.0000
  C   C540      1.0  0.86226  0.16724  0.01942  1.0000
  H   H429      1.0  0.88580  0.14788  0.11908  1.0000
  H   H430      1.0  0.55890  0.26719  0.10181  1.0000
  C   C541      1.0  0.94386  0.25935  0.46668  1.0000
  C   C542      1.0  0.90527  0.20954  0.12267  1.0000
  S   S72       1.0  0.48374  0.22448  0.11121  1.0000
  C   C543      1.0  0.69546  0.23912  0.34825  1.0000
  C   C544      1.0  0.83470  0.18517  0.01764  1.0000
  C   C545      1.0  0.89037  0.16513  0.11927  1.0000
  H   H431      1.0  0.93815  0.26543  0.41499  1.0000
  H   H432      1.0  0.87585  0.13987  0.99203  1.0000
  C   C546      1.0  0.58640  0.24671  0.03584  1.0000
  H   H433      1.0  0.82446  0.23507  0.18605  1.0000
  C   C547      1.0  0.71017  0.21477  0.13145  1.0000
  H   H434      1.0  0.78732  0.18029  0.40386  1.0000
  H   H435      1.0  0.64465  0.16857  0.20782  1.0000
  C   C548      1.0  0.74511  0.20024  0.14333  1.0000
  H   H436      1.0  0.56368  0.16375  0.18623  1.0000
  H   H437      1.0  0.81281  0.19624  0.17252  1.0000
  C   C549      1.0  0.95857  0.16747  0.05281  1.0000
  H   H438      1.0  0.72024  0.20546  0.06817  1.0000
  S   S73       1.0  0.94254  0.22268  0.38478  1.0000
  H   H439      1.0  0.71527  0.23198  0.41531  1.0000
  C   C550      1.0  0.79975  0.27635  0.32557  1.0000
  C   C551      1.0  0.58220  0.18867  0.11996  1.0000
  H   H440      1.0  0.88565  0.16822  0.16895  1.0000
  C   C552      1.0  0.82521  0.22145  0.44542  1.0000
  C   C553      1.0  0.62808  0.19152  0.13199  1.0000
  H   H441      1.0  0.60794  0.23790  0.13006  1.0000
  H   H442      1.0  0.97000  0.09395  0.11327  1.0000
  H   H443      1.0  0.78802  0.28189  0.30022  1.0000
  H   H444      1.0  0.90367  0.07171  0.08835  1.0000
  C   C554      1.0  0.80170  0.24892  0.36686  1.0000
  H   H445      1.0  0.85422  0.21801  0.43762  1.0000
  C   C555      1.0  0.82947  0.22284  0.47922  1.0000
  H   H446      1.0  0.68953  0.14721  0.01132  1.0000
  Fe  Fe37      1.0  0.96089  0.27359  0.29353  1.0000
  C   C556      1.0  0.49399  0.29719  0.29203  1.0000
  C   C557      1.0  0.94107  0.98574  0.03490  1.0000
  C   C558      1.0  0.95181  0.22220  0.48364  1.0000
  C   C559      1.0  0.94951  0.21617  0.45085  1.0000
  C   C560      1.0  0.96831  0.16364  0.02291  1.0000
  H   H447      1.0  0.95184  0.19934  0.44500  1.0000
  C   C561      1.0  0.58504  0.29933  0.32094  1.0000
  C   C562      1.0  0.52240  0.28832  0.27571  1.0000
  H   H448      1.0  0.95988  0.16665  0.23814  1.0000
  H   H449      1.0  0.62039  0.30034  0.33194  1.0000
  C   C563      1.0  0.97252  0.10754  0.00730  1.0000
  C   C564      1.0  0.51073  0.30721  0.32302  1.0000
  H   H450      1.0  0.83916  0.30450  0.34250  1.0000
  H   H451      1.0  0.84605  0.30338  0.45490  1.0000
  C   C565      1.0  0.85889  0.30230  0.48154  1.0000
  C   C566      1.0  0.85590  0.15406  0.99132  1.0000
  C   C567      1.0  0.92831  0.10456  0.98862  1.0000
  C   C568      1.0  0.80200  0.18993  0.98821  1.0000
  H   H452      1.0  0.97705  0.13220  0.21443  1.0000
  C   C569      1.0  0.55661  0.30824  0.33734  1.0000
  H   H453      1.0  0.49675  0.30783  0.46273  1.0000
  H   H454      1.0  0.78099  0.20382  0.98695  1.0000
  H   H455      1.0  0.85509  0.02697  0.98773  1.0000
  S   S74       1.0  0.49722  0.25441  0.82313  1.0000
  S   S75       1.0  0.52658  0.20626  0.77260  1.0000
  C   C570      1.0  0.53341  0.11421  0.76605  1.0000
  Fe  Fe38      1.0  0.93072  0.26843  0.64355  1.0000
  S   S76       1.0  0.90013  0.24213  0.60800  1.0000
  C   C571      1.0  0.49830  0.18848  0.87881  1.0000
  C   C572      1.0  0.49793  0.12775  0.80593  1.0000
  H   H456      1.0  0.70839  0.30112  0.60861  1.0000
  Fe  Fe39      1.0  0.79706  0.07666  0.81681  1.0000
  S   S77       1.0  0.76668  0.08984  0.85491  1.0000
  S   S78       1.0  0.80435  0.04076  0.80246  1.0000
  Fe  Fe40      1.0  0.83503  0.12186  0.80744  1.0000
  S   S79       1.0  0.80886  0.13697  0.84656  1.0000
  S   S80       1.0  0.88288  0.14263  0.78822  1.0000
  Fe  Fe41      1.0  0.83108  0.10709  0.87635  1.0000
  S   S81       1.0  0.85824  0.10582  0.93251  1.0000
  Fe  Fe42      1.0  0.74571  0.11928  0.82256  1.0000
  S   S82       1.0  0.68359  0.13770  0.82634  1.0000
  S   S83       1.0  0.86226  0.09320  0.83981  1.0000
  S   S84       1.0  0.77099  0.10485  0.78182  1.0000
  C   C573      1.0  0.91480  0.10819  0.95433  1.0000
  C   C574      1.0  0.81816  0.04268  0.90741  1.0000
  H   H457      1.0  0.71003  0.20328  0.80298  1.0000
  H   H458      1.0  0.60238  0.10628  0.78565  1.0000
  C   C575      1.0  0.77694  0.00489  0.83289  1.0000
  C   C576      1.0  0.79980  0.01249  0.81126  1.0000
  C   C577      1.0  0.81931  0.99707  0.79535  1.0000
  H   H459      1.0  0.76148  0.01629  0.84533  1.0000
  H   H460      1.0  0.83718  0.00250  0.77861  1.0000
  C   C578      1.0  0.89284  0.17966  0.69517  1.0000
  C   C579      1.0  0.85596  0.16648  0.69350  1.0000
  C   C580      1.0  0.85161  0.15547  0.72169  1.0000
  C   C581      1.0  0.88453  0.15717  0.75199  1.0000
  C   C582      1.0  0.92087  0.17071  0.75379  1.0000
  C   C583      1.0  0.92491  0.18196  0.72575  1.0000
  H   H461      1.0  0.82337  0.14523  0.71977  1.0000
  C   C584      1.0  0.49582  0.18075  0.90918  1.0000
  H   H462      1.0  0.54274  0.29111  0.76171  1.0000
  H   H463      1.0  0.85631  0.04354  0.87322  1.0000
  H   H464      1.0  0.50997  0.24576  0.72390  1.0000
  H   H465      1.0  0.86638  0.28084  0.76498  1.0000
  H   H466      1.0  0.94653  0.17228  0.77702  1.0000
  C   C585      1.0  0.77271  0.98244  0.83764  1.0000
  C   C586      1.0  0.57154  0.18801  0.78868  1.0000
  C   C587      1.0  0.58419  0.18094  0.82152  1.0000
  C   C588      1.0  0.61880  0.16590  0.83253  1.0000
  C   C589      1.0  0.64194  0.15780  0.81118  1.0000
  C   C590      1.0  0.63012  0.16536  0.77856  1.0000
  C   C591      1.0  0.59514  0.18022  0.76743  1.0000
  H   H467      1.0  0.56731  0.18698  0.83851  1.0000
  H   H468      1.0  0.62754  0.16035  0.85784  1.0000
  H   H469      1.0  0.64707  0.15931  0.76161  1.0000
  H   H470      1.0  0.58598  0.18553  0.74200  1.0000
  C   C592      1.0  0.92259  0.03922  0.84322  1.0000
  H   H471      1.0  0.58077  0.23069  0.72497  1.0000
  H   H472      1.0  0.82520  0.20983  0.89793  1.0000
  C   C593      1.0  0.86764  0.28234  0.53207  1.0000
  C   C594      1.0  0.48494  0.17552  0.85056  1.0000
  H   H473      1.0  0.54023  0.12932  0.85650  1.0000
  C   C595      1.0  0.94909  0.24387  0.49192  1.0000
  H   H474      1.0  0.81705  0.25949  0.78872  1.0000
  C   C596      1.0  0.87623  0.25527  0.73362  1.0000
  C   C597      1.0  0.92423  0.05230  0.81676  1.0000
  C   C598      1.0  0.65331  0.25837  0.67664  1.0000
  P   P20       1.0  0.68755  0.27187  0.65526  1.0000
  C   C599      1.0  0.71238  0.29407  0.68186  1.0000
  C   C600      1.0  0.72825  0.25449  0.64603  1.0000
  H   H475      1.0  0.90155  0.02510  0.83821  1.0000
  C   C601      1.0  0.77134  0.26186  0.64978  1.0000
  H   H476      1.0  0.75405  0.97700  0.85381  1.0000
  H   H477      1.0  0.55085  0.28122  0.56238  1.0000
  C   C602      1.0  0.95009  0.07092  0.82246  1.0000
  C   C603      1.0  0.97558  0.99292  0.88026  1.0000
  C   C604      1.0  0.75129  0.29115  0.70779  1.0000
  C   C605      1.0  0.53761  0.12501  0.83118  1.0000
  C   C606      1.0  0.81757  0.03815  0.93963  1.0000
  S   S85       1.0  0.89755  0.19230  0.65823  1.0000
  H   H478      1.0  0.61005  0.28576  0.67379  1.0000
  H   H479      1.0  0.90474  0.29773  0.57700  1.0000
  H   H480      1.0  0.68284  0.22808  0.62829  1.0000
  Fe  Fe43      1.0  0.94075  0.21954  0.64696  1.0000
  H   H481      1.0  0.86253  0.26779  0.54450  1.0000
  C   C607      1.0  0.82319  0.15881  0.96202  1.0000
  H   H482      1.0  0.87903  0.99208  0.90045  1.0000
  H   H483      1.0  0.59722  0.30651  0.73580  1.0000
  H   H484      1.0  0.76786  0.27576  0.71141  1.0000
  C   C608      1.0  0.71649  0.23370  0.63336  1.0000
  C   C609      1.0  0.89508  0.03222  0.92141  1.0000
  H   H485      1.0  0.64504  0.21162  0.71673  1.0000
  H   H486      1.0  0.77084  0.18032  0.93762  1.0000
  C   C610      1.0  0.58542  0.28528  0.57239  1.0000
  C   C611      1.0  0.79166  0.22702  0.63313  1.0000
  C   C612      1.0  0.74827  0.21992  0.62742  1.0000
  H   H487      1.0  0.47976  0.15370  0.93519  1.0000
  C   C613      1.0  0.61749  0.26936  0.68230  1.0000
  H   H488      1.0  0.48750  0.18182  0.82736  1.0000
  C   C614      1.0  0.57293  0.11183  0.79126  1.0000
  Fe  Fe44      1.0  0.95890  0.24428  0.58806  1.0000
  H   H489      1.0  0.78769  0.04072  0.94660  1.0000
  H   H490      1.0  0.56388  0.26808  0.70382  1.0000
  C   C615      1.0  0.85160  0.28370  0.49766  1.0000
  H   H491      1.0  0.74332  0.25886  0.75406  1.0000
  H   H492      1.0  0.59489  0.26482  0.61457  1.0000
  C   C616      1.0  0.94668  0.04470  0.87575  1.0000
  H   H493      1.0  0.79612  0.22848  0.51612  1.0000
  C   C617      1.0  0.89407  0.02732  0.95363  1.0000
  H   H494      1.0  0.50992  0.20473  0.87704  1.0000
  C   C618      1.0  0.59115  0.25936  0.69935  1.0000
  H   H495      1.0  0.62935  0.25975  0.78886  1.0000
  H   H496      1.0  0.64449  0.22224  0.80869  1.0000
  H   H497      1.0  0.73942  0.20374  0.61831  1.0000
  C   C619      1.0  0.73058  0.17609  0.69557  1.0000
  C   C620      1.0  0.72030  0.15742  0.71013  1.0000
  C   C621      1.0  0.72869  0.15641  0.74440  1.0000
  C   C622      1.0  0.74838  0.17378  0.76427  1.0000
  C   C623      1.0  0.75940  0.19252  0.74991  1.0000
  C   C624      1.0  0.74931  0.19372  0.71531  1.0000
  P   P21       1.0  0.78108  0.21564  0.77550  1.0000
  C   C625      1.0  0.81416  0.20618  0.81531  1.0000
  C   C626      1.0  0.81870  0.23111  0.75929  1.0000
  C   C627      1.0  0.82991  0.25232  0.77007  1.0000
  C   C628      1.0  0.86753  0.23378  0.72438  1.0000
  C   C629      1.0  0.83965  0.22162  0.73762  1.0000
  C   C630      1.0  0.84802  0.19143  0.81674  1.0000
  C   C631      1.0  0.87306  0.18315  0.84710  1.0000
  C   C632      1.0  0.86462  0.18964  0.87633  1.0000
  C   C633      1.0  0.83167  0.20478  0.87525  1.0000
  C   C634      1.0  0.80667  0.21316  0.84487  1.0000
  C   C635      1.0  0.73319  0.23001  0.77950  1.0000
  C   C636      1.0  0.70408  0.21967  0.79413  1.0000
  C   C637      1.0  0.66691  0.23040  0.79756  1.0000
  C   C638      1.0  0.65835  0.25151  0.78636  1.0000
  C   C639      1.0  0.68640  0.26173  0.77099  1.0000
  C   C640      1.0  0.72334  0.25094  0.76719  1.0000
  H   H498      1.0  0.72427  0.17683  0.66900  1.0000
  H   H499      1.0  0.70585  0.14371  0.69492  1.0000
  H   H500      1.0  0.71975  0.14217  0.75569  1.0000
  H   H501      1.0  0.75464  0.17252  0.79081  1.0000
  H   H502      1.0  0.75656  0.20810  0.70352  1.0000
  C   C641      1.0  0.63685  0.22758  0.70649  1.0000
  H   H503      1.0  0.88280  0.22645  0.70712  1.0000
  H   H504      1.0  0.83513  0.20475  0.73107  1.0000
  H   H505      1.0  0.85454  0.18601  0.79425  1.0000
  H   H506      1.0  0.78150  0.22492  0.84465  1.0000
  C   C642      1.0  0.90625  0.98666  0.89198  1.0000
  C   C643      1.0  0.60056  0.23838  0.71117  1.0000
  C   C644      1.0  0.85814  0.26441  0.75696  1.0000
  H   H507      1.0  0.67890  0.27787  0.76132  1.0000
  C   C645      1.0  0.57486  0.11701  0.82381  1.0000
  H   H508      1.0  0.50539  0.19109  0.93081  1.0000
  C   C646      1.0  0.53319  0.30404  0.74399  1.0000
  H   H509      1.0  0.89823  0.17123  0.84769  1.0000
  H   H510      1.0  0.69243  0.22935  0.68785  1.0000
  H   H511      1.0  0.88335  0.18275  0.89971  1.0000
  H   H512      1.0  0.81646  0.21634  0.62879  1.0000
  H   H513      1.0  0.89774  0.26467  0.72313  1.0000
  C   C647      1.0  0.85676  0.03985  0.89832  1.0000
  H   H514      1.0  0.86148  0.22052  0.49718  1.0000
  H   H515      1.0  0.90423  0.04830  0.79193  1.0000
  H   H516      1.0  0.81862  0.14840  0.94059  1.0000
  C   C648      1.0  0.80299  0.24807  0.64388  1.0000
  S   S86       1.0  0.88895  0.29394  0.66085  1.0000
  C   C649      1.0  0.66351  0.23765  0.68976  1.0000
  H   H517      1.0  0.95345  0.19198  0.72763  1.0000
  H   H518      1.0  0.47810  0.16713  0.77015  1.0000
  S   S87       1.0  0.95262  0.25255  0.53318  1.0000
  P   P22       1.0  0.94449  0.02733  0.90953  1.0000
  H   H519      1.0  0.83084  0.16453  0.67009  1.0000
  C   C650      1.0  0.61045  0.27621  0.60222  1.0000
  C   C651      1.0  0.67419  0.29645  0.59856  1.0000
  H   H520      1.0  0.78872  0.04848  0.88936  1.0000
  H   H521      1.0  0.78082  0.27827  0.65708  1.0000
  H   H522      1.0  0.93608  0.11719  0.91228  1.0000
  C   C652      1.0  0.48099  0.15979  0.91149  1.0000
  H   H523      1.0  0.83643  0.25375  0.64763  1.0000
  H   H524      1.0  0.96547  0.06244  0.95775  1.0000
  C   C653      1.0  0.60471  0.29994  0.55572  1.0000
  H   H525      1.0  0.60585  0.11546  0.84316  1.0000
  C   C654      1.0  0.79268  0.22743  0.48987  1.0000
  C   C655      1.0  0.49592  0.12200  0.77334  1.0000
  H   H526      1.0  0.88322  0.98167  0.97513  1.0000
  H   H527      1.0  0.92305  0.02109  0.97173  1.0000
  C   C656      1.0  0.65486  0.28213  0.61585  1.0000
  C   C657      1.0  0.94611  0.11442  0.93869  1.0000
  C   C658      1.0  0.79628  0.17676  0.96040  1.0000
  H   H528      1.0  0.79982  0.30602  0.74864  1.0000
  S   S88       1.0  0.97004  0.24595  0.68316  1.0000
  H   H529      1.0  0.95035  0.08134  0.80199  1.0000
  C   C659      1.0  0.97238  0.06354  0.88131  1.0000
  C   C660      1.0  0.94263  0.00008  0.89391  1.0000
  C   C661      1.0  0.85551  0.03044  0.96274  1.0000
  H   H530      1.0  0.53208  0.11023  0.74081  1.0000
  H   H531      1.0  0.49672  0.20879  0.70112  1.0000
  H   H532      1.0  0.83453  0.29939  0.59154  1.0000
  C   C662      1.0  0.97407  0.07655  0.85472  1.0000
  H   H533      1.0  0.81421  0.98162  0.92953  1.0000
  H   H534      1.0  0.49099  0.27893  0.63207  1.0000
  H   H535      1.0  0.95600  0.21005  0.50257  1.0000
  C   C663      1.0  0.64923  0.30532  0.56863  1.0000
  C   C664      1.0  0.89208  0.29929  0.55040  1.0000
  C   C665      1.0  0.48605  0.24299  0.70005  1.0000
  C   C666      1.0  0.47806  0.22212  0.68747  1.0000
  H   H536      1.0  0.53955  0.30724  0.62124  1.0000
  H   H537      1.0  0.58501  0.30747  0.53314  1.0000
  C   C667      1.0  0.47838  0.29510  0.62704  1.0000
  C   C668      1.0  0.76937  0.30820  0.72910  1.0000
  C   C669      1.0  0.54740  0.34641  0.43006  1.0000
  H   H538      1.0  0.52520  0.62725  0.23791  1.0000
  H   H539      1.0  0.53814  0.35154  0.37830  1.0000
  H   H540      1.0  0.47839  0.59102  0.40588  1.0000
  P   P23       1.0  0.50957  0.62746  0.16562  1.0000
  H   H541      1.0  0.51166  0.44644  0.21028  1.0000
  C   C670      1.0  0.95750  0.31287  0.36548  1.0000
  H   H542      1.0  0.48260  0.58181  0.16392  1.0000
  H   H543      1.0  0.58496  0.61892  0.14071  1.0000
  C   C671      1.0  0.94568  0.31955  0.41864  1.0000
  C   C672      1.0  0.73955  0.64181  0.46559  1.0000
  C   C673      1.0  0.50646  0.31693  0.44415  1.0000
  C   C674      1.0  0.49978  0.32436  0.38642  1.0000
  H   H544      1.0  0.59862  0.61880  0.20986  1.0000
  C   C675      1.0  0.49168  0.62212  0.22620  1.0000
  H   H545      1.0  0.49489  0.63685  0.44242  1.0000
  C   C676      1.0  0.52891  0.56411  0.14607  1.0000
  C   C677      1.0  0.52963  0.34152  0.39648  1.0000
  C   C678      1.0  0.59434  0.63605  0.20733  1.0000
  H   H546      1.0  0.92521  0.32562  0.43317  1.0000
  H   H547      1.0  0.61522  0.58554  0.12434  1.0000
  H   H548      1.0  0.51326  0.54876  0.14735  1.0000
  C   C679      1.0  0.48543  0.63823  0.09825  1.0000
  C   C680      1.0  0.56917  0.60369  0.14251  1.0000
  H   H549      1.0  0.73385  0.62774  0.44972  1.0000
  H   H550      1.0  0.56936  0.36005  0.43770  1.0000
  H   H551      1.0  0.57955  0.55042  0.12757  1.0000
  C   C681      1.0  0.58636  0.58483  0.13313  1.0000
  H   H552      1.0  0.51234  0.51639  0.47035  1.0000
  H   H553      1.0  0.57063  0.31599  0.36099  1.0000
  C   C682      1.0  0.56626  0.56504  0.13492  1.0000
  H   H554      1.0  0.94644  0.31396  0.33872  1.0000
  C   C683      1.0  0.53168  0.60291  0.15383  1.0000
  H   H555      1.0  0.51054  0.62725  0.09561  1.0000
  C   C684      1.0  0.53573  0.33416  0.45387  1.0000
  C   C685      1.0  0.51161  0.58296  0.15547  1.0000
  C   C686      1.0  0.93149  0.32113  0.38420  1.0000
  H   H556      1.0  0.54858  0.33836  0.47985  1.0000
  C   C687      1.0  0.48732  0.45330  0.22080  1.0000
  C   C688      1.0  0.49924  0.45925  0.25415  1.0000
  C   C689      1.0  0.48853  0.31199  0.41057  1.0000
  H   H557      1.0  0.90034  0.32870  0.37190  1.0000
  H   H558      1.0  0.53284  0.45699  0.26949  1.0000
  Fe  Fe45      1.0  0.59669  0.36398  0.64819  1.0000
  S   S89       1.0  0.60605  0.34564  0.60505  1.0000
  S   S90       1.0  0.59457  0.34160  0.69119  1.0000
  Fe  Fe46      1.0  0.60634  0.40798  0.61520  1.0000
  S   S91       1.0  0.61667  0.39132  0.57024  1.0000
  S   S92       1.0  0.59353  0.44496  0.61730  1.0000
  Fe  Fe47      1.0  0.56085  0.36960  0.57247  1.0000
  H   H559      1.0  0.72076  0.42683  0.64704  1.0000
  Fe  Fe48      1.0  0.66156  0.36815  0.60617  1.0000
  S   S93       1.0  0.72119  0.35339  0.59290  1.0000
  S   S94       1.0  0.54783  0.38680  0.61560  1.0000
  S   S95       1.0  0.65497  0.38604  0.65123  1.0000
  Fe  Fe49      1.0  0.62458  0.58096  0.62428  1.0000
  S   S96       1.0  0.61553  0.59909  0.57634  1.0000
  S   S97       1.0  0.65096  0.54569  0.62825  1.0000
  Fe  Fe50      1.0  0.59548  0.62148  0.65726  1.0000
  C   C690      1.0  0.51245  0.52609  0.49168  1.0000
  C   C691      1.0  0.73934  0.46782  0.71920  1.0000
  Fe  Fe51      1.0  0.55205  0.61082  0.58396  1.0000
  H   H560      1.0  0.58382  0.54447  0.56340  1.0000
  Fe  Fe52      1.0  0.64826  0.62779  0.60751  1.0000
  H   H561      1.0  0.77735  0.43507  0.83097  1.0000
  S   S98       1.0  0.56008  0.59196  0.63104  1.0000
  S   S99       1.0  0.66173  0.60906  0.65490  1.0000
  H   H562      1.0  0.57615  0.45145  0.68065  1.0000
  C   C692      1.0  0.58403  0.43692  0.69529  1.0000
  C   C693      1.0  0.72602  0.44529  0.78798  1.0000
  H   H563      1.0  0.69206  0.34634  0.69698  1.0000
  H   H564      1.0  0.87874  0.39553  0.62473  1.0000
  C   C694      1.0  0.69622  0.47057  0.83187  1.0000
  H   H565      1.0  0.91884  0.33007  0.62344  1.0000
  H   H566      1.0  0.56546  0.53733  0.70189  1.0000
  C   C695      1.0  0.82129  0.32194  0.66121  1.0000
  C   C696      1.0  0.76541  0.33559  0.61266  1.0000
  C   C697      1.0  0.78390  0.33489  0.64702  1.0000
  C   C698      1.0  0.82094  0.30930  0.60715  1.0000
  H   H567      1.0  0.66416  0.31696  0.55608  1.0000
  H   H568      1.0  0.68468  0.48039  0.84888  1.0000
  H   H569      1.0  0.83577  0.32199  0.68775  1.0000
  P   P24       1.0  0.65987  0.45833  0.73203  1.0000
  C   C699      1.0  0.60986  0.47297  0.61955  1.0000
  C   C700      1.0  0.65306  0.47954  0.62214  1.0000
  C   C701      1.0  0.66466  0.50166  0.62466  1.0000
  C   C702      1.0  0.63329  0.51787  0.62390  1.0000
  C   C703      1.0  0.58982  0.51137  0.62066  1.0000
  C   C704      1.0  0.57842  0.48918  0.61882  1.0000
  H   H570      1.0  0.67767  0.46759  0.62211  1.0000
  H   H571      1.0  0.69835  0.50626  0.62705  1.0000
  H   H572      1.0  0.56508  0.52342  0.62016  1.0000
  H   H573      1.0  0.54485  0.48456  0.61676  1.0000
  C   C705      1.0  0.55282  0.33009  0.70677  1.0000
  C   C706      1.0  0.50985  0.33817  0.69883  1.0000
  C   C707      1.0  0.62432  0.52018  0.70197  1.0000
  H   H574      1.0  0.50046  0.35138  0.68166  1.0000
  C   C708      1.0  0.51471  0.55205  0.54621  1.0000
  C   C709      1.0  0.88253  0.31946  0.49984  1.0000
  H   H575      1.0  0.54600  0.38573  0.69575  1.0000
  H   H576      1.0  0.52735  0.42008  0.66485  1.0000
  H   H577      1.0  0.66268  0.41456  0.75956  1.0000
  H   H578      1.0  0.63797  0.53353  0.69167  1.0000
  H   H579      1.0  0.61368  0.38308  0.74265  1.0000
  H   H580      1.0  0.74478  0.47941  0.73918  1.0000
  C   C710      1.0  0.74823  0.32814  0.72510  1.0000
  C   C711      1.0  0.63283  0.41620  0.73935  1.0000
  H   H581      1.0  0.79926  0.39112  0.59468  1.0000
  H   H582      1.0  0.73790  0.43531  0.77133  1.0000
  C   C712      1.0  0.48242  0.38836  0.48794  1.0000
  C   C713      1.0  0.49000  0.33178  0.61254  1.0000
  S   S100      1.0  0.48280  0.60732  0.54787  1.0000
  S   S101      1.0  0.50754  0.35364  0.53057  1.0000
  H   H583      1.0  0.66025  0.31662  0.65930  1.0000
  C   C714      1.0  0.72633  0.43811  0.66746  1.0000
  C   C715      1.0  0.62965  0.48329  0.72168  1.0000
  C   C716      1.0  0.90017  0.37243  0.59454  1.0000
  H   H584      1.0  0.67816  0.49943  0.70284  1.0000
  H   H585      1.0  0.66422  0.43132  0.67571  1.0000
  C   C717      1.0  0.50589  0.31097  0.62043  1.0000
  H   H586      1.0  0.93462  0.37421  0.60827  1.0000
  C   C718      1.0  0.69418  0.44070  0.68383  1.0000
  P   P25       1.0  0.92772  0.34073  0.55806  1.0000
  C   C719      1.0  0.70043  0.45556  0.70983  1.0000
  H   H587      1.0  0.51589  0.56256  0.56697  1.0000
  C   C720      1.0  0.81083  0.36796  0.56030  1.0000
  H   H588      1.0  0.53348  0.50666  0.72472  1.0000
  H   H589      1.0  0.77603  0.36589  0.54766  1.0000
  C   C721      1.0  0.90003  0.31792  0.53439  1.0000
  C   C722      1.0  0.70897  0.33101  0.69986  1.0000
  C   C723      1.0  0.86865  0.38459  0.60390  1.0000
  H   H590      1.0  0.78918  0.44879  0.66349  1.0000
  H   H591      1.0  0.80080  0.47519  0.70944  1.0000
  C   C724      1.0  0.77123  0.46540  0.70251  1.0000
  C   C725      1.0  0.84216  0.35564  0.55102  1.0000
  H   H592      1.0  0.83083  0.34424  0.53098  1.0000
  C   C726      1.0  0.88712  0.35764  0.56826  1.0000
  C   C727      1.0  0.78412  0.32256  0.59293  1.0000
  H   H593      1.0  0.88680  0.33399  0.48704  1.0000
  H   H594      1.0  0.77031  0.34486  0.66261  1.0000
  C   C728      1.0  0.76474  0.45053  0.67666  1.0000
  C   C729      1.0  0.82397  0.38223  0.58692  1.0000
  H   H595      1.0  0.76212  0.34138  0.74156  1.0000
  C   C730      1.0  0.55310  0.54199  0.54407  1.0000
  C   C731      1.0  0.68847  0.45820  0.77581  1.0000
  H   H596      1.0  0.97238  0.31939  0.67578  1.0000
  C   C732      1.0  0.69107  0.31407  0.67834  1.0000
  C   C733      1.0  0.64720  0.50071  0.70854  1.0000
  H   H597      1.0  0.57424  0.47245  0.73774  1.0000
  C   C734      1.0  0.73356  0.45771  0.84373  1.0000
  C   C735      1.0  0.49123  0.62331  0.48856  1.0000
  H   H598      1.0  0.58202  0.52143  0.51517  1.0000
  C   C736      1.0  0.62220  0.43576  0.72230  1.0000
  S   S102      1.0  0.58311  0.64091  0.61083  1.0000
  H   H599      1.0  0.77014  0.32280  0.56635  1.0000
  H   H600      1.0  0.75094  0.45754  0.86992  1.0000
  C   C737      1.0  0.58335  0.52230  0.70768  1.0000
  C   C738      1.0  0.74843  0.44507  0.82178  1.0000
  C   C739      1.0  0.55202  0.52905  0.51680  1.0000
  C   C740      1.0  0.67370  0.47083  0.79807  1.0000
  C   C741      1.0  0.56407  0.31284  0.72925  1.0000
  C   C742      1.0  0.56692  0.39974  0.70334  1.0000
  H   H601      1.0  0.64494  0.48093  0.78956  1.0000
  C   C743      1.0  0.58849  0.48562  0.72760  1.0000
  H   H602      1.0  0.51098  0.34390  0.60665  1.0000
  C   C744      1.0  0.56539  0.50502  0.72046  1.0000
  C   C745      1.0  0.55634  0.41906  0.68608  1.0000
  S   S103      1.0  0.59224  0.63702  0.70614  1.0000
  C   C746      1.0  0.60519  0.39829  0.72989  1.0000
  H   H603      1.0  0.50848  0.39734  0.50514  1.0000
  H   H604      1.0  0.52430  0.62813  0.50227  1.0000
  H   H605      1.0  0.97731  0.40623  0.51245  1.0000
  C   C747      1.0  0.95322  0.32843  0.62441  1.0000
  C   C748      1.0  0.95648  0.35521  0.53352  1.0000
  H   H606      1.0  0.93817  0.38695  0.54627  1.0000
  C   C749      1.0  0.95581  0.37778  0.53243  1.0000
  C   C750      1.0  0.49072  0.31269  0.73703  1.0000
  H   H607      1.0  0.76665  0.63982  0.65162  1.0000
  C   C751      1.0  0.84042  0.30919  0.64142  1.0000
  C   C752      1.0  0.47923  0.32964  0.71404  1.0000
  C   C753      1.0  0.96704  0.33192  0.59612  1.0000
  H   H608      1.0  0.68646  0.63445  0.48630  1.0000
  C   C754      1.0  0.79766  0.76033  0.39169  1.0000
  C   C755      1.0  0.66860  0.68073  0.41362  1.0000
  C   C756      1.0  0.89079  0.67058  0.42327  1.0000
  C   C757      1.0  0.88581  0.68829  0.40223  1.0000
  Fe  Fe53      1.0  0.51971  0.75034  0.16003  1.0000
  S   S104      1.0  0.59004  0.76290  0.18676  1.0000
  S   S105      1.0  0.50874  0.71644  0.14125  1.0000
  Fe  Fe54      1.0  0.85524  0.72909  0.27125  1.0000
  S   S106      1.0  0.87943  0.76185  0.29083  1.0000
  S   S107      1.0  0.78301  0.71970  0.24220  1.0000
  H   H609      1.0  0.75205  0.71639  0.46515  1.0000
  Fe  Fe55      1.0  0.92210  0.74474  0.33646  1.0000
  S   S108      1.0  0.91886  0.75769  0.38717  1.0000
  C   C758      1.0  0.73741  0.80662  0.99670  1.0000
  S   S109      1.0  0.89555  0.71200  0.31759  1.0000
  S   S110      1.0  0.90986  0.72476  0.24753  1.0000
  H   H610      1.0  0.74403  0.77256  0.17396  1.0000
  H   H611      1.0  0.58135  0.71786  0.01537  1.0000
  H   H612      1.0  0.87585  0.89267  0.05579  1.0000
  S   S111      1.0  0.94617  0.77915  0.22801  1.0000
  H   H613      1.0  0.81824  0.65677  0.36304  1.0000
  C   C759      1.0  0.64360  0.75058  0.20132  1.0000
  C   C760      1.0  0.65159  0.72923  0.19410  1.0000
  C   C761      1.0  0.69425  0.72021  0.20660  1.0000
  C   C762      1.0  0.73000  0.73236  0.22632  1.0000
  C   C763      1.0  0.72214  0.75381  0.23313  1.0000
  C   C764      1.0  0.67942  0.76278  0.22077  1.0000
  H   H614      1.0  0.62499  0.71974  0.17855  1.0000
  H   H615      1.0  0.69971  0.70371  0.20073  1.0000
  H   H616      1.0  0.74898  0.76352  0.24802  1.0000
  H   H617      1.0  0.67407  0.77935  0.22645  1.0000
  H   H618      1.0  0.72197  0.79920  0.07242  1.0000
  H   H619      1.0  0.75941  0.67462  0.26172  1.0000
  C   C765      1.0  0.86331  0.70649  0.40794  1.0000
  P   P26       1.0  0.94839  0.94709  0.00327  1.0000
  C   C766      1.0  0.69904  0.75915  0.12982  1.0000
  C   C767      1.0  0.60972  0.72450  0.00962  1.0000
  H   H620      1.0  0.83480  0.78227  0.37070  1.0000
  C   C768      1.0  0.67203  0.80981  0.02886  1.0000
  C   C769      1.0  0.57547  0.68019  0.11007  1.0000
  H   H621      1.0  0.72471  0.71869  0.08405  1.0000
  H   H622      1.0  0.55171  0.78853  0.12226  1.0000
  C   C770      1.0  0.96945  0.92010  0.09466  1.0000
  H   H623      1.0  0.86045  0.72042  0.39202  1.0000
  C   C771      1.0  0.54939  0.66717  0.18614  1.0000
  H   H624      1.0  0.51422  0.75184  0.28968  1.0000
  H   H625      1.0  0.65079  0.68250  0.23432  1.0000
  H   H626      1.0  0.96245  0.74743  0.17121  1.0000
  H   H627      1.0  0.79682  0.72271  0.12640  1.0000
  C   C772      1.0  0.62015  0.68461  0.12444  1.0000
  H   H628      1.0  0.77996  0.79638  0.04390  1.0000
  C   C773      1.0  0.93439  0.74977  0.42985  1.0000
  H   H629      1.0  0.81185  0.65216  0.30352  1.0000
  C   C774      1.0  0.84636  0.70716  0.43499  1.0000
  H   H630      1.0  0.81390  0.76533  0.41689  1.0000
  C   C775      1.0  0.79421  0.66603  0.34473  1.0000
  H   H631      1.0  0.90901  0.65665  0.41915  1.0000
  C   C776      1.0  0.90280  0.90402  0.05938  1.0000
  C   C777      1.0  0.73419  0.69087  0.29743  1.0000
  C   C778      1.0  0.73715  0.69341  0.33103  1.0000
  C   C779      1.0  0.76820  0.68127  0.35470  1.0000
  P   P27       1.0  0.70752  0.71484  0.34389  1.0000
  C   C780      1.0  0.74598  0.73703  0.35264  1.0000
  C   C781      1.0  0.65800  0.72052  0.31088  1.0000
  C   C782      1.0  0.64928  0.74118  0.29717  1.0000
  C   C783      1.0  0.61079  0.74504  0.27150  1.0000
  C   C784      1.0  0.58047  0.72848  0.25966  1.0000
  C   C785      1.0  0.58825  0.70805  0.27378  1.0000
  C   C786      1.0  0.62699  0.70402  0.29916  1.0000
  C   C787      1.0  0.76604  0.74392  0.38527  1.0000
  C   C788      1.0  0.80958  0.76987  0.36566  1.0000
  H   H632      1.0  0.87834  0.65742  0.46665  1.0000
  C   C789      1.0  0.58405  0.68066  0.20281  1.0000
  C   C790      1.0  0.75938  0.74621  0.32680  1.0000
  C   C791      1.0  0.68847  0.70765  0.37883  1.0000
  C   C792      1.0  0.68459  0.68602  0.38707  1.0000
  H   H633      1.0  0.80633  0.74932  0.17174  1.0000
  C   C793      1.0  0.65831  0.71847  0.42318  1.0000
  C   C794      1.0  0.67406  0.72381  0.39652  1.0000
  C   C795      1.0  0.68026  0.74271  0.99195  1.0000
  H   H634      1.0  0.52628  0.81086  0.07169  1.0000
  C   C796      1.0  0.90635  0.91665  0.03291  1.0000
  H   H635      1.0  0.71301  0.70115  0.27886  1.0000
  H   H636      1.0  0.77313  0.68394  0.38086  1.0000
  H   H637      1.0  0.67194  0.75437  0.30595  1.0000
  H   H638      1.0  0.60473  0.76086  0.26032  1.0000
  H   H639      1.0  0.55105  0.73150  0.23941  1.0000
  H   H640      1.0  0.56431  0.69531  0.26472  1.0000
  H   H641      1.0  0.63277  0.68804  0.30965  1.0000
  H   H642      1.0  0.75850  0.73633  0.40591  1.0000
  C   C797      1.0  0.76066  0.67584  0.28759  1.0000
  H   H643      1.0  0.63962  0.67448  0.14410  1.0000
  H   H644      1.0  0.74622  0.74039  0.30166  1.0000
  H   H645      1.0  0.64742  0.73100  0.43686  1.0000
  H   H646      1.0  0.67479  0.74054  0.38957  1.0000
  C   C798      1.0  0.97223  0.86569  0.01561  1.0000
  C   C799      1.0  0.66224  0.81489  0.99527  1.0000
  C   C800      1.0  0.58873  0.77456  0.04491  1.0000
  C   C801      1.0  0.58778  0.76646  0.10070  1.0000
  C   C802      1.0  0.60257  0.76164  0.07334  1.0000
  Fe  Fe56      1.0  0.95268  0.71093  0.29532  1.0000
  P   P28       1.0  0.63910  0.73909  0.07522  1.0000
  C   C803      1.0  0.64365  0.73486  0.03390  1.0000
  H   H647      1.0  0.54857  0.72229  0.05731  1.0000
  H   H648      1.0  0.56025  0.66664  0.11847  1.0000
  H   H649      1.0  0.67418  0.70544  0.12578  1.0000
  C   C804      1.0  0.69298  0.74389  0.10424  1.0000
  H   H650      1.0  0.90005  0.68814  0.38181  1.0000
  H   H651      1.0  0.93211  0.89561  0.11053  1.0000
  H   H652      1.0  0.57958  0.69795  0.20152  1.0000
  C   C805      1.0  0.93443  0.90566  0.09020  1.0000
  C   C806      1.0  0.62403  0.67192  0.22149  1.0000
  C   C807      1.0  0.87331  0.67107  0.45009  1.0000
  C   C808      1.0  0.67861  0.74426  0.02460  1.0000
  C   C809      1.0  0.96051  0.73170  0.44168  1.0000
  C   C810      1.0  0.76957  0.73303  0.12704  1.0000
  C   C811      1.0  0.63968  0.70231  0.11383  1.0000
  C   C812      1.0  0.56151  0.78451  0.10043  1.0000
  C   C813      1.0  0.96773  0.97310  0.02089  1.0000
  H   H653      1.0  0.95035  0.80178  0.17008  1.0000
  H   H654      1.0  0.64343  0.69275  0.45242  1.0000
  H   H655      1.0  0.59726  0.75643  0.12252  1.0000
  C   C814      1.0  0.71436  0.80306  0.04635  1.0000
  C   C815      1.0  0.72875  0.73091  0.10301  1.0000
  H   H656      1.0  0.54952  0.80171  0.02201  1.0000
  C   C816      1.0  0.97316  0.93271  0.06829  1.0000
  C   C817      1.0  0.79050  0.76279  0.33326  1.0000
  H   H657      1.0  0.88170  0.91480  0.00928  1.0000
  C   C818      1.0  0.73988  0.76118  0.15379  1.0000
  C   C819      1.0  0.77505  0.74806  0.15256  1.0000
  C   C820      1.0  0.61449  0.71588  0.08885  1.0000
  H   H658      1.0  0.70418  0.75320  0.04233  1.0000
  H   H659      1.0  0.50028  0.74945  0.02819  1.0000
  H   H660      1.0  0.97177  0.72186  0.42463  1.0000
  H   H661      1.0  0.93961  0.71180  0.18680  1.0000
  C   C821      1.0  0.97399  0.71649  0.19491  1.0000
  C   C822      1.0  0.65590  0.69693  0.43189  1.0000
  H   H662      1.0  0.64687  0.81126  0.04143  1.0000
  H   H663      1.0  0.90018  0.77634  0.44405  1.0000
  C   C823      1.0  0.85077  0.68935  0.45610  1.0000
  H   H664      1.0  0.69305  0.67316  0.37274  1.0000
  Fe  Fe57      1.0  0.93581  0.75704  0.26880  1.0000
  C   C824      1.0  0.56089  0.79209  0.04421  1.0000
  H   H665      1.0  0.83122  0.72187  0.43979  1.0000
  H   H666      1.0  0.80062  0.76984  0.31320  1.0000
  H   H667      1.0  0.67239  0.76921  0.13212  1.0000
  C   C825      1.0  0.56930  0.71164  0.07539  1.0000
  C   C826      1.0  0.54760  0.79719  0.07207  1.0000
  C   C827      1.0  0.55012  0.69366  0.08547  1.0000
  C   C828      1.0  0.92017  0.76227  0.45270  1.0000
  H   H668      1.0  0.51861  0.67432  0.17221  1.0000
  C   C829      1.0  0.74700  0.80146  0.03027  1.0000
  H   H669      1.0  0.59879  0.77113  0.02307  1.0000
  C   C830      1.0  0.79055  0.66337  0.31119  1.0000
  H   H670      1.0  0.90337  0.87306  0.00697  1.0000
  C   C831      1.0  0.92864  0.86875  0.99565  1.0000
  C   C832      1.0  0.94180  0.93102  0.03712  1.0000
  H   H671      1.0  0.51516  0.69062  0.07481  1.0000
  H   H672      1.0  0.66542  0.66403  0.41979  1.0000
  C   C833      1.0  0.77651  0.72641  0.48200  1.0000
  H   H673      1.0  0.65998  0.64283  0.23876  1.0000
  H   H674      1.0  0.73517  0.75457  0.47253  1.0000
  C   C834      1.0  0.97277  0.72655  0.47577  1.0000
  C   C835      1.0  0.62912  0.64960  0.22391  1.0000
  C   C836      1.0  0.55438  0.64478  0.18782  1.0000
  C   C837      1.0  0.77443  0.65581  0.46628  1.0000
  H   H675      1.0  0.79531  0.65230  0.45080  1.0000
  C   C838      1.0  0.48205  0.74148  0.00557  1.0000
  C   C839      1.0  0.47858  0.75078  0.28232  1.0000
  C   C840      1.0  0.72869  0.67567  0.70879  1.0000
  C   C841      1.0  0.79704  0.81414  0.91208  1.0000
  S   S112      1.0  0.49936  0.74151  0.82156  1.0000
  Fe  Fe58      1.0  0.75354  0.85589  0.82496  1.0000
  S   S113      1.0  0.77692  0.87424  0.78679  1.0000
  S   S114      1.0  0.70339  0.82788  0.81868  1.0000
  Fe  Fe59      1.0  0.83705  0.86988  0.88132  1.0000
  S   S115      1.0  0.86613  0.88810  0.84697  1.0000
  S   S116      1.0  0.86163  0.86935  0.93760  1.0000
  Fe  Fe60      1.0  0.79745  0.90154  0.82521  1.0000
  S   S117      1.0  0.78503  0.93859  0.82808  1.0000
  Fe  Fe61      1.0  0.84423  0.85988  0.81136  1.0000
  S   S118      1.0  0.89100  0.83735  0.79378  1.0000
  S   S119      1.0  0.76916  0.88357  0.86106  1.0000
  S   S120      1.0  0.82011  0.84125  0.84808  1.0000
  Fe  Fe62      1.0  0.93369  0.71626  0.64536  1.0000
  S   S121      1.0  0.90776  0.74302  0.60946  1.0000
  S   S122      1.0  0.89254  0.68770  0.65538  1.0000
  H   H676      1.0  0.60428  0.81140  0.63594  1.0000
  S   S123      1.0  0.91650  0.79596  0.66150  1.0000
  C   C842      1.0  0.60145  0.77845  0.69979  1.0000
  C   C843      1.0  0.87404  0.68078  0.52742  1.0000
  C   C844      1.0  0.91730  0.86589  0.96121  1.0000
  C   C845      1.0  0.69455  0.69856  0.74063  1.0000
  C   C846      1.0  0.72375  0.71520  0.73922  1.0000
  H   H677      1.0  0.97021  0.84859  0.74505  1.0000
  C   C847      1.0  0.89203  0.82429  0.75622  1.0000
  C   C848      1.0  0.91765  0.80554  0.75802  1.0000
  C   C849      1.0  0.92391  0.79602  0.72926  1.0000
  C   C850      1.0  0.90525  0.80540  0.69824  1.0000
  C   C851      1.0  0.87859  0.82374  0.69637  1.0000
  C   C852      1.0  0.87169  0.83302  0.72504  1.0000
  H   H678      1.0  0.76333  0.80523  0.98493  1.0000
  H   H679      1.0  0.67384  0.66603  0.72597  1.0000
  H   H680      1.0  0.85219  0.84748  0.72314  1.0000
  C   C853      1.0  0.60610  0.74449  0.75065  1.0000
  C   C854      1.0  0.52606  0.75263  0.69664  1.0000
  Fe  Fe63      1.0  0.94829  0.76471  0.65040  1.0000
  H   H681      1.0  0.88188  0.72539  0.53321  1.0000
  C   C855      1.0  0.83980  0.75297  0.52403  1.0000
  C   C856      1.0  0.55631  0.80919  0.79925  1.0000
  C   C857      1.0  0.58990  0.79402  0.81054  1.0000
  C   C858      1.0  0.63456  0.80018  0.81688  1.0000
  C   C859      1.0  0.64649  0.82157  0.81244  1.0000
  C   C860      1.0  0.61297  0.83682  0.80191  1.0000
  C   C861      1.0  0.56829  0.83061  0.79513  1.0000
  H   H682      1.0  0.58145  0.77749  0.81388  1.0000
  H   H683      1.0  0.66004  0.78820  0.82483  1.0000
  H   H684      1.0  0.62138  0.85331  0.79826  1.0000
  H   H685      1.0  0.54272  0.84252  0.78647  1.0000
  C   C862      1.0  0.81188  0.76729  0.64331  1.0000
  H   H686      1.0  0.54662  0.72790  0.75269  1.0000
  C   C863      1.0  0.85646  0.71384  0.77385  1.0000
  C   C864      1.0  0.62577  0.81451  0.71944  1.0000
  H   H687      1.0  0.72007  0.76198  0.71474  1.0000
  H   H688      1.0  0.87489  0.95619  0.87528  1.0000
  C   C865      1.0  0.69491  0.81345  0.97891  1.0000
  C   C866      1.0  0.53265  0.67848  0.75521  1.0000
  C   C867      1.0  0.75504  0.67759  0.50756  1.0000
  H   H689      1.0  0.63126  0.83718  0.68246  1.0000
  C   C868      1.0  0.67749  0.85625  0.89716  1.0000
  C   C869      1.0  0.80754  0.68842  0.61053  1.0000
  H   H690      1.0  0.86399  0.83118  0.67260  1.0000
  C   C870      1.0  0.83655  0.67892  0.63844  1.0000
  C   C871      1.0  0.62271  0.82085  0.68719  1.0000
  C   C872      1.0  0.59646  0.78527  0.66725  1.0000
  H   H691      1.0  0.57023  0.70495  0.70131  1.0000
  H   H692      1.0  0.58352  0.77438  0.64664  1.0000
  C   C873      1.0  0.74280  0.78769  0.74962  1.0000
  C   C874      1.0  0.84943  0.73136  0.52017  1.0000
  H   H693      1.0  0.72220  0.73001  0.75212  1.0000
  H   H694      1.0  0.86469  0.76329  0.54001  1.0000
  H   H695      1.0  0.79146  0.77811  0.50998  1.0000
  H   H696      1.0  0.71157  0.79606  0.74283  1.0000
  S   S124      1.0  0.97158  0.73805  0.68713  1.0000
  C   C875      1.0  0.62049  0.78595  0.92541  1.0000
  H   H697      1.0  0.57682  0.71709  0.81081  1.0000
  H   H698      1.0  0.74202  0.68798  0.57612  1.0000
  H   H699      1.0  0.64736  0.73127  0.94268  1.0000
  C   C876      1.0  0.58008  0.73250  0.76604  1.0000
  C   C877      1.0  0.60769  0.80629  0.66105  1.0000
  H   H700      1.0  0.90167  0.69678  0.81386  1.0000
  H   H701      1.0  0.81880  0.70180  0.59879  1.0000
  S   S125      1.0  0.48552  0.74017  0.90940  1.0000
  H   H702      1.0  0.78682  0.76085  0.59117  1.0000
  C   C878      1.0  0.89770  0.66292  0.58079  1.0000
  S   S126      1.0  0.49908  0.80233  0.78940  1.0000
  H   H703      1.0  0.85676  0.75971  0.77264  1.0000
  C   C879      1.0  0.81939  0.78635  0.78190  1.0000
  C   C880      1.0  0.59717  0.72624  0.79905  1.0000
  H   H704      1.0  0.66993  0.70089  0.75353  1.0000
  C   C881      1.0  0.76405  0.68043  0.59756  1.0000
  H   H705      1.0  0.82911  0.78177  0.63999  1.0000
  C   C882      1.0  0.78778  0.75557  0.61577  1.0000
  C   C883      1.0  0.87254  0.96690  0.96183  1.0000
  H   H706      1.0  0.63642  0.82592  0.73971  1.0000
  C   C884      1.0  0.49371  0.68448  0.73137  1.0000
  C   C885      1.0  0.59176  0.70930  0.68655  1.0000
  C   C886      1.0  0.61475  0.79349  0.72568  1.0000
  C   C887      1.0  0.50644  0.76865  0.71109  1.0000
  H   H707      1.0  0.83080  0.96326  0.78778  1.0000
  H   H708      1.0  0.83370  0.76953  0.69617  1.0000
  H   H709      1.0  0.64567  0.77740  0.94383  1.0000
  H   H710      1.0  0.59473  0.67677  0.66944  1.0000
  C   C888      1.0  0.60566  0.69323  0.66863  1.0000
  H   H711      1.0  0.51275  0.72572  0.66216  1.0000
  H   H712      1.0  0.61584  0.78925  0.75066  1.0000
  P   P29       1.0  0.58543  0.75145  0.70748  1.0000
  H   H713      1.0  0.68504  0.78394  0.88963  1.0000
  C   C889      1.0  0.63524  0.73549  0.66736  1.0000
  C   C890      1.0  0.91836  0.68472  0.52949  1.0000
  C   C891      1.0  0.67163  0.89263  0.91593  1.0000
  C   C892      1.0  0.55436  0.80765  0.87811  1.0000
  H   H714      1.0  0.53924  0.68439  0.78025  1.0000
  H   H715      1.0  0.70026  0.66609  0.52349  1.0000
  C   C893      1.0  0.61111  0.72329  0.97690  1.0000
  C   C894      1.0  0.90357  0.96626  0.87751  1.0000
  C   C895      1.0  0.69686  0.67885  0.72526  1.0000
  C   C896      1.0  0.62871  0.80673  0.91560  1.0000
  C   C897      1.0  0.67439  0.87835  0.89105  1.0000
  C   C898      1.0  0.92446  0.69768  0.77061  1.0000
  C   C899      1.0  0.79860  0.76131  0.50701  1.0000
  H   H716      1.0  0.82794  0.82293  0.91764  1.0000
  H   H717      1.0  0.64837  0.75151  0.66725  1.0000
  C   C900      1.0  0.76401  0.82102  0.92552  1.0000
  H   H718      1.0  0.76996  0.83514  0.94133  1.0000
  C   C901      1.0  0.95000  0.85989  0.94676  1.0000
  C   C902      1.0  0.60515  0.73074  0.68511  1.0000
  H   H719      1.0  0.67046  0.75845  0.75690  1.0000
  H   H720      1.0  0.67156  0.72313  0.63533  1.0000
  C   C903      1.0  0.71639  0.79225  0.89663  1.0000
  H   H721      1.0  0.93376  0.79870  0.78195  1.0000
  H   H722      1.0  0.65321  0.72699  0.84247  1.0000
  C   C904      1.0  0.91564  0.70472  0.73797  1.0000
  C   C905      1.0  0.56247  0.66417  0.74693  1.0000
  C   C906      1.0  0.77855  0.79664  0.77361  1.0000
  P   P30       1.0  0.83093  0.69040  0.49214  1.0000
  C   C907      1.0  0.63418  0.69825  0.65001  1.0000
  C   C908      1.0  0.64028  0.73176  0.81685  1.0000
  H   H723      1.0  0.78908  0.94838  0.89685  1.0000
  C   C909      1.0  0.75816  0.69220  0.70763  1.0000
  H   H724      1.0  0.64518  0.68567  0.63637  1.0000
  C   C910      1.0  0.88356  0.92947  0.95036  1.0000
  H   H725      1.0  0.81473  0.79176  0.87920  1.0000
  C   C911      1.0  0.94165  0.66702  0.58270  1.0000
  H   H726      1.0  0.73052  0.66035  0.69690  1.0000
  C   C912      1.0  0.78276  0.67369  0.48759  1.0000
  C   C913      1.0  0.64969  0.74953  0.76846  1.0000
  C   C914      1.0  0.77758  0.65344  0.64016  1.0000
  C   C915      1.0  0.74932  0.78562  0.88280  1.0000
  H   H727      1.0  0.57296  0.76018  0.91933  1.0000
  C   C916      1.0  0.76759  0.72989  0.65188  1.0000
  H   H728      1.0  0.51862  0.75672  0.97578  1.0000
  H   H729      1.0  0.77485  0.81180  0.78531  1.0000
  C   C917      1.0  0.78827  0.75751  0.74302  1.0000
  C   C918      1.0  0.66661  0.74334  0.80151  1.0000
  C   C919      1.0  0.64916  0.71934  0.64956  1.0000
  H   H730      1.0  0.76146  0.69099  0.52475  1.0000
  H   H731      1.0  0.92707  0.69367  0.51034  1.0000
  C   C920      1.0  0.95196  0.67791  0.55704  1.0000
  C   C921      1.0  0.55395  0.65563  0.71474  1.0000
  C   C922      1.0  0.74771  0.76836  0.73403  1.0000
  C   C923      1.0  0.74872  0.66277  0.61202  1.0000
  H   H732      1.0  0.83322  0.71684  0.78774  1.0000
  H   H733      1.0  0.70005  0.74764  0.81520  1.0000
  H   H734      1.0  0.95380  0.68832  0.78172  1.0000
  C   C924      1.0  0.76544  0.73695  0.62006  1.0000
  C   C925      1.0  0.82109  0.66143  0.65315  1.0000
  C   C926      1.0  0.78963  0.79653  0.89054  1.0000
  C   C927      1.0  0.81768  0.71785  0.49941  1.0000
  H   H735      1.0  0.94476  0.78204  0.73125  1.0000
  C   C928      1.0  0.82438  0.76691  0.76662  1.0000
  C   C929      1.0  0.79196  0.74154  0.67978  1.0000
  C   C930      1.0  0.72360  0.80998  0.91820  1.0000
  H   H736      1.0  0.74318  0.77243  0.86531  1.0000
  C   C931      1.0  0.81423  0.76029  0.67518  1.0000
  C   C932      1.0  0.67741  0.84821  0.92817  1.0000
  H   H737      1.0  0.74698  0.72776  0.59871  1.0000
  H   H738      1.0  0.94162  0.85761  0.92027  1.0000
  H   H739      1.0  0.93792  0.70072  0.72365  1.0000
  P   P31       1.0  0.79487  0.73317  0.72135  1.0000
  H   H740      1.0  0.84746  0.79383  0.79959  1.0000
  H   H741      1.0  0.90271  0.91476  0.95541  1.0000
  C   C933      1.0  0.75513  0.71235  0.72201  1.0000
  H   H742      1.0  0.75044  0.71527  0.65426  1.0000
  C   C934      1.0  0.59542  0.81745  0.89156  1.0000
  C   C935      1.0  0.51547  0.66201  0.69070  1.0000
  H   H743      1.0  0.78337  0.68923  0.69547  1.0000
  C   C936      1.0  0.84731  0.72087  0.74100  1.0000
  C   C937      1.0  0.93692  0.95910  0.86464  1.0000
  H   H744      1.0  0.52871  0.81595  0.85953  1.0000
  C   C938      1.0  0.49902  0.73805  0.67419  1.0000
  C   C939      1.0  0.84445  0.92963  0.92439  1.0000
  H   H745      1.0  0.87068  0.72113  0.69758  1.0000
  Fe  Fe64      1.0  0.96980  0.73961  0.59366  1.0000
  C   C940      1.0  0.87727  0.71633  0.72317  1.0000
  H   H746      1.0  0.92163  0.76713  0.50388  1.0000
  C   C941      1.0  0.89506  0.70240  0.78866  1.0000
  C   C942      1.0  0.67155  0.88478  0.94689  1.0000
  H   H747      1.0  0.66979  0.90978  0.91120  1.0000
  H   H748      1.0  0.66958  0.89589  0.96618  1.0000
  H   H749      1.0  0.67453  0.88438  0.86703  1.0000
  H   H750      1.0  0.68002  0.84544  0.87762  1.0000
  C   C943      1.0  0.86397  0.66981  0.55337  1.0000
  H   H751      1.0  0.52643  0.77997  0.72877  1.0000
  C   C944      1.0  0.67428  0.86263  0.95302  1.0000
  P   P32       1.0  0.68103  0.81954  0.93520  1.0000
  H   H752      1.0  0.84308  0.65383  0.67467  1.0000
  C   C945      1.0  0.93225  0.75706  0.48676  1.0000
  S   S127      1.0  0.97741  0.73223  0.54175  1.0000
  H   H753      1.0  0.83386  0.91524  0.90964  1.0000
  C   C946      1.0  0.57951  0.77615  0.91166  1.0000
  S   S128      1.0  0.69388  0.65289  0.59322  1.0000
  C   C947      1.0  0.54645  0.78703  0.88806  1.0000
  H   H754      1.0  0.60071  0.83331  0.88299  1.0000
  C   C948      1.0  0.79176  0.96701  0.82135  1.0000
  H   H755      1.0  0.59204  0.65939  0.76577  1.0000
  H   H756      1.0  0.83033  0.66677  0.55310  1.0000
  C   C949      1.0  0.83333  0.96699  0.93580  1.0000
  C   C950      1.0  0.81918  0.94832  0.91725  1.0000
  H   H757      1.0  0.93413  0.94341  0.85291  1.0000
  C   C951      1.0  0.48559  0.67626  0.69902  1.0000
  H   H758      1.0  0.97060  0.74104  0.78678  1.0000
  C   C952      1.0  0.95911  0.73925  0.49870  1.0000
  C   C953      1.0  0.89755  0.94797  0.96977  1.0000
  H   H759      1.0  0.58413  0.71575  0.95818  1.0000
  C   C954      1.0  0.72036  0.66353  0.50693  1.0000
  H   H760      1.0  0.50836  0.65566  0.66584  1.0000
  H   H761      1.0  0.97141  0.95491  0.94258  1.0000
  C   C955      1.0  0.64653  0.73221  0.96811  1.0000
  H   H762      1.0  0.67441  0.85695  0.97718  1.0000
  C   C956      1.0  0.49214  0.74572  0.97568  1.0000
  H   H763      1.0  0.88969  0.65496  0.60112  1.0000
  H   H764      1.0  0.97684  0.84201  0.68885  1.0000
  C   C957      1.0  0.81568  0.97466  0.80049  1.0000
  H   H765      1.0  0.51466  0.77943  0.87743  1.0000
  C   C958      1.0  0.97292  0.97243  0.86598  1.0000
  H   H766      1.0  0.96758  0.66230  0.60452  1.0000
  H   H767      1.0  0.70735  0.74998  0.98501  1.0000
  H   H768      1.0  0.62918  0.82004  0.98200  1.0000
  C   C959      1.0  0.76695  0.74804  0.48595  1.0000
  C   C960      1.0  0.71273  0.64559  0.48608  1.0000
