data_image0
_chemical_formula_structural       CFeS2CSH2C2SCHCFeS2CHCHCSH2CPCHC6H4CH2C9HC2H3CH2C4HCSH2CSHC6FeH2FeC2HC2FeH2C4HCSC3H4SCHCHC2HCH6C2HCFeCH2C2HPHSCH2C2H2CHCHC2H2C3FeCH3C2SHC2HFeSFeS2FeSFeS3FeS2FeS2FeS2FeS2FeSFeS3FeS2FeS2FeSFeS3C4HCHC2HC6H5C7H4C11H5C4HCHC3HC4H4C4H3C4HCHCSH4C7H3CH2C6PC12H3C2H11CH5CHCHPH2CHCHCHC2H3C6PC15HC2H4CH10C2H2C3H3CPCHC6HC4PHCHC3H2C3H2C2HC4HCHC2PCH2C2HC3HC2HPH3CHC2HCHCHCH4C2HC2HC4H2CH3CH4C2H3SCHC4HC2H2CH2CHC4HC2H2C5HCHCH2C2HC2H2CH3C4HCHC3H2CHC5H2C3H2CH3C2H2C2H4CH9CHCH2C2H2C6HC6H3CH2C2H4PCHC2H4CHFeS2FeS2FeSFeS2CFeS2FeS2Fe2S5FeSHC2HCHCH2C6H4CH4C6H4C3HC2HCH2C3HC3H2PCH2C3S2HC2H2CHC3HSH3C2H3CH3CHCHFeHC2H3CH2C3H4C7HC3HCH2CPHC3H3C4HCH2CH3CH3PH2C6H2C4HCHCH2C3HCH4C3H2CHCHC2HCPCHCH3C8PC18HCH4CHC2HCHCH3CHCH2CHC5H3C5H2CHC2HCH2C3H4FeS2HCSFeS2FeSFeSFeS3FeCSH2CSFeS2FeS2FeSFeS3FeS2FeS2FeSFeS3C2HC2H3CHCH3C7H4C8H4CH2C8H5C6H4C8H5CPC16HCH16C2H3FeC3HC2H2C2PC2HC2HCH2CH5C2H3CH2C2HCHC6PC4SC13H6CH11C3HC2HC2H3C2H2C3H2C2HCHCH2C6PC18H20C2H2C3HC6HCHC2H6SCH2C8H5CH2C5H2C3H3PH2C3HCHCHCFeC2HC3H4CH2CHCH2C3PCHCHC3HC5HCHCSC2PHC7H2C3H2CH2SCHPHCHCH2CHCHC2HCH2C2SHPHCHSCHCHCH3C3HCPH2C4H2C2H5C2HFeS2HCHFeSHSCSFeS2FeCFeS2FeS2FeS2FeSFeS3FeS2FeS2FeSFeS3HC7H3CHC2HC3HC2H3CHC7H4C2HC6H4C3HC2H2C3HCPHC6H4CH2CHCH2CH3CH2C2PC2H3C6H2C3HCHCH2C3H2CHC2H3C2HCHCH2CHCHCHCH3C9PC18HCHCH16C6PC18H20CHC4PCH6C8HC3HC5H7SFeH2C12H4C2HCH2C3PHCH4SH5CH3CSC2HC3HC3HFeC2H4C3HCH2C2H3CHC5H2C3PC2H2C2H3C2HC2HCHC2H3CHCHCHC5HCHC4H2C3H4CH4CHC4H3CH2CHCHCHC3SFeS2HC2HCHFeS2FeCFeC2H2CHC3HCHC6HCH3CSC2H3CHC9H5CHCSHCH2CHCFeH2C4HCPCH3C4HFeH2FeHCHSC5H2C8PC7HCHC2H6SHC2H2CHCH2CHC5H2C2HS2CH2C3H2CH3C3H2C3HCSHSHCHCSH3CFeSCFeS2FeSFeS3FeS2FeS2FeSFeS4HSFeS2FeSCFeSFeS3C2SH3CSCHCH2CSC2HC2HC6H5C6H4CHC8H4C2SH2C6H4C6H5CHC10PHCHCH3CHPCHFeH2C6PC18H20C8H8CHCH3CHC6HPCH2C2HC2HCH2CH2CHC8PC18H12C2H2C2HCH6PSC2H3CHC3HCHC3HC2HC4HCFeHC2HCH3CHCH2C3HPCH3CHC2HC3SHC2SHC4HC6H2CHPHSHFeC2HC4H3C3H4C3HCHCH3C4H3CH2C2SH2CHC2HCHC2H2CPCH2CH2CH2CHCHSC3HC2H2C3H2C4H3CHCFe2H2FeCHSC4FeS2FeSFeSFeS3FeS2HC5FeS2FeSFeSFeS3C3H2C3HC2H3C4HC2HCHC6H4C6H4C5HPC8H3C3HCHCH11C3HC4HC2HC2HCH2CH4CH2C5HCSH2CH3CHCHCHC3SH2CHCHCHSHPHCHC2HCHC3H2C6HCH5C6H2CH5CH2C3HCPH3CH2C6HC3H3C2HC6PCHCH2CH3CH6C3H2C2H3CH2CH2C2HFeSHFeCSFeCSFeS2HFeSH2FeHFeS2C6H3PCHSCSC7H4CHCH2CHCHCH3CHCH2CHC4H3CH2C3PCHC2H2C2HC2HCHC2HCHC3H2CHCH3CSHC2H2PC7H2C2HC5H3CHSH3C3HCH4C3HC4HC6HC2H3CH4C2HCH2CS2C2SC2H2C2HCFeCSFeS2FeS2FeS2Fe2S3FeS2FeS2FeSFeS3FeS2FeS2FeSFeS3C6H4C6H4C6H4C5HCH2C6H3C3HC5PH2C2FeC2HCHC4H4C4H3C3HC3H2C3H2CHC3H2C2H3C2HCH3CHC8H3SPCHC2H5CHC2HC9PC2H3C3HPC8H5CH5CHC2H5C6PC18H20C6PC18H11C2H3C2H3C2HC9H6C3HCHC2HCH4C2H2CH3SH3CHCH3PHCHCHCHCHC2HC3SHC5H2C3HC3PCH2C2H2C3HCH3C2HCH3C3HCH4CH2PHC2H2CHCHCH3C5HCH5CH5CHC2HC4HCHCH3CFeS2FeS2FeSFeS2PCFeSCHFeS2FeS2Fe2S4C6H2C7H4C6H4CH3CH2C4H3C5PHC2HC2HC2HCHC5H2CHCH3CH2C3H2C2HC2PC3HC2HC3HC2H4C2H3CHC2H2C2H3CH2C3PHC2HSCHC2H2C2H2CH3C2HC3HCH3C7H2C4H2C4H2C2HC6PC18H20CH2C2HC3HCHC4HC2H3SCH2CH2C2H2CHCH2CH2CHC2H6CHFeCSFeS2FeS2FeS2FeSFeS3FeS2FeS2FeSFeS3FeHSCHS2FeS2FeS2Fe2S3HC7H6C6H4C6H4C6H4C6H4C2HCSCHCH2C5HC3H2CH2C3PC4HC2HCH2CSC2H2C7H2C4H2CHCHC3HCH2CH2C2HC4HCH5C3H2CHC6H3CH4C2HC2HC8PC18H20C6PC18HCH21C5HCHC2H3SH3CH4CHCFeCH3CH2CHPC6PC3HC8H9C2H6C2HCHC2HC2HCHC3HC3PSH2C2H5C2H2FeHCHSC2H2C3H3C7H3C2HC2H3CH3CHCH2C2H2SHC2HCHC7PSHPH3C5HSCH3C3FeSFeS2FeS3C2SC2SFeSCSHFeS2FeS2FeSFeS3FeS2FeS2FeSFeS3CHC7H4C4H3C6H4C6H4C6H4C6H4C6HCH3C2H2FeHC4H2CHCH3C4H5C6PC11H2C2HC2H5CH5CPCH2C3PH3C2HC8H2CHSHCHC2H6CH5CH2CH3C2HC3HC2HC2H2C6PC4H2CH5C2H2C5H4CHCPC3H2C2H4CH2C3H3C2HC3H2C4PC13H9CHCSPC2HCHC2H2CH2CH2C3H2CH3CHCH4C8FeHCHC5H2CHCPC2HCH3C2H2C3HC5HPC2H2C2HCHCH2CH2CH2C2H6CH2CHC3FeHCHCH2CHCH4C3HC2HCH2C4HCHCH2C2H2CH2CFeS2HSCSC2HC2SFeS2HFeCSC8H4CSCHCHC4HCH4CHCHPHC6FeHCSH3CHCH5C2SPSCHPHC2HCH2CH3CH2FeCH2C2H2CFeH3CH2C2HC5H3C5HC9HC2H2C4H2CHSC2H3C2FeCH2CFeS2FeSCFeSFeS3FeSFeS2FeSFeS3FeS2FeS2FeSFeS4H2SC2SCH4C6H4C6H4C3H2CHC2HC6H4C6H6SC3PHC4HCHC4H2C2H3CHC2H2CH2C5HC2HC5HC3H2C3HCSC2H3SC4H2CHCHC2PHC3HCHCHCHCFePFeH2FeH2CHC4HCSH6C2H2C6H5CHCH3C8PC18H18CH7CHC2HCH3C5HC2H2CHC4HSC2H4CH3C12H5CH3SHCHCHCHCHCHC2H2CHC3H2SH2C4HCHC2H3C2HC2H2C2H3CH3CPC2FeC3HC2HC2H3CPHC4HC2HC5H2CH2C3PCHCH2C4HC2H3C2H2CH4CHC3H3CH3CHC6HCHCHCPHCHCH2CHCH3CH2C4HPCH2CHSFeS2FeS2FeSFeS2FeS2FeS2FeSFeS2HCHCHCH2SC7H4C6H4C3HC2HCH2SC2H3CHPHC3H5C3H2CHCPHC2HC3HCHC2H4C2HCH2SCHCH5CHC4H2C2H3C2HCFeHC5H3CH5SCHC2HC4HC2HC5H3C4HC6PC8H2C3H2C2FeH6CSH3C2H4CHCHC2HC5HC2HCHC2HC2H2C7
_chemical_formula_sum              "C2880 Fe192 S384 H2304 P96"
_cell_length_a       50.3571
_cell_length_b       99.8821
_cell_length_c       53.1649
_cell_angle_alpha    84.5993
_cell_angle_beta     87.351
_cell_angle_gamma    85.7848

_space_group_name_H-M_alt    "P 1"
_space_group_IT_number       1

loop_
  _space_group_symop_operation_xyz
  'x, y, z'

loop_
  _atom_site_type_symbol
  _atom_site_label
  _atom_site_symmetry_multiplicity
  _atom_site_fract_x
  _atom_site_fract_y
  _atom_site_fract_z
  _atom_site_occupancy
  C   C1        1.0  0.44122  0.01818  0.12645  1.0000
  Fe  Fe1       1.0  0.12070  0.00506  0.37404  1.0000
  S   S1        1.0  0.11737  0.01619  0.33512  1.0000
  S   S2        1.0  0.10894  0.01463  0.41083  1.0000
  C   C2        1.0  0.38299  0.99972  0.99439  1.0000
  S   S3        1.0  0.04286  0.01065  0.31652  1.0000
  H   H1        1.0  0.42342  0.02457  0.12194  1.0000
  H   H2        1.0  0.16242  0.02063  0.42496  1.0000
  C   C3        1.0  0.49358  0.02491  0.03340  1.0000
  C   C4        1.0  0.26122  0.00153  0.28517  1.0000
  S   S4        1.0  0.32137  0.04223  0.02756  1.0000
  C   C5        1.0  0.38576  0.08290  0.25291  1.0000
  H   H3        1.0  0.48206  0.01273  0.06692  1.0000
  C   C6        1.0  0.27326  0.03379  0.25134  1.0000
  Fe  Fe2       1.0  0.35944  0.99880  0.16292  1.0000
  S   S5        1.0  0.36740  0.00602  0.20074  1.0000
  S   S6        1.0  0.37200  0.01080  0.12610  1.0000
  C   C7        1.0  0.26528  0.04149  0.27130  1.0000
  H   H4        1.0  0.30376  0.05411  0.15292  1.0000
  C   C8        1.0  0.31874  0.00930  0.00172  1.0000
  H   H5        1.0  0.03102  0.01859  0.36991  1.0000
  C   C9        1.0  0.37577  0.99057  0.01480  1.0000
  S   S7        1.0  0.35892  0.07073  0.98482  1.0000
  H   H6        1.0  0.08081  0.02848  0.44941  1.0000
  H   H7        1.0  0.33552  0.99253  0.10737  1.0000
  C   C10       1.0  0.46483  0.06246  0.98050  1.0000
  P   P1        1.0  0.00705  0.02323  0.41980  1.0000
  C   C11       1.0  0.22107  0.99749  0.25304  1.0000
  H   H8        1.0  0.33397  0.01357  0.01163  1.0000
  C   C12       1.0  0.33533  0.03343  0.05502  1.0000
  C   C13       1.0  0.31852  0.02820  0.07488  1.0000
  C   C14       1.0  0.32919  0.02126  0.09694  1.0000
  C   C15       1.0  0.35683  0.01942  0.09920  1.0000
  C   C16       1.0  0.37356  0.02465  0.07938  1.0000
  C   C17       1.0  0.36291  0.03162  0.05749  1.0000
  H   H9        1.0  0.29714  0.02956  0.07320  1.0000
  H   H10       1.0  0.31606  0.01736  0.11213  1.0000
  H   H11       1.0  0.39494  0.02339  0.08098  1.0000
  H   H12       1.0  0.37612  0.03578  0.04275  1.0000
  C   C18       1.0  0.01132  0.00490  0.32800  1.0000
  H   H13       1.0  0.37044  0.09194  0.21762  1.0000
  H   H14       1.0  0.47725  0.02232  0.02263  1.0000
  C   C19       1.0  0.26849  0.99901  0.26000  1.0000
  C   C20       1.0  0.49618  0.01967  0.05858  1.0000
  C   C21       1.0  0.01592  0.00532  0.42032  1.0000
  C   C22       1.0  0.21381  0.99993  0.27827  1.0000
  C   C23       1.0  0.31827  0.99529  0.00125  1.0000
  C   C24       1.0  0.41522  0.01845  0.24951  1.0000
  C   C25       1.0  0.12063  0.02371  0.43471  1.0000
  C   C26       1.0  0.10180  0.02935  0.45177  1.0000
  C   C27       1.0  0.47168  0.00314  0.20851  1.0000
  H   H15       1.0  0.06506  0.03000  0.34290  1.0000
  C   C28       1.0  0.15583  0.03152  0.45835  1.0000
  C   C29       1.0  0.14773  0.02493  0.43793  1.0000
  H   H16       1.0  0.48934  0.99399  0.02893  1.0000
  H   H17       1.0  0.36789  0.99810  0.27525  1.0000
  H   H18       1.0  0.39841  0.07124  0.28698  1.0000
  C   C30       1.0  0.03222  0.03164  0.40012  1.0000
  H   H19       1.0  0.35294  0.99662  0.06336  1.0000
  H   H20       1.0  0.45438  0.00957  0.20281  1.0000
  C   C31       1.0  0.28278  0.05015  0.27987  1.0000
  C   C32       1.0  0.04510  0.04237  0.40847  1.0000
  C   C33       1.0  0.32198  0.05016  0.16183  1.0000
  C   C34       1.0  0.42107  0.98961  0.02917  1.0000
  H   H21       1.0  0.41685  0.99805  0.26694  1.0000
  C   C35       1.0  0.30832  0.05107  0.26852  1.0000
  S   S8        1.0  0.38976  0.03978  0.99055  1.0000
  H   H22       1.0  0.43660  0.01835  0.24587  1.0000
  H   H23       1.0  0.46672  0.02992  0.10118  1.0000
  C   C36       1.0  0.02445  0.02321  0.46925  1.0000
  S   S9        1.0  0.17904  0.00093  0.28829  1.0000
  H   H24       1.0  0.42067  0.00499  0.15394  1.0000
  C   C37       1.0  0.07237  0.04396  0.36975  1.0000
  C   C38       1.0  0.40413  0.00701  0.26156  1.0000
  C   C39       1.0  0.04218  0.00033  0.42504  1.0000
  C   C40       1.0  0.39875  0.02982  0.24163  1.0000
  C   C41       1.0  0.34339  0.04508  0.14710  1.0000
  C   C42       1.0  0.36008  0.01839  0.25843  1.0000
  Fe  Fe3       1.0  0.08430  0.00259  0.33011  1.0000
  H   H25       1.0  0.19756  0.14373  0.46881  1.0000
  H   H26       1.0  0.32156  0.05778  0.27555  1.0000
  Fe  Fe4       1.0  0.34810  0.04919  0.99381  1.0000
  C   C43       1.0  0.06522  0.04840  0.39340  1.0000
  C   C44       1.0  0.34731  0.04454  0.19979  1.0000
  H   H27       1.0  0.25301  0.99514  0.22454  1.0000
  C   C45       1.0  0.36141  0.07113  0.22455  1.0000
  C   C46       1.0  0.46574  0.02107  0.11456  1.0000
  Fe  Fe5       1.0  0.14703  0.99981  0.32148  1.0000
  H   H28       1.0  0.22921  0.00397  0.31358  1.0000
  H   H29       1.0  0.24559  0.04063  0.28021  1.0000
  C   C47       1.0  0.36690  0.03999  0.15851  1.0000
  C   C48       1.0  0.00740  0.02942  0.45073  1.0000
  C   C49       1.0  0.37718  0.05946  0.26369  1.0000
  C   C50       1.0  0.05954  0.03342  0.36125  1.0000
  H   H30       1.0  0.38725  0.03555  0.19292  1.0000
  C   C51       1.0  0.29881  0.03459  0.24010  1.0000
  S   S10       1.0  0.43562  0.06922  0.99488  1.0000
  C   C52       1.0  0.36406  0.05929  0.24098  1.0000
  C   C53       1.0  0.23425  0.00191  0.29426  1.0000
  C   C54       1.0  0.43960  0.00712  0.14443  1.0000
  H   H31       1.0  0.27661  0.00328  0.29777  1.0000
  H   H32       1.0  0.17684  0.03227  0.46093  1.0000
  H   H33       1.0  0.30717  0.05407  0.19904  1.0000
  H   H34       1.0  0.40770  0.03854  0.23208  1.0000
  S   S11       1.0  0.08696  0.99215  0.36880  1.0000
  C   C55       1.0  0.40877  0.00411  0.99190  1.0000
  H   H35       1.0  0.07560  0.05637  0.40026  1.0000
  C   C56       1.0  0.31652  0.04329  0.24851  1.0000
  H   H36       1.0  0.37897  0.05051  0.27687  1.0000
  C   C57       1.0  0.03999  0.02708  0.37654  1.0000
  C   C58       1.0  0.46247  0.99894  0.15053  1.0000
  H   H37       1.0  0.25981  0.02696  0.24487  1.0000
  C   C59       1.0  0.37094  0.02978  0.24552  1.0000
  H   H38       1.0  0.34175  0.04498  0.12683  1.0000
  H   H39       1.0  0.35100  0.07133  0.20714  1.0000
  H   H40       1.0  0.04031  0.04599  0.42676  1.0000
  H   H41       1.0  0.33886  0.01805  0.26207  1.0000
  H   H42       1.0  0.27657  0.05607  0.29544  1.0000
  H   H43       1.0  0.25496  0.10965  0.47409  1.0000
  C   C60       1.0  0.48876  0.01270  0.12018  1.0000
  C   C61       1.0  0.48710  0.00177  0.13870  1.0000
  H   H44       1.0  0.08814  0.04851  0.35814  1.0000
  C   C62       1.0  0.32397  0.05000  0.18803  1.0000
  Fe  Fe6       1.0  0.33258  0.99388  0.21630  1.0000
  C   C63       1.0  0.36893  0.03974  0.18469  1.0000
  H   H45       1.0  0.48939  0.07692  0.99365  1.0000
  H   H46       1.0  0.03620  0.01398  0.46626  1.0000
  C   C64       1.0  0.10987  0.03603  0.47201  1.0000
  C   C65       1.0  0.24807  0.99698  0.24399  1.0000
  H   H47       1.0  0.40898  0.99582  0.09072  1.0000
  P   P2        1.0  0.34954  0.04417  0.23380  1.0000
  H   H48       1.0  0.39429  0.09199  0.25743  1.0000
  S   S12       1.0  0.30308  0.99912  0.24957  1.0000
  C   C66       1.0  0.37235  0.08287  0.23047  1.0000
  H   H49       1.0  0.45837  0.99432  0.08998  1.0000
  H   H50       1.0  0.05717  0.00713  0.42838  1.0000
  C   C67       1.0  0.38811  0.07121  0.26954  1.0000
  C   C68       1.0  0.37660  0.00703  0.26621  1.0000
  H   H51       1.0  0.38339  0.03595  0.14705  1.0000
  H   H52       1.0  0.30488  0.02822  0.22513  1.0000
  C   C69       1.0  0.48889  0.06832  0.98276  1.0000
  H   H53       1.0  0.36884  0.00346  0.98030  1.0000
  C   C70       1.0  0.29721  0.99009  0.98964  1.0000
  H   H54       1.0  0.44760  0.00267  0.00733  1.0000
  C   C71       1.0  0.42775  0.99915  0.00936  1.0000
  C   C72       1.0  0.29928  0.01796  0.98953  1.0000
  H   H55       1.0  0.46104  0.99063  0.16504  1.0000
  H   H56       1.0  0.29980  0.02876  0.98985  1.0000
  C   C73       1.0  0.49729  0.00822  0.20621  1.0000
  C   C74       1.0  0.13697  0.03702  0.47560  1.0000
  C   C75       1.0  0.22772  0.12727  0.46894  1.0000
  Fe  Fe7       1.0  0.40014  0.06097  0.97959  1.0000
  C   C76       1.0  0.46855  0.98979  0.21826  1.0000
  H   H57       1.0  0.14741  0.99313  0.43685  1.0000
  H   H58       1.0  0.23769  0.13121  0.45161  1.0000
  H   H59       1.0  0.20560  0.99599  0.24032  1.0000
  C   C77       1.0  0.33890  0.98896  0.06791  1.0000
  C   C78       1.0  0.00907  0.99252  0.34239  1.0000
  S   S13       1.0  0.15230  0.98947  0.36102  1.0000
  H   H60       1.0  0.49933  0.01857  0.19882  1.0000
  C   C79       1.0  0.15070  0.99081  0.47735  1.0000
  C   C80       1.0  0.47008  0.14197  0.90098  1.0000
  H   H61       1.0  0.26004  0.17274  0.86680  1.0000
  Fe  Fe8       1.0  0.12037  0.05226  0.53335  1.0000
  S   S14       1.0  0.07641  0.04964  0.53620  1.0000
  Fe  Fe9       1.0  0.11881  0.06619  0.58347  1.0000
  S   S15       1.0  0.07507  0.06405  0.58972  1.0000
  S   S16       1.0  0.13950  0.07568  0.61399  1.0000
  Fe  Fe10      1.0  0.08324  0.04332  0.57726  1.0000
  S   S17       1.0  0.06310  0.02546  0.59651  1.0000
  Fe  Fe11      1.0  0.07292  0.07061  0.54855  1.0000
  S   S18       1.0  0.04485  0.08794  0.53522  1.0000
  S   S19       1.0  0.12754  0.04467  0.57395  1.0000
  S   S20       1.0  0.11633  0.07394  0.54258  1.0000
  Fe  Fe12      1.0  0.35449  0.06761  0.94373  1.0000
  S   S21       1.0  0.39675  0.05944  0.93826  1.0000
  S   S22       1.0  0.33866  0.08084  0.90931  1.0000
  Fe  Fe13      1.0  0.38177  0.03914  0.94961  1.0000
  S   S23       1.0  0.39850  0.02250  0.92641  1.0000
  S   S24       1.0  0.33908  0.04694  0.95313  1.0000
  Fe  Fe14      1.0  0.36137  0.18343  0.81231  1.0000
  S   S25       1.0  0.37165  0.17410  0.77590  1.0000
  S   S26       1.0  0.35556  0.20626  0.80470  1.0000
  Fe  Fe15      1.0  0.35698  0.15536  0.84122  1.0000
  S   S27       1.0  0.36620  0.14472  0.80633  1.0000
  S   S28       1.0  0.35270  0.14361  0.88012  1.0000
  Fe  Fe16      1.0  0.39855  0.15923  0.79872  1.0000
  S   S29       1.0  0.44015  0.15058  0.78748  1.0000
  Fe  Fe17      1.0  0.33808  0.16075  0.78708  1.0000
  S   S30       1.0  0.30975  0.15807  0.75559  1.0000
  S   S31       1.0  0.39056  0.16932  0.83447  1.0000
  S   S32       1.0  0.32669  0.17065  0.82253  1.0000
  Fe  Fe18      1.0  0.13376  0.17885  0.67758  1.0000
  S   S33       1.0  0.12794  0.17451  0.71939  1.0000
  S   S34       1.0  0.14259  0.19955  0.65913  1.0000
  Fe  Fe19      1.0  0.12841  0.14942  0.66772  1.0000
  S   S35       1.0  0.12311  0.14299  0.70931  1.0000
  S   S36       1.0  0.12111  0.13761  0.63409  1.0000
  Fe  Fe20      1.0  0.09536  0.16166  0.71042  1.0000
  S   S37       1.0  0.05808  0.16095  0.73611  1.0000
  Fe  Fe21      1.0  0.15634  0.15637  0.71504  1.0000
  S   S38       1.0  0.18504  0.15137  0.74750  1.0000
  S   S39       1.0  0.09885  0.16751  0.66884  1.0000
  S   S40       1.0  0.16397  0.16133  0.67315  1.0000
  C   C81       1.0  0.30351  0.12571  0.79920  1.0000
  C   C82       1.0  0.00416  0.00344  0.55301  1.0000
  C   C83       1.0  0.02359  0.16051  0.73056  1.0000
  C   C84       1.0  0.27773  0.99879  0.97759  1.0000
  H   H62       1.0  0.21406  0.12312  0.75635  1.0000
  C   C85       1.0  0.46424  0.05124  0.96671  1.0000
  H   H63       1.0  0.01657  0.15128  0.76824  1.0000
  C   C86       1.0  0.00632  0.18438  0.63055  1.0000
  C   C87       1.0  0.46962  0.15822  0.79359  1.0000
  H   H64       1.0  0.18713  0.06348  0.58318  1.0000
  C   C88       1.0  0.27451  0.15748  0.75407  1.0000
  C   C89       1.0  0.25770  0.15566  0.77567  1.0000
  C   C90       1.0  0.23034  0.15403  0.77326  1.0000
  C   C91       1.0  0.21920  0.15460  0.74934  1.0000
  C   C92       1.0  0.23575  0.15701  0.72778  1.0000
  C   C93       1.0  0.26325  0.15829  0.73017  1.0000
  H   H65       1.0  0.26582  0.15527  0.79420  1.0000
  H   H66       1.0  0.21770  0.15220  0.79003  1.0000
  H   H67       1.0  0.22756  0.15744  0.70925  1.0000
  H   H68       1.0  0.27597  0.15972  0.71331  1.0000
  H   H69       1.0  0.03164  0.01929  0.55254  1.0000
  C   C94       1.0  0.02951  0.16244  0.63947  1.0000
  C   C95       1.0  0.34506  0.09804  0.90121  1.0000
  C   C96       1.0  0.34867  0.10674  0.91969  1.0000
  C   C97       1.0  0.35096  0.12061  0.91282  1.0000
  C   C98       1.0  0.35051  0.12593  0.88737  1.0000
  C   C99       1.0  0.34758  0.11715  0.86876  1.0000
  C   C100      1.0  0.34444  0.10334  0.87573  1.0000
  H   H70       1.0  0.34888  0.10286  0.93939  1.0000
  H   H71       1.0  0.35307  0.12728  0.92740  1.0000
  H   H72       1.0  0.34702  0.12107  0.84912  1.0000
  H   H73       1.0  0.34129  0.09674  0.86133  1.0000
  C   C101      1.0  0.01388  0.08309  0.52728  1.0000
  C   C102      1.0  0.09389  0.99409  0.64282  1.0000
  C   C103      1.0  0.46984  0.13665  0.85744  1.0000
  C   C104      1.0  0.18839  0.11846  0.78899  1.0000
  C   C105      1.0  0.23434  0.11823  0.81709  1.0000
  C   C106      1.0  0.13195  0.09261  0.62093  1.0000
  C   C107      1.0  0.14328  0.09730  0.64188  1.0000
  C   C108      1.0  0.13901  0.11090  0.64708  1.0000
  C   C109      1.0  0.12369  0.12000  0.63108  1.0000
  C   C110      1.0  0.11140  0.11517  0.61084  1.0000
  C   C111      1.0  0.11553  0.10157  0.60570  1.0000
  H   H74       1.0  0.15586  0.09041  0.65385  1.0000
  H   H75       1.0  0.14844  0.11445  0.66283  1.0000
  H   H76       1.0  0.09898  0.12205  0.59877  1.0000
  H   H77       1.0  0.10653  0.09810  0.58961  1.0000
  H   H78       1.0  0.31639  0.99845  0.93484  1.0000
  C   C112      1.0  0.33608  0.99905  0.92601  1.0000
  C   C113      1.0  0.35206  0.00929  0.93139  1.0000
  C   C114      1.0  0.37754  0.01005  0.92001  1.0000
  C   C115      1.0  0.38691  0.00058  0.90332  1.0000
  H   H79       1.0  0.43379  0.20035  0.75606  1.0000
  C   C116      1.0  0.06724  0.23021  0.64219  1.0000
  H   H80       1.0  0.34467  0.01655  0.94435  1.0000
  C   C117      1.0  0.01115  0.01671  0.55442  1.0000
  C   C118      1.0  0.20511  0.13431  0.47863  1.0000
  C   C119      1.0  0.11653  0.99925  0.65158  1.0000
  H   H81       1.0  0.04782  0.18124  0.63916  1.0000
  C   C120      1.0  0.07723  0.00224  0.62620  1.0000
  C   C121      1.0  0.08338  0.01547  0.61806  1.0000
  C   C122      1.0  0.10584  0.02061  0.62702  1.0000
  C   C123      1.0  0.12231  0.01253  0.64374  1.0000
  H   H82       1.0  0.45030  0.17777  0.79862  1.0000
  H   H83       1.0  0.05976  0.99824  0.61947  1.0000
  H   H84       1.0  0.11036  0.03089  0.62140  1.0000
  H   H85       1.0  0.13967  0.01660  0.65059  1.0000
  C   C124      1.0  0.10944  0.22466  0.70974  1.0000
  C   C125      1.0  0.11709  0.21302  0.69752  1.0000
  C   C126      1.0  0.13381  0.21386  0.67578  1.0000
  C   C127      1.0  0.14311  0.22640  0.66661  1.0000
  H   H86       1.0  0.09617  0.22396  0.72634  1.0000
  H   H87       1.0  0.10955  0.20347  0.70456  1.0000
  H   H88       1.0  0.15595  0.22712  0.64973  1.0000
  C   C128      1.0  0.14498  0.12996  0.55314  1.0000
  C   C129      1.0  0.37490  0.21831  0.84485  1.0000
  C   C130      1.0  0.36467  0.21994  0.82063  1.0000
  C   C131      1.0  0.18686  0.08379  0.56547  1.0000
  H   H89       1.0  0.03393  0.03240  0.64554  1.0000
  C   C132      1.0  0.02276  0.18855  0.76335  1.0000
  H   H90       1.0  0.37844  0.20829  0.85425  1.0000
  C   C133      1.0  0.00760  0.15517  0.75069  1.0000
  S   S41       1.0  0.13840  0.98944  0.67194  1.0000
  H   H91       1.0  0.29485  0.01393  0.90127  1.0000
  H   H92       1.0  0.29495  0.13598  0.79825  1.0000
  H   H93       1.0  0.25271  0.19662  0.73251  1.0000
  H   H94       1.0  0.29860  0.18617  0.73738  1.0000
  C   C134      1.0  0.09093  0.00342  0.49992  1.0000
  C   C135      1.0  0.24173  0.12121  0.58825  1.0000
  C   C136      1.0  0.22775  0.12189  0.61147  1.0000
  C   C137      1.0  0.20110  0.11881  0.61384  1.0000
  C   C138      1.0  0.18837  0.11510  0.59300  1.0000
  C   C139      1.0  0.20203  0.11469  0.56944  1.0000
  C   C140      1.0  0.22897  0.11759  0.56730  1.0000
  H   H95       1.0  0.26244  0.12354  0.58647  1.0000
  H   H96       1.0  0.23752  0.12480  0.62767  1.0000
  H   H97       1.0  0.19019  0.11937  0.63180  1.0000
  C   C141      1.0  0.11877  0.13563  0.55365  1.0000
  H   H98       1.0  0.24018  0.11718  0.54954  1.0000
  H   H99       1.0  0.18727  0.08805  0.58341  1.0000
  C   C142      1.0  0.42348  0.04942  0.84844  1.0000
  C   C143      1.0  0.39896  0.04839  0.86161  1.0000
  C   C144      1.0  0.38793  0.05916  0.87444  1.0000
  C   C145      1.0  0.40165  0.07082  0.87472  1.0000
  C   C146      1.0  0.42691  0.07174  0.86257  1.0000
  C   C147      1.0  0.43737  0.06105  0.84883  1.0000
  P   P3        1.0  0.44459  0.08688  0.86341  1.0000
  C   C148      1.0  0.43453  0.09822  0.83656  1.0000
  C   C149      1.0  0.43384  0.09490  0.89168  1.0000
  C   C150      1.0  0.42547  0.10868  0.89035  1.0000
  C   C151      1.0  0.41615  0.11463  0.91214  1.0000
  C   C152      1.0  0.41534  0.10695  0.93544  1.0000
  C   C153      1.0  0.42389  0.09332  0.93697  1.0000
  C   C154      1.0  0.43313  0.08728  0.91526  1.0000
  C   C155      1.0  0.49306  0.17780  0.80115  1.0000
  C   C156      1.0  0.43571  0.21007  0.79027  1.0000
  C   C157      1.0  0.41754  0.11784  0.79827  1.0000
  C   C158      1.0  0.39885  0.11085  0.81350  1.0000
  C   C159      1.0  0.40726  0.10100  0.83242  1.0000
  H   H100      1.0  0.02645  0.12833  0.73129  1.0000
  H   H101      1.0  0.23236  0.10060  0.51356  1.0000
  H   H102      1.0  0.43864  0.99655  0.81373  1.0000
  C   C160      1.0  0.45037  0.21810  0.80379  1.0000
  C   C161      1.0  0.49247  0.02133  0.89475  1.0000
  H   H103      1.0  0.44526  0.22303  0.88358  1.0000
  H   H104      1.0  0.43211  0.04102  0.83862  1.0000
  H   H105      1.0  0.38873  0.03916  0.86232  1.0000
  H   H106      1.0  0.36902  0.05839  0.88487  1.0000
  H   H107      1.0  0.39261  0.07899  0.88494  1.0000
  H   H108      1.0  0.45649  0.06141  0.83892  1.0000
  H   H109      1.0  0.42548  0.11488  0.87256  1.0000
  H   H110      1.0  0.40863  0.12509  0.91087  1.0000
  H   H111      1.0  0.40754  0.11148  0.95225  1.0000
  H   H112      1.0  0.42281  0.08737  0.95499  1.0000
  H   H113      1.0  0.43946  0.07666  0.91691  1.0000
  C   C162      1.0  0.44469  0.11516  0.80226  1.0000
  H   H114      1.0  0.02604  0.18043  0.77812  1.0000
  H   H115      1.0  0.41103  0.12567  0.78386  1.0000
  H   H116      1.0  0.37781  0.11341  0.81128  1.0000
  H   H117      1.0  0.39241  0.09601  0.84454  1.0000
  H   H118      1.0  0.27789  0.99011  0.86886  1.0000
  C   C163      1.0  0.20167  0.11698  0.51371  1.0000
  H   H119      1.0  0.17062  0.11895  0.77806  1.0000
  C   C164      1.0  0.04451  0.19440  0.75058  1.0000
  H   H120      1.0  0.49240  0.18843  0.80371  1.0000
  P   P4        1.0  0.33744  0.02582  0.81733  1.0000
  H   H121      1.0  0.06940  0.00268  0.57085  1.0000
  H   H122      1.0  0.26171  0.99470  0.96851  1.0000
  C   C165      1.0  0.28402  0.15434  0.86212  1.0000
  H   H123      1.0  0.42575  0.01333  0.77817  1.0000
  C   C166      1.0  0.32469  0.12245  0.78243  1.0000
  H   H124      1.0  0.02355  0.17003  0.69246  1.0000
  C   C167      1.0  0.03311  0.11970  0.56655  1.0000
  H   H125      1.0  0.26837  0.08034  0.92051  1.0000
  C   C168      1.0  0.10570  0.00970  0.51649  1.0000
  C   C169      1.0  0.48474  0.21885  0.77014  1.0000
  H   H126      1.0  0.47981  0.13339  0.84041  1.0000
  H   H127      1.0  0.28426  0.11957  0.88657  1.0000
  H   H128      1.0  0.45048  0.01758  0.89978  1.0000
  C   C170      1.0  0.19656  0.21560  0.70597  1.0000
  C   C171      1.0  0.19796  0.20400  0.69304  1.0000
  C   C172      1.0  0.19432  0.19147  0.70628  1.0000
  C   C173      1.0  0.18886  0.19054  0.73236  1.0000
  C   C174      1.0  0.18674  0.20218  0.74539  1.0000
  C   C175      1.0  0.19133  0.21467  0.73210  1.0000
  P   P5        1.0  0.18096  0.20092  0.77925  1.0000
  C   C176      1.0  0.16392  0.18583  0.78852  1.0000
  C   C177      1.0  0.21362  0.20038  0.79231  1.0000
  C   C178      1.0  0.23235  0.18967  0.78781  1.0000
  C   C179      1.0  0.25793  0.18921  0.79723  1.0000
  C   C180      1.0  0.26522  0.19960  0.81076  1.0000
  C   C181      1.0  0.24689  0.21045  0.81489  1.0000
  C   C182      1.0  0.22131  0.21094  0.80545  1.0000
  C   C183      1.0  0.17513  0.17535  0.80506  1.0000
  C   C184      1.0  0.16196  0.16352  0.81090  1.0000
  C   C185      1.0  0.13735  0.16217  0.80062  1.0000
  C   C186      1.0  0.12572  0.17270  0.78474  1.0000
  C   C187      1.0  0.13894  0.18448  0.77868  1.0000
  C   C188      1.0  0.15847  0.21451  0.78941  1.0000
  C   C189      1.0  0.49516  0.00544  0.84143  1.0000
  C   C190      1.0  0.07198  0.20607  0.65239  1.0000
  H   H129      1.0  0.22071  0.14172  0.83617  1.0000
  C   C191      1.0  0.28152  0.99580  0.79058  1.0000
  C   C192      1.0  0.49429  0.07891  0.84148  1.0000
  H   H130      1.0  0.28693  0.10241  0.92258  1.0000
  H   H131      1.0  0.20118  0.20473  0.67267  1.0000
  H   H132      1.0  0.19520  0.18250  0.69622  1.0000
  H   H133      1.0  0.18610  0.18072  0.74219  1.0000
  C   C193      1.0  0.12285  0.23515  0.80597  1.0000
  H   H134      1.0  0.22730  0.18178  0.77660  1.0000
  H   H135      1.0  0.27240  0.18099  0.79336  1.0000
  H   H136      1.0  0.28527  0.19936  0.81754  1.0000
  H   H137      1.0  0.25261  0.21856  0.82519  1.0000
  H   H138      1.0  0.20790  0.21968  0.80813  1.0000
  H   H139      1.0  0.19411  0.17613  0.81322  1.0000
  H   H140      1.0  0.17105  0.15528  0.82295  1.0000
  H   H141      1.0  0.12744  0.15290  0.80460  1.0000
  H   H142      1.0  0.10678  0.17156  0.77650  1.0000
  H   H143      1.0  0.12997  0.19242  0.76580  1.0000
  C   C194      1.0  0.01968  0.13247  0.56585  1.0000
  C   C195      1.0  0.01813  0.13116  0.61179  1.0000
  H   H144      1.0  0.35244  0.10678  0.77001  1.0000
  H   H145      1.0  0.16686  0.21006  0.82901  1.0000
  C   C196      1.0  0.00633  0.23696  0.70815  1.0000
  C   C197      1.0  0.01221  0.13820  0.58837  1.0000
  C   C198      1.0  0.27887  0.01273  0.97739  1.0000
  H   H146      1.0  0.29868  0.03638  0.91657  1.0000
  H   H147      1.0  0.00639  0.19528  0.62859  1.0000
  H   H148      1.0  0.00280  0.99877  0.49949  1.0000
  C   C199      1.0  0.47973  0.19691  0.85738  1.0000
  P   P6        1.0  0.00576  0.13794  0.64078  1.0000
  C   C200      1.0  0.03643  0.08082  0.63746  1.0000
  H   H149      1.0  0.44579  0.04653  0.96527  1.0000
  C   C201      1.0  0.01325  0.08350  0.65233  1.0000
  C   C202      1.0  0.05481  0.12992  0.66211  1.0000
  C   C203      1.0  0.48774  0.04590  0.95520  1.0000
  C   C204      1.0  0.06216  0.09278  0.66423  1.0000
  C   C205      1.0  0.03919  0.09557  0.67916  1.0000
  C   C206      1.0  0.29411  0.23494  0.80714  1.0000
  H   H150      1.0  0.01645  0.04644  0.51250  1.0000
  C   C207      1.0  0.09779  0.00948  0.54201  1.0000
  C   C208      1.0  0.47464  0.04851  0.89646  1.0000
  C   C209      1.0  0.04989  0.20686  0.66925  1.0000
  C   C210      1.0  0.32797  0.04190  0.85785  1.0000
  P   P7        1.0  0.26326  0.11954  0.83542  1.0000
  H   H151      1.0  0.48752  0.00618  0.80171  1.0000
  C   C211      1.0  0.02961  0.17649  0.63659  1.0000
  H   H152      1.0  0.27940  0.02439  0.82080  1.0000
  C   C212      1.0  0.05974  0.99700  0.53444  1.0000
  C   C213      1.0  0.21296  0.12075  0.77669  1.0000
  C   C214      1.0  0.25418  0.08523  0.88282  1.0000
  H   H153      1.0  0.11418  0.14519  0.56157  1.0000
  H   H154      1.0  0.48217  0.23240  0.91923  1.0000
  C   C215      1.0  0.01481  0.09100  0.67325  1.0000
  C   C216      1.0  0.00598  0.15613  0.63642  1.0000
  C   C217      1.0  0.10420  0.11625  0.53538  1.0000
  H   H155      1.0  0.03880  0.11523  0.54912  1.0000
  H   H156      1.0  0.08109  0.09633  0.66874  1.0000
  C   C218      1.0  0.32594  0.00325  0.79323  1.0000
  C   C219      1.0  0.13045  0.11060  0.53468  1.0000
  H   H157      1.0  0.05753  0.20874  0.72087  1.0000
  C   C220      1.0  0.02724  0.13234  0.66675  1.0000
  C   C221      1.0  0.33711  0.04143  0.79709  1.0000
  C   C222      1.0  0.01576  0.03825  0.64002  1.0000
  C   C223      1.0  0.07521  0.00292  0.55099  1.0000
  H   H158      1.0  0.18475  0.05313  0.54270  1.0000
  C   C224      1.0  0.45317  0.10548  0.82147  1.0000
  H   H159      1.0  0.41678  0.20668  0.79806  1.0000
  C   C225      1.0  0.26059  0.16270  0.86056  1.0000
  C   C226      1.0  0.03675  0.21943  0.67320  1.0000
  P   P8        1.0  0.02901  0.99005  0.54638  1.0000
  C   C227      1.0  0.27675  0.10046  0.90590  1.0000
  H   H160      1.0  0.37320  0.06905  0.78386  1.0000
  H   H161      1.0  0.31043  0.23101  0.84409  1.0000
  C   C228      1.0  0.46152  0.21762  0.87392  1.0000
  C   C229      1.0  0.46910  0.17180  0.79816  1.0000
  H   H162      1.0  0.17465  0.13485  0.50805  1.0000
  C   C230      1.0  0.23864  0.14505  0.84324  1.0000
  C   C231      1.0  0.08077  0.21773  0.63903  1.0000
  C   C232      1.0  0.42961  0.14608  0.87779  1.0000
  H   H163      1.0  0.09711  0.00362  0.48007  1.0000
  C   C233      1.0  0.18686  0.06978  0.56542  1.0000
  C   C234      1.0  0.29392  0.19650  0.74165  1.0000
  H   H164      1.0  0.33679  0.04994  0.84611  1.0000
  P   P9        1.0  0.18505  0.11020  0.54251  1.0000
  H   H165      1.0  0.02555  0.05561  0.65735  1.0000
  H   H166      1.0  0.19060  0.22370  0.74187  1.0000
  H   H167      1.0  0.43287  0.15050  0.91630  1.0000
  C   C235      1.0  0.46575  0.99363  0.92676  1.0000
  H   H168      1.0  0.48742  0.03695  0.94532  1.0000
  C   C236      1.0  0.02758  0.02930  0.49148  1.0000
  C   C237      1.0  0.34528  0.98974  0.90888  1.0000
  H   H169      1.0  0.04350  0.19770  0.67960  1.0000
  C   C238      1.0  0.18545  0.09209  0.54268  1.0000
  H   H170      1.0  0.29750  0.09460  0.83040  1.0000
  C   C239      1.0  0.03908  0.11263  0.58975  1.0000
  H   H171      1.0  0.47623  0.20840  0.73771  1.0000
  C   C240      1.0  0.26806  0.20240  0.73896  1.0000
  H   H172      1.0  0.34713  0.00150  0.78936  1.0000
  H   H173      1.0  0.12328  0.01477  0.50963  1.0000
  H   H174      1.0  0.16757  0.11428  0.82480  1.0000
  H   H175      1.0  0.43231  0.14095  0.83934  1.0000
  C   C241      1.0  0.18543  0.06396  0.54268  1.0000
  C   C242      1.0  0.12476  0.23284  0.78044  1.0000
  H   H176      1.0  0.33540  0.08912  0.80156  1.0000
  C   C243      1.0  0.28788  0.01599  0.81089  1.0000
  C   C244      1.0  0.04511  0.23106  0.65899  1.0000
  H   H177      1.0  0.33378  0.19933  0.75223  1.0000
  C   C245      1.0  0.48350  0.13678  0.87987  1.0000
  C   C246      1.0  0.25253  0.09497  0.86212  1.0000
  C   C247      1.0  0.31374  0.20392  0.74994  1.0000
  C   C248      1.0  0.20956  0.11584  0.82934  1.0000
  H   H178      1.0  0.04782  0.15657  0.64422  1.0000
  H   H179      1.0  0.10906  0.01445  0.55488  1.0000
  C   C249      1.0  0.45640  0.03856  0.89930  1.0000
  H   H180      1.0  0.36508  0.00642  0.85369  1.0000
  H   H181      1.0  0.06346  0.13094  0.64305  1.0000
  H   H182      1.0  0.48570  0.22886  0.80419  1.0000
  C   C250      1.0  0.15103  0.11737  0.54368  1.0000
  H   H183      1.0  0.43546  0.04131  0.90298  1.0000
  H   H184      1.0  0.04955  0.10273  0.59016  1.0000
  H   H185      1.0  0.46792  0.05889  0.89846  1.0000
  H   H186      1.0  0.07864  0.08305  0.63201  1.0000
  C   C251      1.0  0.26192  0.21564  0.74499  1.0000
  C   C252      1.0  0.15560  0.21654  0.81521  1.0000
  H   H187      1.0  0.04033  0.10121  0.69543  1.0000
  H   H188      1.0  0.24180  0.21995  0.74291  1.0000
  H   H189      1.0  0.38754  0.22847  0.87600  1.0000
  S   S42       1.0  0.14812  0.04453  0.50186  1.0000
  C   C253      1.0  0.41277  0.01218  0.79495  1.0000
  H   H190      1.0  0.24967  0.00804  0.80716  1.0000
  C   C254      1.0  0.06076  0.08538  0.64341  1.0000
  C   C255      1.0  0.31461  0.01900  0.86526  1.0000
  C   C256      1.0  0.33600  0.10924  0.78304  1.0000
  C   C257      1.0  0.30782  0.21728  0.75528  1.0000
  H   H191      1.0  0.40871  0.14952  0.87710  1.0000
  C   C258      1.0  0.45955  0.20398  0.87071  1.0000
  C   C259      1.0  0.06161  0.12607  0.70709  1.0000
  H   H192      1.0  0.09303  0.12496  0.67841  1.0000
  H   H193      1.0  0.07492  0.12406  0.72264  1.0000
  C   C260      1.0  0.28174  0.22320  0.75326  1.0000
  H   H194      1.0  0.08836  0.11080  0.52884  1.0000
  H   H195      1.0  0.44261  0.22095  0.82199  1.0000
  C   C261      1.0  0.37991  0.22975  0.85718  1.0000
  H   H196      1.0  0.09511  0.04023  0.48503  1.0000
  C   C262      1.0  0.18382  0.07215  0.51994  1.0000
  C   C263      1.0  0.30488  0.10251  0.81720  1.0000
  C   C264      1.0  0.44290  0.14116  0.85657  1.0000
  C   C265      1.0  0.46516  0.02503  0.89799  1.0000
  H   H197      1.0  0.30063  0.05985  0.75176  1.0000
  C   C266      1.0  0.48040  0.08290  0.86340  1.0000
  C   C267      1.0  0.18364  0.08615  0.51991  1.0000
  H   H198      1.0  0.38220  0.02628  0.77977  1.0000
  H   H199      1.0  0.33217  0.13021  0.76885  1.0000
  C   C268      1.0  0.31813  0.04448  0.88211  1.0000
  C   C269      1.0  0.03429  0.12842  0.71194  1.0000
  C   C270      1.0  0.07180  0.12666  0.68218  1.0000
  C   C271      1.0  0.01360  0.04157  0.49552  1.0000
  C   C272      1.0  0.32638  0.09931  0.80071  1.0000
  H   H200      1.0  0.03569  0.07494  0.62149  1.0000
  C   C273      1.0  0.18671  0.11592  0.81529  1.0000
  H   H201      1.0  0.44211  0.19894  0.87814  1.0000
  C   C274      1.0  0.28508  0.14148  0.85360  1.0000
  H   H202      1.0  0.37352  0.04765  0.81120  1.0000
  H   H203      1.0  0.47412  0.10402  0.82481  1.0000
  C   C275      1.0  0.37079  0.01776  0.81743  1.0000
  C   C276      1.0  0.35752  0.05020  0.79828  1.0000
  H   H204      1.0  0.32366  0.22298  0.76104  1.0000
  C   C277      1.0  0.27096  0.00677  0.80318  1.0000
  C   C278      1.0  0.26226  0.13660  0.84456  1.0000
  H   H205      1.0  0.01238  0.06621  0.55566  1.0000
  H   H206      1.0  0.40658  0.00123  0.89443  1.0000
  C   C279      1.0  0.37848  0.00838  0.83751  1.0000
  H   H207      1.0  0.00955  0.09926  0.49772  1.0000
  H   H208      1.0  0.00644  0.08999  0.59811  1.0000
  H   H209      1.0  0.31970  0.05431  0.88886  1.0000
  C   C280      1.0  0.40306  0.00091  0.83625  1.0000
  C   C281      1.0  0.49479  0.08385  0.88517  1.0000
  C   C282      1.0  0.46954  0.21102  0.75637  1.0000
  C   C283      1.0  0.01716  0.13147  0.69193  1.0000
  H   H210      1.0  0.16044  0.13539  0.56029  1.0000
  C   C284      1.0  0.32627  0.02912  0.84918  1.0000
  H   H211      1.0  0.49495  0.14016  0.78902  1.0000
  C   C285      1.0  0.35737  0.06235  0.78285  1.0000
  C   C286      1.0  0.31557  0.01422  0.80623  1.0000
  C   C287      1.0  0.31650  0.05716  0.76480  1.0000
  H   H212      1.0  0.33673  0.07523  0.75411  1.0000
  H   H213      1.0  0.30067  0.03845  0.77875  1.0000
  C   C288      1.0  0.03112  0.11821  0.61230  1.0000
  H   H214      1.0  0.13618  0.22855  0.84329  1.0000
  C   C289      1.0  0.30618  0.03440  0.89774  1.0000
  C   C290      1.0  0.31660  0.04500  0.78020  1.0000
  C   C291      1.0  0.33686  0.06583  0.76612  1.0000
  C   C292      1.0  0.38811  0.01958  0.79604  1.0000
  C   C293      1.0  0.30416  0.02174  0.88918  1.0000
  H   H215      1.0  0.03501  0.11240  0.63008  1.0000
  H   H216      1.0  0.40851  0.99324  0.85127  1.0000
  C   C294      1.0  0.09840  0.12880  0.54474  1.0000
  C   C295      1.0  0.44322  0.14657  0.89994  1.0000
  C   C296      1.0  0.23793  0.15807  0.85100  1.0000
  H   H217      1.0  0.31349  0.00895  0.85937  1.0000
  H   H218      1.0  0.08295  0.19648  0.65022  1.0000
  C   C297      1.0  0.27518  0.11021  0.88526  1.0000
  H   H219      1.0  0.47428  0.00717  0.84691  1.0000
  H   H220      1.0  0.09847  0.21709  0.62666  1.0000
  H   H221      1.0  0.05702  0.99235  0.49553  1.0000
  C   C298      1.0  0.06805  0.99705  0.50882  1.0000
  C   C299      1.0  0.26283  0.10760  0.86323  1.0000
  H   H222      1.0  0.30112  0.22507  0.80186  1.0000
  H   H223      1.0  0.30152  0.15784  0.86988  1.0000
  C   C300      1.0  0.29304  0.11572  0.81637  1.0000
  C   C301      1.0  0.23584  0.12068  0.79063  1.0000
  H   H224      1.0  0.35235  0.23440  0.78996  1.0000
  H   H225      1.0  0.47224  0.00039  0.93967  1.0000
  H   H226      1.0  0.30361  0.13529  0.85453  1.0000
  H   H227      1.0  0.21973  0.16454  0.84985  1.0000
  C   C302      1.0  0.47816  0.99306  0.90263  1.0000
  H   H228      1.0  0.00118  0.02231  0.62101  1.0000
  H   H229      1.0  0.24646  0.07547  0.88180  1.0000
  H   H230      1.0  0.19900  0.22533  0.69563  1.0000
  H   H231      1.0  0.16777  0.11265  0.59523  1.0000
  H   H232      1.0  0.45904  0.12097  0.79093  1.0000
  H   H233      1.0  0.13450  0.10093  0.52721  1.0000
  H   H234      1.0  0.18159  0.09233  0.50216  1.0000
  H   H235      1.0  0.04157  0.02477  0.50524  1.0000
  H   H236      1.0  0.48357  0.11564  0.91750  1.0000
  C   C303      1.0  0.36020  0.23300  0.80870  1.0000
  H   H237      1.0  0.24378  0.09250  0.84507  1.0000
  C   C304      1.0  0.23744  0.11513  0.48161  1.0000
  H   H238      1.0  0.25436  0.12303  0.78063  1.0000
  H   H239      1.0  0.47803  0.18639  0.85458  1.0000
  C   C305      1.0  0.19212  0.12922  0.50094  1.0000
  C   C306      1.0  0.26637  0.08798  0.90468  1.0000
  H   H240      1.0  0.20776  0.11428  0.84977  1.0000
  H   H241      1.0  0.41399  0.01137  0.97632  1.0000
  C   C307      1.0  0.22452  0.11001  0.50393  1.0000
  C   C308      1.0  0.01146  0.16568  0.70799  1.0000
  C   C309      1.0  0.49430  0.15065  0.79272  1.0000
  C   C310      1.0  0.01112  0.05153  0.64626  1.0000
  C   C311      1.0  0.48388  0.22425  0.86396  1.0000
  C   C312      1.0  0.47476  0.22250  0.79374  1.0000
  H   H242      1.0  0.14266  0.22068  0.75242  1.0000
  C   C313      1.0  0.00048  0.09074  0.50783  1.0000
  C   C314      1.0  0.14225  0.22248  0.77219  1.0000
  C   C315      1.0  0.42014  0.00278  0.81498  1.0000
  C   C316      1.0  0.30895  0.99409  0.78553  1.0000
  C   C317      1.0  0.04042  0.20440  0.73065  1.0000
  C   C318      1.0  0.44529  0.20654  0.76656  1.0000
  H   H243      1.0  0.18193  0.06760  0.50243  1.0000
  H   H244      1.0  0.00143  0.14801  0.58747  1.0000
  H   H245      1.0  0.29254  0.23706  0.70602  1.0000
  C   C319      1.0  0.13581  0.23803  0.67912  1.0000
  H   H246      1.0  0.48045  0.14252  0.91822  1.0000
  H   H247      1.0  0.06458  0.19084  0.75560  1.0000
  C   C320      1.0  0.37089  0.99038  0.89784  1.0000
  C   C321      1.0  0.01448  0.20843  0.72305  1.0000
  H   H248      1.0  0.01488  0.13789  0.54783  1.0000
  H   H249      1.0  0.48387  0.07833  0.82430  1.0000
  H   H250      1.0  0.07810  0.13316  0.54542  1.0000
  H   H251      1.0  0.11414  0.99133  0.58589  1.0000
  P   P10       1.0  0.00922  0.22056  0.69606  1.0000
  C   C322      1.0  0.00212  0.07204  0.54039  1.0000
  H   H252      1.0  0.49363  0.09794  0.95185  1.0000
  C   C323      1.0  0.13810  0.22693  0.82340  1.0000
  C   C324      1.0  0.11877  0.23719  0.70064  1.0000
  H   H253      1.0  0.26373  0.01950  0.96821  1.0000
  H   H254      1.0  0.48502  0.08684  0.90247  1.0000
  H   H255      1.0  0.19205  0.99168  0.64263  1.0000
  H   H256      1.0  0.15495  0.00123  0.47839  1.0000
  C   C325      1.0  0.29928  0.23823  0.83137  1.0000
  H   H257      1.0  0.26856  0.98848  0.78498  1.0000
  Fe  Fe22      1.0  0.08933  0.45432  0.33402  1.0000
  S   S43       1.0  0.10383  0.45117  0.37374  1.0000
  S   S44       1.0  0.04550  0.46304  0.33434  1.0000
  Fe  Fe23      1.0  0.14690  0.44668  0.31140  1.0000
  S   S45       1.0  0.16359  0.44245  0.34996  1.0000
  S   S46       1.0  0.17420  0.44623  0.27496  1.0000
  Fe  Fe24      1.0  0.12587  0.43247  0.36160  1.0000
  S   S47       1.0  0.12231  0.41349  0.38815  1.0000
  Fe  Fe25      1.0  0.13994  0.46145  0.35876  1.0000
  S   S48       1.0  0.11014  0.43493  0.32218  1.0000
  S   S49       1.0  0.12441  0.46637  0.31996  1.0000
  C   C326      1.0  0.20468  0.33698  0.45433  1.0000
  Fe  Fe26      1.0  0.33103  0.44265  0.21782  1.0000
  S   S50       1.0  0.31854  0.44187  0.17797  1.0000
  S   S51       1.0  0.30191  0.44089  0.25296  1.0000
  Fe  Fe27      1.0  0.38979  0.44886  0.19939  1.0000
  S   S52       1.0  0.37963  0.44925  0.15856  1.0000
  S   S53       1.0  0.43092  0.45590  0.20766  1.0000
  Fe  Fe28      1.0  0.34129  0.46034  0.16951  1.0000
  Fe  Fe29      1.0  0.35816  0.43071  0.17066  1.0000
  S   S54       1.0  0.36794  0.41275  0.14779  1.0000
  S   S55       1.0  0.35248  0.46170  0.20936  1.0000
  S   S56       1.0  0.36960  0.42970  0.21151  1.0000
  S   S57       1.0  0.38060  0.37805  0.01375  1.0000
  S   S58       1.0  0.45596  0.38630  0.01203  1.0000
  Fe  Fe30      1.0  0.35909  0.39843  0.00614  1.0000
  S   S59       1.0  0.33351  0.40978  0.03476  1.0000
  H   H258      1.0  0.21409  0.39737  0.13928  1.0000
  C   C327      1.0  0.37973  0.45797  0.99214  1.0000
  C   C328      1.0  0.40521  0.45110  0.06854  1.0000
  H   H259      1.0  0.31303  0.44964  0.08780  1.0000
  C   C329      1.0  0.46417  0.44817  0.20602  1.0000
  H   H260      1.0  0.06951  0.47295  0.28591  1.0000
  C   C330      1.0  0.46956  0.43420  0.20657  1.0000
  H   H261      1.0  0.27058  0.46754  0.98994  1.0000
  H   H262      1.0  0.45321  0.42772  0.20794  1.0000
  C   C331      1.0  0.35928  0.41269  0.11589  1.0000
  C   C332      1.0  0.37240  0.40317  0.10091  1.0000
  C   C333      1.0  0.36515  0.40237  0.07584  1.0000
  C   C334      1.0  0.34433  0.41092  0.06568  1.0000
  C   C335      1.0  0.33132  0.42049  0.08058  1.0000
  C   C336      1.0  0.33892  0.42149  0.10552  1.0000
  H   H263      1.0  0.38809  0.39629  0.10883  1.0000
  H   H264      1.0  0.37527  0.39492  0.06459  1.0000
  H   H265      1.0  0.31509  0.42705  0.07283  1.0000
  H   H266      1.0  0.32857  0.42878  0.11696  1.0000
  C   C337      1.0  0.44469  0.46267  0.13849  1.0000
  H   H267      1.0  0.29335  0.47372  0.38379  1.0000
  H   H268      1.0  0.42034  0.40638  0.18691  1.0000
  H   H269      1.0  0.02929  0.44210  0.30334  1.0000
  H   H270      1.0  0.20080  0.42159  0.40333  1.0000
  C   C338      1.0  0.20987  0.44513  0.26936  1.0000
  C   C339      1.0  0.22065  0.44766  0.24451  1.0000
  C   C340      1.0  0.24856  0.44664  0.23914  1.0000
  C   C341      1.0  0.26633  0.44294  0.25854  1.0000
  C   C342      1.0  0.25556  0.44047  0.28338  1.0000
  C   C343      1.0  0.22767  0.44152  0.28874  1.0000
  H   H271      1.0  0.20726  0.45037  0.22923  1.0000
  H   H272      1.0  0.25631  0.44857  0.21993  1.0000
  H   H273      1.0  0.26893  0.43752  0.29859  1.0000
  H   H274      1.0  0.21986  0.43920  0.30778  1.0000
  C   C344      1.0  0.12685  0.41505  0.42049  1.0000
  C   C345      1.0  0.11672  0.40559  0.43904  1.0000
  C   C346      1.0  0.12278  0.40576  0.46460  1.0000
  H   H275      1.0  0.21906  0.48023  0.45926  1.0000
  C   C347      1.0  0.14801  0.42529  0.45335  1.0000
  C   C348      1.0  0.14182  0.42516  0.42785  1.0000
  H   H276      1.0  0.10440  0.39802  0.43360  1.0000
  C   C349      1.0  0.35979  0.46740  0.98256  1.0000
  H   H277      1.0  0.16024  0.43292  0.45878  1.0000
  H   H278      1.0  0.14927  0.43261  0.41372  1.0000
  C   C350      1.0  0.27665  0.47989  0.39086  1.0000
  C   C351      1.0  0.42679  0.48217  0.04499  1.0000
  C   C352      1.0  0.49679  0.36499  0.06613  1.0000
  H   H279      1.0  0.24409  0.42382  0.20485  1.0000
  C   C353      1.0  0.00897  0.47385  0.39987  1.0000
  C   C354      1.0  0.18916  0.47795  0.30292  1.0000
  C   C355      1.0  0.28059  0.45766  0.98855  1.0000
  H   H280      1.0  0.48216  0.46716  0.20503  1.0000
  H   H281      1.0  0.15393  0.44029  0.16479  1.0000
  P   P11       1.0  0.44649  0.46829  0.06089  1.0000
  C   C356      1.0  0.25130  0.47984  0.38093  1.0000
  H   H282      1.0  0.18550  0.33666  0.44603  1.0000
  H   H283      1.0  0.37261  0.43823  0.07418  1.0000
  C   C357      1.0  0.49619  0.42854  0.20643  1.0000
  C   C358      1.0  0.49090  0.47888  0.03489  1.0000
  C   C359      1.0  0.16089  0.36229  0.46139  1.0000
  S   S60       1.0  0.32226  0.47798  0.14596  1.0000
  S   S61       1.0  0.39511  0.40856  0.98991  1.0000
  H   H284      1.0  0.27586  0.41728  0.23828  1.0000
  C   C360      1.0  0.46163  0.40095  0.17731  1.0000
  C   C361      1.0  0.22692  0.32977  0.44428  1.0000
  H   H285      1.0  0.24793  0.44106  0.34337  1.0000
  H   H286      1.0  0.29095  0.39956  0.07744  1.0000
  C   C362      1.0  0.07086  0.48789  0.25400  1.0000
  H   H287      1.0  0.02827  0.35454  0.46327  1.0000
  C   C363      1.0  0.05313  0.47129  0.41631  1.0000
  C   C364      1.0  0.43412  0.34845  0.01104  1.0000
  C   C365      1.0  0.27554  0.46420  0.33886  1.0000
  H   H288      1.0  0.29146  0.45063  0.36958  1.0000
  S   S62       1.0  0.16026  0.47603  0.37977  1.0000
  H   H289      1.0  0.22487  0.32399  0.42831  1.0000
  H   H290      1.0  0.30448  0.46755  0.27940  1.0000
  H   H291      1.0  0.34305  0.46455  0.10519  1.0000
  C   C366      1.0  0.43775  0.40896  0.17517  1.0000
  C   C367      1.0  0.30815  0.45543  0.99194  1.0000
  H   H292      1.0  0.43071  0.47385  0.00880  1.0000
  H   H293      1.0  0.42446  0.34954  0.02944  1.0000
  H   H294      1.0  0.21010  0.46390  0.40187  1.0000
  C   C368      1.0  0.44964  0.47054  0.09397  1.0000
  H   H295      1.0  0.39707  0.45773  0.08239  1.0000
  H   H296      1.0  0.44743  0.40963  0.05677  1.0000
  H   H297      1.0  0.06501  0.40449  0.37824  1.0000
  C   C369      1.0  0.05537  0.42460  0.38863  1.0000
  H   H298      1.0  0.31960  0.40561  0.22832  1.0000
  C   C370      1.0  0.27954  0.46897  0.31331  1.0000
  H   H299      1.0  0.26824  0.47244  0.10743  1.0000
  Fe  Fe31      1.0  0.41574  0.38799  0.99499  1.0000
  H   H300      1.0  0.41774  0.42652  0.15631  1.0000
  C   C371      1.0  0.47429  0.41401  0.08485  1.0000
  C   C372      1.0  0.28072  0.48804  0.41018  1.0000
  H   H301      1.0  0.06513  0.42929  0.37180  1.0000
  H   H302      1.0  0.14889  0.46513  0.46704  1.0000
  H   H303      1.0  0.17633  0.47240  0.29253  1.0000
  C   C373      1.0  0.04318  0.46434  0.43841  1.0000
  H   H304      1.0  0.21879  0.40187  0.18873  1.0000
  H   H305      1.0  0.04401  0.44336  0.40395  1.0000
  C   C374      1.0  0.45852  0.42377  0.14262  1.0000
  C   C375      1.0  0.13548  0.37554  0.41911  1.0000
  C   C376      1.0  0.33995  0.46543  0.08508  1.0000
  H   H306      1.0  0.46159  0.41816  0.98277  1.0000
  H   H307      1.0  0.45673  0.47586  0.16487  1.0000
  H   H308      1.0  0.17406  0.40326  0.20983  1.0000
  H   H309      1.0  0.07421  0.47272  0.41364  1.0000
  C   C377      1.0  0.44209  0.46070  0.11307  1.0000
  C   C378      1.0  0.17528  0.37016  0.44295  1.0000
  C   C379      1.0  0.43629  0.42039  0.15793  1.0000
  C   C380      1.0  0.03599  0.47615  0.39717  1.0000
  C   C381      1.0  0.22553  0.43000  0.37248  1.0000
  C   C382      1.0  0.06873  0.48364  0.27974  1.0000
  C   C383      1.0  0.45948  0.35297  0.00556  1.0000
  H   H310      1.0  0.25846  0.38223  0.07590  1.0000
  C   C384      1.0  0.46345  0.48402  0.12623  1.0000
  C   C385      1.0  0.03086  0.41234  0.43245  1.0000
  C   C386      1.0  0.04345  0.43252  0.40688  1.0000
  H   H311      1.0  0.33102  0.44248  0.34462  1.0000
  C   C387      1.0  0.01608  0.46193  0.44111  1.0000
  H   H312      1.0  0.47536  0.36463  0.06880  1.0000
  H   H313      1.0  0.22009  0.38120  0.10692  1.0000
  C   C388      1.0  0.48590  0.45636  0.20506  1.0000
  P   P12       1.0  0.01391  0.40435  0.45986  1.0000
  H   H314      1.0  0.04378  0.48131  0.37979  1.0000
  C   C389      1.0  0.35288  0.47498  0.06906  1.0000
  C   C390      1.0  0.21491  0.47025  0.46748  1.0000
  C   C391      1.0  0.48018  0.46742  0.04765  1.0000
  H   H315      1.0  0.43223  0.42741  0.01813  1.0000
  H   H316      1.0  0.02099  0.43270  0.44220  1.0000
  H   H317      1.0  0.19848  0.43915  0.14356  1.0000
  C   C392      1.0  0.42953  0.45351  0.05557  1.0000
  C   C393      1.0  0.31677  0.45001  0.33604  1.0000
  C   C394      1.0  0.42487  0.43402  0.03231  1.0000
  C   C395      1.0  0.40103  0.43153  0.04579  1.0000
  H   H318      1.0  0.20454  0.46029  0.32503  1.0000
  C   C396      1.0  0.03177  0.38822  0.46786  1.0000
  H   H319      1.0  0.33724  0.45077  0.29939  1.0000
  H   H320      1.0  0.45711  0.44689  0.02587  1.0000
  C   C397      1.0  0.23613  0.44169  0.36080  1.0000
  H   H321      1.0  0.34103  0.44008  0.99441  1.0000
  H   H322      1.0  0.14166  0.42249  0.19812  1.0000
  H   H323      1.0  0.21043  0.48822  0.38328  1.0000
  C   C398      1.0  0.01413  0.45875  0.32396  1.0000
  H   H324      1.0  0.31435  0.42166  0.98547  1.0000
  H   H325      1.0  0.24441  0.44891  0.98048  1.0000
  H   H326      1.0  0.40079  0.48013  0.22994  1.0000
  P   P13       1.0  0.24529  0.46913  0.35642  1.0000
  H   H327      1.0  0.39000  0.42305  0.04204  1.0000
  H   H328      1.0  0.49608  0.38605  0.07142  1.0000
  C   C399      1.0  0.45507  0.47437  0.14510  1.0000
  C   C400      1.0  0.33254  0.46737  0.03282  1.0000
  C   C401      1.0  0.48234  0.41557  0.14399  1.0000
  C   C402      1.0  0.48209  0.38757  0.98911  1.0000
  C   C403      1.0  0.03083  0.42644  0.42857  1.0000
  C   C404      1.0  0.01166  0.44808  0.30910  1.0000
  H   H329      1.0  0.45696  0.43253  0.12912  1.0000
  H   H330      1.0  0.33115  0.39991  0.18455  1.0000
  C   C405      1.0  0.48384  0.40420  0.16174  1.0000
  C   C406      1.0  0.20966  0.43057  0.39468  1.0000
  C   C407      1.0  0.39120  0.44009  0.06386  1.0000
  C   C408      1.0  0.20440  0.44283  0.40518  1.0000
  H   H331      1.0  0.19148  0.44339  0.42196  1.0000
  C   C409      1.0  0.25177  0.33001  0.45483  1.0000
  H   H332      1.0  0.37636  0.45201  0.00993  1.0000
  C   C410      1.0  0.32311  0.45694  0.07518  1.0000
  H   H333      1.0  0.48931  0.44684  0.06328  1.0000
  H   H334      1.0  0.43425  0.45149  0.10861  1.0000
  C   C411      1.0  0.34953  0.47579  0.04299  1.0000
  C   C412      1.0  0.30190  0.46424  0.29933  1.0000
  C   C413      1.0  0.12108  0.36759  0.43713  1.0000
  H   H335      1.0  0.30608  0.45120  0.04202  1.0000
  C   C414      1.0  0.04301  0.40445  0.41404  1.0000
  H   H336      1.0  0.28526  0.41580  0.10983  1.0000
  H   H337      1.0  0.41854  0.44808  0.98515  1.0000
  H   H338      1.0  0.25909  0.47712  0.24831  1.0000
  H   H339      1.0  0.10005  0.36667  0.43483  1.0000
  C   C415      1.0  0.16253  0.37687  0.42207  1.0000
  C   C416      1.0  0.02218  0.37618  0.46134  1.0000
  C   C417      1.0  0.47144  0.35216  0.98146  1.0000
  H   H340      1.0  0.19633  0.37121  0.44484  1.0000
  H   H341      1.0  0.37840  0.47902  0.15460  1.0000
  C   C418      1.0  0.31929  0.45790  0.04916  1.0000
  H   H342      1.0  0.46952  0.35759  0.01975  1.0000
  C   C419      1.0  0.21506  0.45452  0.39362  1.0000
  H   H343      1.0  0.46287  0.39221  0.19099  1.0000
  C   C420      1.0  0.43905  0.44500  0.03702  1.0000
  C   C421      1.0  0.22896  0.45907  0.45801  1.0000
  H   H344      1.0  0.05667  0.46048  0.45303  1.0000
  C   C422      1.0  0.23020  0.48813  0.39055  1.0000
  P   P14       1.0  0.32755  0.46905  0.99914  1.0000
  C   C423      1.0  0.29441  0.45469  0.35011  1.0000
  H   H345      1.0  0.22908  0.42056  0.36395  1.0000
  C   C424      1.0  0.20523  0.47109  0.32140  1.0000
  H   H346      1.0  0.24385  0.46052  0.44281  1.0000
  H   H347      1.0  0.17348  0.38324  0.40824  1.0000
  H   H348      1.0  0.12562  0.38093  0.40305  1.0000
  C   C425      1.0  0.46772  0.41160  0.06051  1.0000
  C   C426      1.0  0.23112  0.45406  0.37135  1.0000
  C   C427      1.0  0.25563  0.45302  0.10005  1.0000
  C   C428      1.0  0.26319  0.46253  0.11554  1.0000
  C   C429      1.0  0.26431  0.45926  0.14160  1.0000
  C   C430      1.0  0.25862  0.44639  0.15214  1.0000
  C   C431      1.0  0.25233  0.43656  0.13663  1.0000
  C   C432      1.0  0.24993  0.44012  0.11056  1.0000
  P   P15       1.0  0.24543  0.41990  0.15061  1.0000
  C   C433      1.0  0.24931  0.40787  0.12702  1.0000
  C   C434      1.0  0.26894  0.41508  0.17522  1.0000
  C   C435      1.0  0.29382  0.40841  0.16980  1.0000
  C   C436      1.0  0.31187  0.40490  0.18895  1.0000
  C   C437      1.0  0.30538  0.40808  0.21360  1.0000
  C   C438      1.0  0.28075  0.41471  0.21918  1.0000
  C   C439      1.0  0.26271  0.41833  0.20010  1.0000
  C   C440      1.0  0.23096  0.39801  0.12600  1.0000
  C   C441      1.0  0.23425  0.38880  0.10761  1.0000
  C   C442      1.0  0.25584  0.38936  0.09013  1.0000
  C   C443      1.0  0.27415  0.39913  0.09099  1.0000
  C   C444      1.0  0.27090  0.40832  0.10935  1.0000
  C   C445      1.0  0.21203  0.42043  0.16464  1.0000
  C   C446      1.0  0.19343  0.43119  0.15784  1.0000
  C   C447      1.0  0.16809  0.43187  0.16982  1.0000
  C   C448      1.0  0.16114  0.42183  0.18856  1.0000
  C   C449      1.0  0.17941  0.41099  0.19516  1.0000
  C   C450      1.0  0.20473  0.41025  0.18320  1.0000
  H   H349      1.0  0.25441  0.45563  0.07987  1.0000
  C   C451      1.0  0.46094  0.48207  0.10076  1.0000
  H   H350      1.0  0.27003  0.46667  0.15363  1.0000
  H   H351      1.0  0.25953  0.44410  0.17240  1.0000
  H   H352      1.0  0.24381  0.43297  0.09826  1.0000
  H   H353      1.0  0.29977  0.40602  0.15087  1.0000
  C   C452      1.0  0.03632  0.36381  0.46745  1.0000
  H   H354      1.0  0.04311  0.39357  0.41643  1.0000
  C   C453      1.0  0.32009  0.44230  0.99117  1.0000
  C   C454      1.0  0.11327  0.47626  0.45509  1.0000
  H   H355      1.0  0.49412  0.44121  0.15409  1.0000
  C   C455      1.0  0.05515  0.41059  0.39221  1.0000
  H   H356      1.0  0.10795  0.46845  0.44387  1.0000
  C   C456      1.0  0.42082  0.34293  0.99247  1.0000
  H   H357      1.0  0.07335  0.48050  0.24025  1.0000
  H   H358      1.0  0.10381  0.48249  0.37476  1.0000
  H   H359      1.0  0.12221  0.35472  0.47164  1.0000
  C   C457      1.0  0.13372  0.36093  0.45817  1.0000
  H   H360      1.0  0.43867  0.45511  0.15322  1.0000
  C   C458      1.0  0.30495  0.43174  0.98614  1.0000
  H   H361      1.0  0.45853  0.41398  0.09929  1.0000
  H   H362      1.0  0.26900  0.32442  0.44703  1.0000
  C   C459      1.0  0.13681  0.47446  0.46823  1.0000
  H   H363      1.0  0.23419  0.43737  0.46032  1.0000
  C   C460      1.0  0.22219  0.47814  0.33473  1.0000
  C   C461      1.0  0.37234  0.48726  0.14096  1.0000
  C   C462      1.0  0.32042  0.45472  0.31062  1.0000
  C   C463      1.0  0.48737  0.41123  0.04119  1.0000
  C   C464      1.0  0.27229  0.48459  0.23996  1.0000
  H   H364      1.0  0.40086  0.33969  0.99652  1.0000
  H   H365      1.0  0.48226  0.40923  0.02243  1.0000
  H   H366      1.0  0.00884  0.45621  0.45803  1.0000
  C   C465      1.0  0.25440  0.33745  0.47546  1.0000
  C   C466      1.0  0.20719  0.34454  0.47496  1.0000
  C   C467      1.0  0.27775  0.43413  0.98213  1.0000
  C   C468      1.0  0.49682  0.45561  0.05242  1.0000
  C   C469      1.0  0.13893  0.41546  0.47172  1.0000
  H   H367      1.0  0.26514  0.47602  0.30380  1.0000
  H   H368      1.0  0.00132  0.44929  0.38548  1.0000
  C   C470      1.0  0.09729  0.48826  0.45580  1.0000
  H   H369      1.0  0.29050  0.47159  0.21294  1.0000
  C   C471      1.0  0.22353  0.44603  0.46787  1.0000
  C   C472      1.0  0.28997  0.48146  0.22000  1.0000
  H   H370      1.0  0.00372  0.37622  0.45172  1.0000
  C   C473      1.0  0.42218  0.48206  0.01915  1.0000
  H   H371      1.0  0.35958  0.48322  0.03076  1.0000
  H   H372      1.0  0.36545  0.48175  0.07695  1.0000
  C   C474      1.0  0.26555  0.44708  0.98343  1.0000
  C   C475      1.0  0.31024  0.48509  0.98900  1.0000
  C   C476      1.0  0.40374  0.45576  0.97827  1.0000
  H   H373      1.0  0.30033  0.48806  0.41777  1.0000
  H   H374      1.0  0.47886  0.48830  0.03201  1.0000
  H   H375      1.0  0.49062  0.35619  0.97786  1.0000
  H   H376      1.0  0.26617  0.42590  0.97819  1.0000
  Fe  Fe32      1.0  0.14751  0.47737  0.66932  1.0000
  S   S63       1.0  0.13621  0.47572  0.71062  1.0000
  S   S64       1.0  0.16126  0.45967  0.64745  1.0000
  H   H377      1.0  0.41903  0.25856  0.94857  1.0000
  C   C477      1.0  0.00585  0.35783  0.74746  1.0000
  S   S65       1.0  0.32866  0.47274  0.90461  1.0000
  Fe  Fe33      1.0  0.13836  0.38339  0.58386  1.0000
  S   S66       1.0  0.09532  0.38564  0.59584  1.0000
  S   S67       1.0  0.16596  0.37022  0.60991  1.0000
  Fe  Fe34      1.0  0.12947  0.40257  0.53527  1.0000
  S   S68       1.0  0.08542  0.40546  0.54359  1.0000
  Fe  Fe35      1.0  0.09740  0.40763  0.58317  1.0000
  S   S69       1.0  0.07753  0.42369  0.60645  1.0000
  Fe  Fe36      1.0  0.08801  0.38323  0.55542  1.0000
  S   S70       1.0  0.06427  0.36619  0.54665  1.0000
  S   S71       1.0  0.14138  0.40564  0.57448  1.0000
  S   S72       1.0  0.13123  0.38008  0.54373  1.0000
  Fe  Fe37      1.0  0.38373  0.40247  0.95263  1.0000
  C   C478      1.0  0.07215  0.46664  0.52982  1.0000
  S   S73       1.0  0.39220  0.41569  0.91673  1.0000
  H   H378      1.0  0.03159  0.29562  0.54550  1.0000
  H   H379      1.0  0.10922  0.24320  0.81224  1.0000
  C   C479      1.0  0.32738  0.26761  0.72561  1.0000
  S   S74       1.0  0.40740  0.38252  0.95647  1.0000
  Fe  Fe38      1.0  0.36993  0.30846  0.84240  1.0000
  S   S75       1.0  0.37419  0.31181  0.79991  1.0000
  S   S76       1.0  0.36827  0.32912  0.85816  1.0000
  Fe  Fe39      1.0  0.37660  0.27789  0.83965  1.0000
  S   S77       1.0  0.38215  0.27971  0.79741  1.0000
  S   S78       1.0  0.38058  0.25710  0.86136  1.0000
  Fe  Fe40      1.0  0.40862  0.29623  0.80313  1.0000
  S   S79       1.0  0.44620  0.30036  0.77900  1.0000
  Fe  Fe41      1.0  0.34703  0.29505  0.79822  1.0000
  S   S80       1.0  0.31755  0.29540  0.76629  1.0000
  S   S81       1.0  0.40568  0.29349  0.84539  1.0000
  S   S82       1.0  0.34014  0.29259  0.84056  1.0000
  Fe  Fe42      1.0  0.12195  0.27267  0.70977  1.0000
  S   S83       1.0  0.12245  0.28227  0.74624  1.0000
  S   S84       1.0  0.10801  0.25146  0.71666  1.0000
  Fe  Fe43      1.0  0.13574  0.29892  0.67926  1.0000
  S   S85       1.0  0.13743  0.30998  0.71389  1.0000
  S   S86       1.0  0.13674  0.30957  0.63943  1.0000
  Fe  Fe44      1.0  0.16034  0.29112  0.73075  1.0000
  S   S87       1.0  0.19176  0.28983  0.76125  1.0000
  Fe  Fe45      1.0  0.09978  0.29998  0.72640  1.0000
  S   S88       1.0  0.06603  0.31234  0.74512  1.0000
  S   S89       1.0  0.16106  0.28052  0.69496  1.0000
  S   S90       1.0  0.09673  0.28994  0.69098  1.0000
  C   C480      1.0  0.28258  0.47478  0.71452  1.0000
  C   C481      1.0  0.35484  0.47047  0.76867  1.0000
  H   H380      1.0  0.15878  0.47743  0.60513  1.0000
  C   C482      1.0  0.03117  0.31183  0.74149  1.0000
  C   C483      1.0  0.01973  0.30353  0.72554  1.0000
  H   H381      1.0  0.48914  0.29635  0.74396  1.0000
  H   H382      1.0  0.03248  0.29674  0.71486  1.0000
  H   H383      1.0  0.02283  0.32691  0.76761  1.0000
  C   C484      1.0  0.49064  0.29186  0.80804  1.0000
  H   H384      1.0  0.36013  0.25432  0.81196  1.0000
  C   C485      1.0  0.48006  0.29497  0.78400  1.0000
  H   H385      1.0  0.34556  0.26862  0.68813  1.0000
  H   H386      1.0  0.48105  0.31168  0.85676  1.0000
  H   H387      1.0  0.20683  0.36521  0.57015  1.0000
  C   C486      1.0  0.14273  0.48524  0.56967  1.0000
  C   C487      1.0  0.28256  0.29368  0.76556  1.0000
  C   C488      1.0  0.27139  0.29213  0.74228  1.0000
  C   C489      1.0  0.24381  0.29084  0.74057  1.0000
  C   C490      1.0  0.22683  0.29133  0.76210  1.0000
  C   C491      1.0  0.23799  0.29286  0.78540  1.0000
  C   C492      1.0  0.26564  0.29403  0.78715  1.0000
  H   H388      1.0  0.28423  0.29182  0.72543  1.0000
  H   H389      1.0  0.23578  0.28931  0.72267  1.0000
  H   H390      1.0  0.22514  0.29318  0.80223  1.0000
  H   H391      1.0  0.27382  0.29533  0.80515  1.0000
  C   C493      1.0  0.46994  0.34982  0.83904  1.0000
  C   C494      1.0  0.01189  0.38971  0.64559  1.0000
  C   C495      1.0  0.36408  0.34650  0.93588  1.0000
  C   C496      1.0  0.36253  0.33257  0.93452  1.0000
  C   C497      1.0  0.36445  0.32696  0.91101  1.0000
  C   C498      1.0  0.36769  0.33528  0.88856  1.0000
  C   C499      1.0  0.36985  0.34916  0.88999  1.0000
  C   C500      1.0  0.36808  0.35475  0.91347  1.0000
  H   H392      1.0  0.35935  0.32610  0.95172  1.0000
  H   H393      1.0  0.36271  0.31628  0.91024  1.0000
  H   H394      1.0  0.37231  0.35571  0.87277  1.0000
  H   H395      1.0  0.36905  0.36548  0.91420  1.0000
  C   C501      1.0  0.03040  0.36872  0.53977  1.0000
  H   H396      1.0  0.19385  0.34966  0.54040  1.0000
  H   H397      1.0  0.23477  0.35035  0.50153  1.0000
  C   C502      1.0  0.19387  0.24862  0.76614  1.0000
  C   C503      1.0  0.45074  0.30675  0.92641  1.0000
  C   C504      1.0  0.15737  0.35344  0.61818  1.0000
  C   C505      1.0  0.13839  0.34766  0.60499  1.0000
  C   C506      1.0  0.13232  0.33421  0.61169  1.0000
  C   C507      1.0  0.14441  0.32658  0.63220  1.0000
  C   C508      1.0  0.16319  0.33242  0.64554  1.0000
  C   C509      1.0  0.17003  0.34570  0.63819  1.0000
  H   H398      1.0  0.12863  0.35349  0.58942  1.0000
  H   H399      1.0  0.11792  0.32975  0.60116  1.0000
  H   H400      1.0  0.17289  0.32659  0.66110  1.0000
  H   H401      1.0  0.18528  0.34997  0.64791  1.0000
  H   H402      1.0  0.42367  0.32156  0.87240  1.0000
  C   C510      1.0  0.34705  0.45714  0.90856  1.0000
  C   C511      1.0  0.36931  0.45430  0.89282  1.0000
  C   C512      1.0  0.38309  0.44158  0.89559  1.0000
  C   C513      1.0  0.37499  0.43170  0.91430  1.0000
  C   C514      1.0  0.35302  0.43464  0.93037  1.0000
  C   C515      1.0  0.33889  0.44731  0.92729  1.0000
  H   H403      1.0  0.37563  0.46183  0.87823  1.0000
  H   H404      1.0  0.40001  0.43942  0.88315  1.0000
  H   H405      1.0  0.34654  0.42704  0.94471  1.0000
  H   H406      1.0  0.32137  0.44947  0.93910  1.0000
  C   C516      1.0  0.33207  0.26338  0.70142  1.0000
  C   C517      1.0  0.40829  0.46312  0.95501  1.0000
  C   C518      1.0  0.13623  0.45148  0.63412  1.0000
  C   C519      1.0  0.14277  0.44449  0.61281  1.0000
  C   C520      1.0  0.12432  0.43651  0.60354  1.0000
  C   C521      1.0  0.09943  0.43515  0.61588  1.0000
  C   C522      1.0  0.09226  0.44275  0.63636  1.0000
  C   C523      1.0  0.11061  0.45095  0.64544  1.0000
  H   H407      1.0  0.16239  0.44503  0.60374  1.0000
  H   H408      1.0  0.12952  0.43137  0.58694  1.0000
  H   H409      1.0  0.07290  0.44198  0.64580  1.0000
  H   H410      1.0  0.10538  0.45637  0.66187  1.0000
  H   H411      1.0  0.47231  0.31681  0.95213  1.0000
  C   C524      1.0  0.38107  0.46647  0.77542  1.0000
  P   P16       1.0  0.32972  0.45837  0.77192  1.0000
  C   C525      1.0  0.34200  0.44263  0.76019  1.0000
  C   C526      1.0  0.32086  0.45642  0.80526  1.0000
  C   C527      1.0  0.33283  0.44586  0.82116  1.0000
  C   C528      1.0  0.32614  0.44465  0.84708  1.0000
  C   C529      1.0  0.30778  0.45404  0.85728  1.0000
  C   C530      1.0  0.29661  0.46486  0.84175  1.0000
  C   C531      1.0  0.30329  0.46611  0.81586  1.0000
  C   C532      1.0  0.32961  0.43075  0.76837  1.0000
  C   C533      1.0  0.33879  0.41853  0.75911  1.0000
  C   C534      1.0  0.36008  0.41812  0.74131  1.0000
  C   C535      1.0  0.37205  0.42997  0.73258  1.0000
  C   C536      1.0  0.36293  0.44221  0.74183  1.0000
  C   C537      1.0  0.30111  0.46401  0.75340  1.0000
  C   C538      1.0  0.27523  0.46144  0.76272  1.0000
  C   C539      1.0  0.25322  0.46576  0.74819  1.0000
  C   C540      1.0  0.28056  0.24440  0.79019  1.0000
  H   H412      1.0  0.04799  0.47991  0.59754  1.0000
  C   C541      1.0  0.30466  0.47044  0.72895  1.0000
  H   H413      1.0  0.38670  0.45603  0.78138  1.0000
  H   H414      1.0  0.44379  0.26491  0.77240  1.0000
  H   H415      1.0  0.34761  0.43870  0.81374  1.0000
  H   H416      1.0  0.33555  0.43660  0.85945  1.0000
  H   H417      1.0  0.30283  0.45319  0.87740  1.0000
  H   H418      1.0  0.28336  0.47248  0.84992  1.0000
  H   H419      1.0  0.29528  0.47480  0.80419  1.0000
  H   H420      1.0  0.31281  0.43096  0.78186  1.0000
  H   H421      1.0  0.32929  0.40937  0.76566  1.0000
  H   H422      1.0  0.36714  0.40864  0.73410  1.0000
  H   H423      1.0  0.27188  0.45623  0.78123  1.0000
  H   H424      1.0  0.28532  0.48008  0.69595  1.0000
  H   H425      1.0  0.46612  0.24069  0.74153  1.0000
  H   H426      1.0  0.00699  0.42249  0.69538  1.0000
  H   H427      1.0  0.44823  0.48554  0.96900  1.0000
  H   H428      1.0  0.15841  0.30920  0.53243  1.0000
  C   C542      1.0  0.30201  0.24564  0.71170  1.0000
  C   C543      1.0  0.27742  0.26041  0.82218  1.0000
  H   H429      1.0  0.20638  0.46822  0.53925  1.0000
  H   H430      1.0  0.01111  0.47153  0.70250  1.0000
  H   H431      1.0  0.10448  0.36277  0.77632  1.0000
  Fe  Fe46      1.0  0.34492  0.48712  0.87359  1.0000
  C   C544      1.0  0.27193  0.25710  0.79807  1.0000
  C   C545      1.0  0.07951  0.36410  0.64774  1.0000
  C   C546      1.0  0.38897  0.47283  0.94574  1.0000
  H   H432      1.0  0.14298  0.24765  0.67189  1.0000
  C   C547      1.0  0.49182  0.45841  0.88381  1.0000
  C   C548      1.0  0.37462  0.24284  0.84542  1.0000
  H   H433      1.0  0.19991  0.25571  0.70245  1.0000
  H   H434      1.0  0.26151  0.26459  0.78528  1.0000
  C   C549      1.0  0.07077  0.37533  0.48495  1.0000
  C   C550      1.0  0.46166  0.32934  0.82050  1.0000
  P   P17       1.0  0.48762  0.44063  0.88313  1.0000
  C   C551      1.0  0.49734  0.48621  0.88314  1.0000
  C   C552      1.0  0.43276  0.34200  0.96837  1.0000
  H   H435      1.0  0.45692  0.39132  0.95722  1.0000
  C   C553      1.0  0.29696  0.24990  0.73603  1.0000
  C   C554      1.0  0.15767  0.34191  0.50694  1.0000
  H   H436      1.0  0.11247  0.23903  0.76701  1.0000
  C   C555      1.0  0.02942  0.24318  0.71323  1.0000
  H   H437      1.0  0.19950  0.43404  0.49466  1.0000
  H   H438      1.0  0.27138  0.27037  0.82779  1.0000
  C   C556      1.0  0.16156  0.47792  0.58479  1.0000
  H   H439      1.0  0.19878  0.46598  0.58572  1.0000
  H   H440      1.0  0.42384  0.45447  0.81593  1.0000
  H   H441      1.0  0.00085  0.27193  0.73558  1.0000
  H   H442      1.0  0.08937  0.37500  0.49454  1.0000
  H   H443      1.0  0.45509  0.41784  0.87959  1.0000
  C   C557      1.0  0.44620  0.25881  0.88874  1.0000
  C   C558      1.0  0.25687  0.47249  0.72418  1.0000
  H   H444      1.0  0.08789  0.44571  0.48325  1.0000
  H   H445      1.0  0.04505  0.34819  0.75361  1.0000
  H   H446      1.0  0.19681  0.39843  0.51325  1.0000
  C   C559      1.0  0.43215  0.25567  0.93296  1.0000
  H   H447      1.0  0.06316  0.35629  0.71120  1.0000
  H   H448      1.0  0.02527  0.38967  0.54711  1.0000
  C   C560      1.0  0.03287  0.30414  0.55649  1.0000
  C   C561      1.0  0.11706  0.45610  0.53366  1.0000
  H   H449      1.0  0.18353  0.32394  0.50166  1.0000
  C   C562      1.0  0.11412  0.44947  0.51209  1.0000
  H   H450      1.0  0.21390  0.48596  0.79539  1.0000
  C   C563      1.0  0.15196  0.42129  0.66835  1.0000
  C   C564      1.0  0.16612  0.41628  0.64763  1.0000
  C   C565      1.0  0.16165  0.40351  0.64069  1.0000
  C   C566      1.0  0.14314  0.39570  0.65453  1.0000
  C   C567      1.0  0.12924  0.40055  0.67570  1.0000
  C   C568      1.0  0.13340  0.41352  0.68220  1.0000
  P   P18       1.0  0.10558  0.39052  0.69411  1.0000
  C   C569      1.0  0.07410  0.40049  0.69474  1.0000
  C   C570      1.0  0.10109  0.37550  0.67878  1.0000
  C   C571      1.0  0.08315  0.37582  0.65931  1.0000
  C   C572      1.0  0.02642  0.39023  0.62255  1.0000
  S   S91       1.0  0.35995  0.35322  0.96579  1.0000
  C   C573      1.0  0.11213  0.35169  0.67448  1.0000
  C   C574      1.0  0.11605  0.36342  0.68583  1.0000
  C   C575      1.0  0.05573  0.39892  0.71532  1.0000
  C   C576      1.0  0.03158  0.40681  0.71549  1.0000
  C   C577      1.0  0.02556  0.41628  0.69513  1.0000
  C   C578      1.0  0.04358  0.41779  0.67448  1.0000
  C   C579      1.0  0.06770  0.40993  0.67424  1.0000
  C   C580      1.0  0.11708  0.38542  0.72566  1.0000
  C   C581      1.0  0.13938  0.39087  0.73468  1.0000
  C   C582      1.0  0.14889  0.38625  0.75849  1.0000
  C   C583      1.0  0.13635  0.37612  0.77346  1.0000
  C   C584      1.0  0.11417  0.37065  0.76471  1.0000
  C   C585      1.0  0.10458  0.37527  0.74095  1.0000
  H   H451      1.0  0.15502  0.43133  0.67334  1.0000
  H   H452      1.0  0.18011  0.42246  0.63665  1.0000
  H   H453      1.0  0.17229  0.39968  0.62436  1.0000
  H   H454      1.0  0.13973  0.38594  0.64850  1.0000
  H   H455      1.0  0.12221  0.41768  0.69790  1.0000
  H   H456      1.0  0.07221  0.38512  0.65280  1.0000
  C   C586      1.0  0.04706  0.31840  0.64574  1.0000
  H   H457      1.0  0.13093  0.36309  0.69985  1.0000
  H   H458      1.0  0.05995  0.39175  0.73137  1.0000
  H   H459      1.0  0.32316  0.24903  0.67575  1.0000
  H   H460      1.0  0.48874  0.38502  0.87121  1.0000
  H   H461      1.0  0.03900  0.42508  0.65857  1.0000
  H   H462      1.0  0.08135  0.41128  0.65798  1.0000
  H   H463      1.0  0.14979  0.39855  0.72342  1.0000
  H   H464      1.0  0.16611  0.39050  0.76529  1.0000
  H   H465      1.0  0.14382  0.37252  0.79186  1.0000
  H   H466      1.0  0.01765  0.40570  0.73156  1.0000
  H   H467      1.0  0.08761  0.37080  0.73437  1.0000
  C   C587      1.0  0.47704  0.38997  0.96338  1.0000
  C   C588      1.0  0.18877  0.37901  0.50190  1.0000
  C   C589      1.0  0.42969  0.26266  0.90906  1.0000
  H   H468      1.0  0.06590  0.36437  0.63249  1.0000
  C   C590      1.0  0.05128  0.32529  0.56228  1.0000
  C   C591      1.0  0.06050  0.36338  0.47945  1.0000
  H   H469      1.0  0.05621  0.45751  0.58632  1.0000
  C   C592      1.0  0.22066  0.24521  0.77123  1.0000
  C   C593      1.0  0.16946  0.48029  0.53200  1.0000
  H   H470      1.0  0.03761  0.33473  0.59552  1.0000
  H   H471      1.0  0.06370  0.33064  0.69997  1.0000
  H   H472      1.0  0.44087  0.39311  0.87139  1.0000
  C   C594      1.0  0.09394  0.35207  0.65537  1.0000
  C   C595      1.0  0.12135  0.33868  0.53815  1.0000
  H   H473      1.0  0.16560  0.25501  0.73744  1.0000
  H   H474      1.0  0.42649  0.46113  0.94390  1.0000
  C   C596      1.0  0.03895  0.42715  0.51327  1.0000
  C   C597      1.0  0.45840  0.34646  0.96266  1.0000
  C   C598      1.0  0.02744  0.25579  0.72286  1.0000
  H   H475      1.0  0.39203  0.47831  0.92737  1.0000
  H   H476      1.0  0.42022  0.47301  0.78077  1.0000
  C   C599      1.0  0.31941  0.25237  0.69447  1.0000
  C   C600      1.0  0.47208  0.48123  0.88632  1.0000
  H   H477      1.0  0.02922  0.34828  0.53036  1.0000
  C   C601      1.0  0.05147  0.32849  0.68482  1.0000
  H   H478      1.0  0.17493  0.45367  0.51166  1.0000
  C   C602      1.0  0.03254  0.35462  0.74069  1.0000
  H   H479      1.0  0.23965  0.47612  0.71331  1.0000
  H   H480      1.0  0.44378  0.26442  0.87045  1.0000
  C   C603      1.0  0.23919  0.32704  0.66953  1.0000
  C   C604      1.0  0.22874  0.31455  0.66829  1.0000
  C   C605      1.0  0.21222  0.30933  0.68806  1.0000
  C   C606      1.0  0.20590  0.31662  0.70899  1.0000
  C   C607      1.0  0.21573  0.32930  0.71013  1.0000
  C   C608      1.0  0.23289  0.33435  0.69045  1.0000
  P   P19       1.0  0.20693  0.33905  0.73664  1.0000
  C   C609      1.0  0.17616  0.33369  0.75201  1.0000
  C   C610      1.0  0.23296  0.33665  0.75928  1.0000
  C   C611      1.0  0.22796  0.34068  0.78377  1.0000
  C   C612      1.0  0.24774  0.33855  0.80164  1.0000
  C   C613      1.0  0.27263  0.33239  0.79519  1.0000
  C   C614      1.0  0.27775  0.32837  0.77088  1.0000
  C   C615      1.0  0.25799  0.33039  0.75301  1.0000
  C   C616      1.0  0.15137  0.33990  0.74484  1.0000
  C   C617      1.0  0.12768  0.33497  0.75553  1.0000
  C   C618      1.0  0.12855  0.32384  0.77354  1.0000
  C   C619      1.0  0.15311  0.31777  0.78113  1.0000
  C   C620      1.0  0.17680  0.32268  0.77049  1.0000
  C   C621      1.0  0.20223  0.35642  0.72371  1.0000
  C   C622      1.0  0.18950  0.35939  0.70071  1.0000
  C   C623      1.0  0.18759  0.37254  0.68911  1.0000
  C   C624      1.0  0.19783  0.38293  0.70066  1.0000
  C   C625      1.0  0.21013  0.38013  0.72383  1.0000
  C   C626      1.0  0.21245  0.36690  0.73530  1.0000
  H   H481      1.0  0.25212  0.33106  0.65426  1.0000
  H   H482      1.0  0.23342  0.30890  0.65203  1.0000
  H   H483      1.0  0.20431  0.29960  0.68723  1.0000
  H   H484      1.0  0.19339  0.31232  0.72423  1.0000
  H   H485      1.0  0.24127  0.34398  0.69117  1.0000
  H   H486      1.0  0.20866  0.34531  0.78913  1.0000
  H   H487      1.0  0.24375  0.34151  0.82061  1.0000
  H   H488      1.0  0.28792  0.33056  0.80908  1.0000
  H   H489      1.0  0.29693  0.32340  0.76605  1.0000
  H   H490      1.0  0.26232  0.32680  0.73460  1.0000
  H   H491      1.0  0.15020  0.34831  0.73064  1.0000
  H   H492      1.0  0.10857  0.33940  0.74922  1.0000
  H   H493      1.0  0.11020  0.31967  0.78106  1.0000
  H   H494      1.0  0.15388  0.30886  0.79450  1.0000
  H   H495      1.0  0.19560  0.31749  0.77598  1.0000
  H   H496      1.0  0.18147  0.35144  0.69149  1.0000
  H   H497      1.0  0.17864  0.37454  0.67086  1.0000
  H   H498      1.0  0.19641  0.39313  0.69154  1.0000
  H   H499      1.0  0.21828  0.38818  0.73268  1.0000
  H   H500      1.0  0.22263  0.36489  0.75288  1.0000
  C   C627      1.0  0.00820  0.32891  0.66658  1.0000
  C   C628      1.0  0.36477  0.24437  0.82111  1.0000
  H   H501      1.0  0.01604  0.29541  0.66031  1.0000
  H   H502      1.0  0.13024  0.44276  0.50536  1.0000
  C   C629      1.0  0.47413  0.37927  0.88225  1.0000
  C   C630      1.0  0.44271  0.35379  0.83856  1.0000
  C   C631      1.0  0.00239  0.26216  0.72810  1.0000
  H   H503      1.0  0.23318  0.46422  0.75574  1.0000
  C   C632      1.0  0.46090  0.43811  0.86291  1.0000
  C   C633      1.0  0.44878  0.42580  0.86538  1.0000
  C   C634      1.0  0.42768  0.42386  0.85016  1.0000
  C   C635      1.0  0.41865  0.43417  0.83231  1.0000
  C   C636      1.0  0.43096  0.44634  0.82942  1.0000
  C   C637      1.0  0.47269  0.24968  0.83633  1.0000
  H   H504      1.0  0.12363  0.34236  0.68003  1.0000
  C   C638      1.0  0.45296  0.43403  0.92405  1.0000
  H   H505      1.0  0.13531  0.45444  0.54390  1.0000
  C   C639      1.0  0.06288  0.32157  0.66494  1.0000
  C   C640      1.0  0.16588  0.32816  0.51122  1.0000
  H   H506      1.0  0.44949  0.46375  0.88870  1.0000
  H   H507      1.0  0.40378  0.34839  0.82946  1.0000
  H   H508      1.0  0.48326  0.35639  0.84633  1.0000
  H   H509      1.0  0.41761  0.41459  0.85295  1.0000
  H   H510      1.0  0.40185  0.43282  0.82103  1.0000
  H   H511      1.0  0.41469  0.25322  0.80498  1.0000
  S   S92       1.0  0.14913  0.41532  0.50306  1.0000
  C   C641      1.0  0.02412  0.33207  0.68573  1.0000
  H   H512      1.0  0.43696  0.43783  0.91186  1.0000
  H   H513      1.0  0.05629  0.31270  0.63091  1.0000
  C   C642      1.0  0.14474  0.48474  0.48195  1.0000
  C   C643      1.0  0.04280  0.35923  0.71687  1.0000
  C   C644      1.0  0.13509  0.34702  0.52031  1.0000
  C   C645      1.0  0.04970  0.31431  0.54810  1.0000
  C   C646      1.0  0.01960  0.32219  0.64624  1.0000
  C   C647      1.0  0.46670  0.42318  0.96442  1.0000
  C   C648      1.0  0.45126  0.24486  0.93660  1.0000
  C   C649      1.0  0.19470  0.36025  0.53400  1.0000
  H   H514      1.0  0.46865  0.31992  0.81305  1.0000
  H   H515      1.0  0.42740  0.29958  0.89804  1.0000
  H   H516      1.0  0.47778  0.29273  0.82474  1.0000
  H   H517      1.0  0.43273  0.24359  0.84550  1.0000
  H   H518      1.0  0.37208  0.45133  0.73447  1.0000
  C   C650      1.0  0.46481  0.24765  0.89205  1.0000
  H   H519      1.0  0.30242  0.47924  0.95196  1.0000
  H   H520      1.0  0.09876  0.46940  0.55963  1.0000
  C   C651      1.0  0.20310  0.38276  0.54344  1.0000
  C   C652      1.0  0.02643  0.36705  0.69981  1.0000
  C   C653      1.0  0.01441  0.41418  0.48684  1.0000
  C   C654      1.0  0.20408  0.44415  0.48725  1.0000
  C   C655      1.0  0.09016  0.45119  0.49958  1.0000
  H   H521      1.0  0.32445  0.47227  0.72117  1.0000
  H   H522      1.0  0.42179  0.35909  0.92250  1.0000
  C   C656      1.0  0.03618  0.32610  0.58485  1.0000
  C   C657      1.0  0.43698  0.30807  0.90398  1.0000
  C   C658      1.0  0.43495  0.32046  0.88946  1.0000
  H   H523      1.0  0.38830  0.42969  0.71851  1.0000
  H   H524      1.0  0.01930  0.43205  0.54831  1.0000
  H   H525      1.0  0.45188  0.29719  0.93788  1.0000
  P   P20       1.0  0.17804  0.35350  0.48793  1.0000
  H   H526      1.0  0.42576  0.42770  0.95441  1.0000
  H   H527      1.0  0.43522  0.36321  0.84570  1.0000
  C   C659      1.0  0.02049  0.44742  0.59574  1.0000
  C   C660      1.0  0.44583  0.24856  0.83143  1.0000
  C   C661      1.0  0.44661  0.33156  0.89730  1.0000
  H   H528      1.0  0.44395  0.34111  0.88616  1.0000
  C   C662      1.0  0.20224  0.36902  0.55095  1.0000
  H   H529      1.0  0.03632  0.38040  0.58881  1.0000
  C   C663      1.0  0.30995  0.26093  0.74288  1.0000
  H   H530      1.0  0.20833  0.38958  0.55682  1.0000
  C   C664      1.0  0.46053  0.33036  0.91975  1.0000
  Fe  Fe47      1.0  0.37025  0.37426  0.97410  1.0000
  C   C665      1.0  0.45223  0.44824  0.84438  1.0000
  C   C666      1.0  0.46236  0.31786  0.93435  1.0000
  H   H531      1.0  0.40759  0.37999  0.89675  1.0000
  C   C667      1.0  0.15177  0.31975  0.52880  1.0000
  C   C668      1.0  0.42846  0.37641  0.89657  1.0000
  C   C669      1.0  0.43553  0.25395  0.80841  1.0000
  H   H532      1.0  0.12848  0.35757  0.51743  1.0000
  H   H533      1.0  0.04542  0.26057  0.72640  1.0000
  H   H534      1.0  0.42156  0.33802  0.95417  1.0000
  H   H535      1.0  0.48789  0.47510  0.81976  1.0000
  C   C670      1.0  0.43662  0.36461  0.91130  1.0000
  H   H536      1.0  0.49118  0.29261  0.88815  1.0000
  H   H537      1.0  0.24722  0.25004  0.71117  1.0000
  C   C671      1.0  0.02461  0.46502  0.56112  1.0000
  H   H538      1.0  0.49414  0.39286  0.92553  1.0000
  C   C672      1.0  0.47961  0.33749  0.83019  1.0000
  H   H539      1.0  0.03955  0.39829  0.61746  1.0000
  H   H540      1.0  0.07103  0.35378  0.48496  1.0000
  C   C673      1.0  0.47893  0.26109  0.79429  1.0000
  C   C674      1.0  0.20577  0.25280  0.72166  1.0000
  C   C675      1.0  0.09620  0.46466  0.54249  1.0000
  P   P21       1.0  0.04469  0.47697  0.54247  1.0000
  C   C676      1.0  0.48927  0.25586  0.81742  1.0000
  H   H541      1.0  0.06139  0.31372  0.53057  1.0000
  C   C677      1.0  0.06901  0.45956  0.50869  1.0000
  H   H542      1.0  0.42074  0.32686  0.81300  1.0000
  C   C678      1.0  0.42497  0.34547  0.82937  1.0000
  C   C679      1.0  0.01790  0.35775  0.53245  1.0000
  C   C680      1.0  0.47792  0.25971  0.72443  1.0000
  H   H543      1.0  0.04906  0.23834  0.70970  1.0000
  C   C681      1.0  0.43448  0.33330  0.82023  1.0000
  C   C682      1.0  0.46932  0.46738  0.88693  1.0000
  C   C683      1.0  0.12967  0.32504  0.54245  1.0000
  C   C684      1.0  0.02441  0.38022  0.60626  1.0000
  C   C685      1.0  0.01439  0.32063  0.75500  1.0000
  H   H544      1.0  0.49176  0.26593  0.77982  1.0000
  C   C686      1.0  0.48229  0.36742  0.89682  1.0000
  H   H545      1.0  0.09156  0.34312  0.64593  1.0000
  C   C687      1.0  0.45198  0.26037  0.78995  1.0000
  S   S93       1.0  0.35535  0.48299  0.83341  1.0000
  C   C688      1.0  0.36493  0.47501  0.95944  1.0000
  C   C689      1.0  0.18641  0.25239  0.74136  1.0000
  P   P22       1.0  0.48559  0.24212  0.86590  1.0000
  H   H546      1.0  0.02920  0.44120  0.61149  1.0000
  C   C690      1.0  0.19654  0.38773  0.51890  1.0000
  C   C691      1.0  0.01757  0.42742  0.53090  1.0000
  C   C692      1.0  0.18827  0.47282  0.54742  1.0000
  C   C693      1.0  0.24032  0.24576  0.75157  1.0000
  C   C694      1.0  0.44723  0.38382  0.88228  1.0000
  C   C695      1.0  0.34774  0.48420  0.76261  1.0000
  C   C696      1.0  0.46366  0.36011  0.91189  1.0000
  H   H547      1.0  0.06387  0.33332  0.55565  1.0000
  H   H548      1.0  0.46151  0.45773  0.84156  1.0000
  C   C697      1.0  0.18421  0.47160  0.57373  1.0000
  C   C698      1.0  0.18795  0.36515  0.50928  1.0000
  C   C699      1.0  0.19549  0.46845  0.48710  1.0000
  H   H549      1.0  0.10474  0.34295  0.54914  1.0000
  H   H550      1.0  0.45760  0.26373  0.72146  1.0000
  C   C700      1.0  0.01562  0.38105  0.54197  1.0000
  H   H551      1.0  0.00448  0.29704  0.58502  1.0000
  H   H552      1.0  0.11931  0.31862  0.55670  1.0000
  S   S94       1.0  0.34540  0.39400  0.96789  1.0000
  C   C701      1.0  0.01750  0.30498  0.57897  1.0000
  H   H553      1.0  0.35029  0.48239  0.95127  1.0000
  P   P23       1.0  0.47371  0.34490  0.93140  1.0000
  H   H554      1.0  0.01424  0.39733  0.65831  1.0000
  C   C702      1.0  0.48872  0.48574  0.82159  1.0000
  H   H555      1.0  0.41449  0.27086  0.90601  1.0000
  C   C703      1.0  0.49819  0.39102  0.94540  1.0000
  H   H556      1.0  0.08398  0.31846  0.66460  1.0000
  H   H557      1.0  0.49347  0.33903  0.77949  1.0000
  C   C704      1.0  0.44652  0.42842  0.94842  1.0000
  H   H558      1.0  0.33722  0.27613  0.73110  1.0000
  C   C705      1.0  0.03569  0.45682  0.58150  1.0000
  H   H559      1.0  0.03464  0.37010  0.68126  1.0000
  C   C706      1.0  0.01900  0.31600  0.59328  1.0000
  C   C707      1.0  0.23263  0.24957  0.72671  1.0000
  H   H560      1.0  0.05012  0.46033  0.49957  1.0000
  C   C708      1.0  0.47966  0.43426  0.91531  1.0000
  H   H561      1.0  0.30692  0.26448  0.76144  1.0000
  H   H562      1.0  0.17882  0.24844  0.78140  1.0000
  C   C709      1.0  0.40005  0.47603  0.77526  1.0000
  C   C710      1.0  0.03738  0.42067  0.49124  1.0000
  S   S95       1.0  0.05899  0.48389  0.71259  1.0000
  H   H563      1.0  0.22598  0.24224  0.79054  1.0000
  P   P24       1.0  0.17574  0.48275  0.49817  1.0000
  H   H564      1.0  0.05722  0.43143  0.51734  1.0000
  C   C711      1.0  0.05649  0.38768  0.47926  1.0000
  H   H565      1.0  0.01508  0.33676  0.70188  1.0000
  S   S96       1.0  0.43358  0.48622  0.82600  1.0000
  C   C712      1.0  0.29127  0.25101  0.83877  1.0000
  H   H566      1.0  0.29618  0.25368  0.85721  1.0000
  C   C713      1.0  0.49340  0.42387  0.95627  1.0000
  H   H567      1.0  0.32739  0.48764  0.75852  1.0000
  C   C714      1.0  0.19017  0.45531  0.49689  1.0000
  H   H568      1.0  0.49511  0.27799  0.70899  1.0000
  H   H569      1.0  0.06481  0.39672  0.48403  1.0000
  H   H570      1.0  0.00596  0.36223  0.59973  1.0000
  C   C715      1.0  0.00745  0.36987  0.61267  1.0000
  C   C716      1.0  0.00531  0.48192  0.70552  1.0000
  C   C717      1.0  0.23220  0.34468  0.48556  1.0000
  H   H571      1.0  0.11583  0.48822  0.77506  1.0000
  C   C718      1.0  0.48289  0.24662  0.73585  1.0000
  P   P25       1.0  0.27482  0.24083  0.75819  1.0000
  H   H572      1.0  0.03488  0.24082  0.66115  1.0000
  H   H573      1.0  0.07427  0.23926  0.63200  1.0000
  C   C719      1.0  0.99950  0.37023  0.70628  1.0000
  C   C720      1.0  0.14666  0.48652  0.54340  1.0000
  C   C721      1.0  0.30034  0.48722  0.96454  1.0000
  C   C722      1.0  0.49697  0.29385  0.76255  1.0000
  H   H574      1.0  0.00448  0.47076  0.62768  1.0000
  H   H575      1.0  0.05524  0.48484  0.48822  1.0000
  C   C723      1.0  0.02553  0.48695  0.51844  1.0000
  C   C724      1.0  0.46761  0.24088  0.91623  1.0000
  H   H576      1.0  0.45316  0.23944  0.95513  1.0000
  H   H577      1.0  0.45451  0.48816  0.88698  1.0000
  H   H578      1.0  0.27367  0.33761  0.48366  1.0000
  H   H579      1.0  0.11565  0.39817  0.47864  1.0000
  H   H580      1.0  0.18293  0.38328  0.48339  1.0000
  C   C725      1.0  0.49906  0.26775  0.71734  1.0000
  C   C726      1.0  0.05753  0.48804  0.58679  1.0000
  H   H581      1.0  0.05451  0.42030  0.47815  1.0000
  Fe  Fe48      1.0  0.10213  0.53736  0.44209  1.0000
  S   S97       1.0  0.14502  0.54049  0.44753  1.0000
  S   S98       1.0  0.08351  0.52334  0.41798  1.0000
  H   H582      1.0  0.33685  0.55933  0.26568  1.0000
  C   C727      1.0  0.44035  0.66127  0.04864  1.0000
  H   H583      1.0  0.45616  0.68799  0.09441  1.0000
  Fe  Fe49      1.0  0.13306  0.56281  0.44319  1.0000
  S   S99       1.0  0.15586  0.57582  0.41323  1.0000
  H   H584      1.0  0.12104  0.56105  0.29318  1.0000
  S   S100      1.0  0.09113  0.55940  0.43456  1.0000
  C   C728      1.0  0.39431  0.50287  0.01995  1.0000
  S   S101      1.0  0.40304  0.53963  0.03917  1.0000
  Fe  Fe50      1.0  0.35813  0.56492  0.07634  1.0000
  S   S102      1.0  0.40043  0.55889  0.08589  1.0000
  S   S103      1.0  0.33488  0.57711  0.10523  1.0000
  Fe  Fe51      1.0  0.40817  0.56124  0.04393  1.0000
  C   C729      1.0  0.01122  0.73580  0.28939  1.0000
  Fe  Fe52      1.0  0.39075  0.53785  0.08016  1.0000
  S   S104      1.0  0.40622  0.51955  0.10487  1.0000
  S   S105      1.0  0.34778  0.54357  0.07335  1.0000
  Fe  Fe53      1.0  0.40235  0.64948  0.20213  1.0000
  S   S106      1.0  0.39114  0.65956  0.16431  1.0000
  S   S107      1.0  0.44517  0.64009  0.20435  1.0000
  Fe  Fe54      1.0  0.34310  0.65023  0.22031  1.0000
  S   S108      1.0  0.32899  0.65989  0.18311  1.0000
  S   S109      1.0  0.31470  0.64604  0.25452  1.0000
  Fe  Fe55      1.0  0.35891  0.64527  0.16546  1.0000
  S   S110      1.0  0.35682  0.63670  0.12744  1.0000
  Fe  Fe56      1.0  0.36270  0.67325  0.18516  1.0000
  S   S111      1.0  0.35622  0.69526  0.17004  1.0000
  S   S112      1.0  0.37078  0.63453  0.20257  1.0000
  S   S113      1.0  0.37591  0.66430  0.22336  1.0000
  Fe  Fe57      1.0  0.09861  0.65546  0.31305  1.0000
  S   S114      1.0  0.10641  0.66594  0.34718  1.0000
  S   S115      1.0  0.05818  0.64636  0.31321  1.0000
  Fe  Fe58      1.0  0.15872  0.65566  0.29471  1.0000
  S   S116      1.0  0.16979  0.66565  0.32851  1.0000
  S   S117      1.0  0.18711  0.65229  0.26049  1.0000
  Fe  Fe59      1.0  0.14256  0.65124  0.35077  1.0000
  S   S118      1.0  0.14832  0.63994  0.38973  1.0000
  Fe  Fe60      1.0  0.13253  0.67917  0.32159  1.0000
  S   S119      1.0  0.12950  0.70198  0.31221  1.0000
  S   S120      1.0  0.13412  0.64036  0.31738  1.0000
  S   S121      1.0  0.12215  0.66959  0.28689  1.0000
  H   H585      1.0  0.45966  0.66300  0.23025  1.0000
  C   C730      1.0  0.10482  0.49847  0.46961  1.0000
  C   C731      1.0  0.13384  0.71667  0.32749  1.0000
  C   C732      1.0  0.12593  0.72920  0.31486  1.0000
  C   C733      1.0  0.03461  0.56113  0.27478  1.0000
  C   C734      1.0  0.48903  0.69634  0.30849  1.0000
  C   C735      1.0  0.14759  0.72846  0.36231  1.0000
  C   C736      1.0  0.14483  0.71632  0.35128  1.0000
  H   H586      1.0  0.11750  0.72962  0.29643  1.0000
  H   H587      1.0  0.15608  0.72813  0.38069  1.0000
  H   H588      1.0  0.15118  0.70674  0.36115  1.0000
  C   C737      1.0  0.02557  0.65358  0.30688  1.0000
  H   H589      1.0  0.29769  0.54083  0.20929  1.0000
  C   C738      1.0  0.02098  0.66392  0.28766  1.0000
  C   C739      1.0  0.29502  0.50818  0.99605  1.0000
  H   H590      1.0  0.03774  0.66834  0.27748  1.0000
  C   C740      1.0  0.36430  0.70890  0.18643  1.0000
  C   C741      1.0  0.37472  0.70688  0.21049  1.0000
  C   C742      1.0  0.38215  0.71794  0.22242  1.0000
  H   H591      1.0  0.03172  0.68941  0.23989  1.0000
  C   C743      1.0  0.47931  0.62219  0.14859  1.0000
  C   C744      1.0  0.36088  0.72208  0.17464  1.0000
  H   H592      1.0  0.37722  0.69679  0.21981  1.0000
  H   H593      1.0  0.39022  0.71633  0.24105  1.0000
  H   H594      1.0  0.35270  0.72371  0.15605  1.0000
  C   C745      1.0  0.47614  0.64607  0.21126  1.0000
  H   H595      1.0  0.49520  0.59035  0.13140  1.0000
  C   C746      1.0  0.36845  0.73315  0.18654  1.0000
  C   C747      1.0  0.27930  0.64880  0.25557  1.0000
  C   C748      1.0  0.26454  0.65015  0.23369  1.0000
  C   C749      1.0  0.23641  0.65135  0.23557  1.0000
  C   C750      1.0  0.22264  0.65145  0.25924  1.0000
  C   C751      1.0  0.23742  0.65041  0.28106  1.0000
  C   C752      1.0  0.26554  0.64898  0.27922  1.0000
  H   H596      1.0  0.27476  0.64994  0.21537  1.0000
  H   H597      1.0  0.22521  0.65205  0.21858  1.0000
  H   H598      1.0  0.22719  0.65041  0.29941  1.0000
  H   H599      1.0  0.27671  0.64791  0.29627  1.0000
  C   C753      1.0  0.47275  0.56253  0.03950  1.0000
  C   C754      1.0  0.47041  0.55235  0.05925  1.0000
  H   H600      1.0  0.45104  0.54937  0.06610  1.0000
  C   C755      1.0  0.34511  0.59304  0.11165  1.0000
  C   C756      1.0  0.34362  0.59662  0.13665  1.0000
  C   C757      1.0  0.34800  0.60983  0.14203  1.0000
  C   C758      1.0  0.35371  0.61961  0.12229  1.0000
  C   C759      1.0  0.35613  0.61589  0.09738  1.0000
  C   C760      1.0  0.35206  0.60265  0.09208  1.0000
  H   H601      1.0  0.33885  0.58915  0.15185  1.0000
  H   H602      1.0  0.34634  0.61253  0.16129  1.0000
  H   H603      1.0  0.36056  0.62338  0.08201  1.0000
  H   H604      1.0  0.35309  0.60006  0.07274  1.0000
  C   C761      1.0  0.38302  0.50759  0.11475  1.0000
  C   C762      1.0  0.35691  0.50904  0.10654  1.0000
  C   C763      1.0  0.33845  0.49975  0.11580  1.0000
  H   H605      1.0  0.42332  0.50987  0.17069  1.0000
  C   C764      1.0  0.46089  0.65611  0.03297  1.0000
  C   C765      1.0  0.39087  0.49642  0.13130  1.0000
  H   H606      1.0  0.35082  0.51729  0.09313  1.0000
  H   H607      1.0  0.31826  0.50095  0.10944  1.0000
  C   C766      1.0  0.44872  0.59739  0.07409  1.0000
  C   C767      1.0  0.02188  0.49790  0.47572  1.0000
  C   C768      1.0  0.14026  0.56232  0.32812  1.0000
  H   H608      1.0  0.49435  0.61458  0.15540  1.0000
  C   C769      1.0  0.06796  0.69820  0.24762  1.0000
  P   P26       1.0  0.02273  0.71166  0.31941  1.0000
  H   H609      1.0  0.10105  0.70792  0.26043  1.0000
  C   C770      1.0  0.15134  0.59364  0.40708  1.0000
  C   C771      1.0  0.14873  0.60217  0.42663  1.0000
  C   C772      1.0  0.14798  0.61630  0.42102  1.0000
  C   C773      1.0  0.14908  0.62208  0.39583  1.0000
  C   C774      1.0  0.15114  0.61355  0.37630  1.0000
  C   C775      1.0  0.15269  0.59943  0.38192  1.0000
  H   H610      1.0  0.14817  0.59788  0.44609  1.0000
  H   H611      1.0  0.14656  0.62278  0.43629  1.0000
  H   H612      1.0  0.15231  0.61782  0.35687  1.0000
  H   H613      1.0  0.15520  0.59297  0.36666  1.0000
  C   C776      1.0  0.10502  0.51017  0.40760  1.0000
  H   H614      1.0  0.43693  0.58920  0.07018  1.0000
  H   H615      1.0  0.44246  0.63093  0.08132  1.0000
  C   C777      1.0  0.04624  0.71295  0.34363  1.0000
  H   H616      1.0  0.20354  0.72824  0.28112  1.0000
  C   C778      1.0  0.13202  0.50911  0.41307  1.0000
  H   H617      1.0  0.41116  0.49506  0.13725  1.0000
  H   H618      1.0  0.07942  0.48989  0.44506  1.0000
  C   C779      1.0  0.46375  0.54628  0.98006  1.0000
  H   H619      1.0  0.13993  0.51645  0.42377  1.0000
  H   H620      1.0  0.32100  0.48837  0.19397  1.0000
  H   H621      1.0  0.47730  0.55390  0.98260  1.0000
  C   C780      1.0  0.01864  0.56099  0.47397  1.0000
  H   H622      1.0  0.17760  0.50232  0.45345  1.0000
  H   H623      1.0  0.38152  0.51082  0.01048  1.0000
  C   C781      1.0  0.03443  0.51346  0.33623  1.0000
  C   C782      1.0  0.03570  0.51576  0.36177  1.0000
  P   P27       1.0  0.05982  0.51904  0.31324  1.0000
  C   C783      1.0  0.00266  0.54689  0.37227  1.0000
  C   C784      1.0  0.04981  0.53561  0.29866  1.0000
  H   H624      1.0  0.08924  0.53929  0.28279  1.0000
  H   H625      1.0  0.29357  0.51645  0.00800  1.0000
  H   H626      1.0  0.05929  0.62791  0.35683  1.0000
  C   C785      1.0  0.30187  0.51690  0.16065  1.0000
  C   C786      1.0  0.06696  0.70287  0.34771  1.0000
  C   C787      1.0  0.34598  0.48904  0.13347  1.0000
  C   C788      1.0  0.00459  0.72769  0.31151  1.0000
  C   C789      1.0  0.39578  0.48919  0.21770  1.0000
  C   C790      1.0  0.13576  0.51113  0.33856  1.0000
  H   H627      1.0  0.06523  0.52174  0.25718  1.0000
  H   H628      1.0  0.36969  0.57993  0.97931  1.0000
  C   C791      1.0  0.09422  0.53110  0.34240  1.0000
  C   C792      1.0  0.30707  0.49565  0.00485  1.0000
  C   C793      1.0  0.11167  0.48983  0.38559  1.0000
  H   H629      1.0  0.30222  0.71694  0.24102  1.0000
  C   C794      1.0  0.41464  0.49268  0.05822  1.0000
  H   H630      1.0  0.16879  0.72382  0.23702  1.0000
  C   C795      1.0  0.11786  0.53191  0.35477  1.0000
  H   H631      1.0  0.23685  0.49772  0.33826  1.0000
  H   H632      1.0  0.49127  0.53817  0.08577  1.0000
  C   C796      1.0  0.03758  0.56744  0.36071  1.0000
  C   C797      1.0  0.20679  0.49899  0.31068  1.0000
  C   C798      1.0  0.26057  0.72493  0.19215  1.0000
  H   H633      1.0  0.35586  0.49153  0.23298  1.0000
  H   H634      1.0  0.04518  0.54572  0.45828  1.0000
  C   C799      1.0  0.20313  0.51740  0.46197  1.0000
  H   H635      1.0  0.21798  0.50270  0.41685  1.0000
  C   C800      1.0  0.41495  0.49433  0.20035  1.0000
  C   C801      1.0  0.46713  0.64499  0.13065  1.0000
  H   H636      1.0  0.07823  0.53883  0.34445  1.0000
  H   H637      1.0  0.43183  0.70300  0.23365  1.0000
  H   H638      1.0  0.41537  0.61219  0.07296  1.0000
  C   C802      1.0  0.47778  0.65751  0.22422  1.0000
  C   C803      1.0  0.03001  0.63424  0.42376  1.0000
  H   H639      1.0  0.43466  0.48923  0.19925  1.0000
  C   C804      1.0  0.19035  0.50544  0.46733  1.0000
  H   H640      1.0  0.42054  0.66357  0.04152  1.0000
  C   C805      1.0  0.46713  0.69638  0.21279  1.0000
  H   H641      1.0  0.37829  0.52091  0.17213  1.0000
  H   H642      1.0  0.38908  0.51099  0.05605  1.0000
  C   C806      1.0  0.06632  0.51118  0.26386  1.0000
  H   H643      1.0  0.07882  0.69477  0.23108  1.0000
  C   C807      1.0  0.06290  0.72481  0.37688  1.0000
  H   H644      1.0  0.15149  0.50314  0.33789  1.0000
  C   C808      1.0  0.04426  0.55656  0.37847  1.0000
  H   H645      1.0  0.49924  0.56847  0.15717  1.0000
  C   C809      1.0  0.45194  0.62090  0.08017  1.0000
  H   H646      1.0  0.36935  0.53943  0.27069  1.0000
  H   H647      1.0  0.28862  0.51652  0.24605  1.0000
  H   H648      1.0  0.06265  0.55612  0.38841  1.0000
  C   C810      1.0  0.02769  0.69927  0.27433  1.0000
  C   C811      1.0  0.29335  0.73298  0.29213  1.0000
  C   C812      1.0  0.40856  0.50592  0.18436  1.0000
  C   C813      1.0  0.49155  0.60544  0.08276  1.0000
  C   C814      1.0  0.01398  0.56749  0.34758  1.0000
  C   C815      1.0  0.02678  0.54642  0.38438  1.0000
  C   C816      1.0  0.29283  0.72253  0.22500  1.0000
  C   C817      1.0  0.27115  0.71766  0.21377  1.0000
  C   C818      1.0  0.49803  0.56605  0.03041  1.0000
  P   P28       1.0  0.25924  0.70136  0.22456  1.0000
  C   C819      1.0  0.22471  0.70232  0.23576  1.0000
  C   C820      1.0  0.26391  0.69108  0.19822  1.0000
  C   C821      1.0  0.24677  0.68092  0.19513  1.0000
  C   C822      1.0  0.25050  0.67321  0.17442  1.0000
  C   C823      1.0  0.27118  0.67566  0.15652  1.0000
  C   C824      1.0  0.28831  0.68574  0.15945  1.0000
  C   C825      1.0  0.28487  0.69332  0.18029  1.0000
  C   C826      1.0  0.21427  0.69103  0.24949  1.0000
  C   C827      1.0  0.18755  0.69144  0.25790  1.0000
  C   C828      1.0  0.17113  0.70321  0.25316  1.0000
  C   C829      1.0  0.18148  0.71462  0.24018  1.0000
  C   C830      1.0  0.20817  0.71420  0.23149  1.0000
  C   C831      1.0  0.27855  0.69390  0.25068  1.0000
  C   C832      1.0  0.27155  0.69731  0.27529  1.0000
  C   C833      1.0  0.28629  0.69160  0.29574  1.0000
  C   C834      1.0  0.30832  0.68259  0.29170  1.0000
  C   C835      1.0  0.31570  0.67939  0.26722  1.0000
  C   C836      1.0  0.30087  0.68497  0.24673  1.0000
  H   H649      1.0  0.01501  0.62048  0.37035  1.0000
  C   C837      1.0  0.49325  0.54594  0.07031  1.0000
  H   H650      1.0  0.09276  0.50792  0.46950  1.0000
  C   C838      1.0  0.13870  0.48890  0.39085  1.0000
  H   H651      1.0  0.46735  0.48972  0.08641  1.0000
  H   H652      1.0  0.23061  0.67879  0.20862  1.0000
  H   H653      1.0  0.23744  0.66526  0.17241  1.0000
  H   H654      1.0  0.27425  0.66961  0.14063  1.0000
  H   H655      1.0  0.30483  0.68745  0.14598  1.0000
  H   H656      1.0  0.29885  0.70085  0.18244  1.0000
  H   H657      1.0  0.22671  0.68181  0.25355  1.0000
  H   H658      1.0  0.17959  0.68262  0.26821  1.0000
  H   H659      1.0  0.15052  0.70351  0.26000  1.0000
  H   H660      1.0  0.28519  0.72424  0.30227  1.0000
  H   H661      1.0  0.21568  0.72318  0.22169  1.0000
  H   H662      1.0  0.25454  0.70427  0.27874  1.0000
  H   H663      1.0  0.28042  0.69401  0.31474  1.0000
  H   H664      1.0  0.31953  0.67795  0.30753  1.0000
  H   H665      1.0  0.33260  0.67229  0.26415  1.0000
  H   H666      1.0  0.30680  0.68218  0.22798  1.0000
  C   C839      1.0  0.27878  0.57147  0.15793  1.0000
  C   C840      1.0  0.26598  0.56187  0.17400  1.0000
  C   C841      1.0  0.25530  0.56521  0.19755  1.0000
  C   C842      1.0  0.25760  0.57813  0.20511  1.0000
  C   C843      1.0  0.27029  0.58785  0.18897  1.0000
  C   C844      1.0  0.28090  0.58438  0.16534  1.0000
  P   P29       1.0  0.27558  0.60416  0.19931  1.0000
  C   C845      1.0  0.24987  0.60889  0.22238  1.0000
  C   C846      1.0  0.30765  0.60333  0.21357  1.0000
  C   C847      1.0  0.31283  0.61269  0.23053  1.0000
  C   C848      1.0  0.33741  0.61195  0.24195  1.0000
  C   C849      1.0  0.35726  0.60209  0.23608  1.0000
  C   C850      1.0  0.35236  0.59279  0.21908  1.0000
  C   C851      1.0  0.32760  0.59333  0.20800  1.0000
  C   C852      1.0  0.22758  0.61742  0.21509  1.0000
  C   C853      1.0  0.20855  0.62158  0.23326  1.0000
  C   C854      1.0  0.21167  0.61737  0.25881  1.0000
  C   C855      1.0  0.23358  0.60875  0.26622  1.0000
  C   C856      1.0  0.25253  0.60445  0.24809  1.0000
  C   C857      1.0  0.27444  0.61663  0.17236  1.0000
  C   C858      1.0  0.25670  0.61563  0.15306  1.0000
  C   C859      1.0  0.25619  0.62501  0.13181  1.0000
  C   C860      1.0  0.27315  0.63554  0.12978  1.0000
  C   C861      1.0  0.29035  0.63679  0.14914  1.0000
  C   C862      1.0  0.29105  0.62740  0.17039  1.0000
  H   H667      1.0  0.28726  0.56894  0.13968  1.0000
  H   H668      1.0  0.26441  0.55186  0.16813  1.0000
  H   H669      1.0  0.24531  0.55778  0.20998  1.0000
  H   H670      1.0  0.24952  0.58048  0.22351  1.0000
  H   H671      1.0  0.29105  0.59163  0.15261  1.0000
  H   H672      1.0  0.29798  0.62066  0.23487  1.0000
  H   H673      1.0  0.34130  0.61928  0.25489  1.0000
  H   H674      1.0  0.37655  0.60183  0.24441  1.0000
  H   H675      1.0  0.36789  0.58527  0.21422  1.0000
  H   H676      1.0  0.32432  0.58602  0.19494  1.0000
  H   H677      1.0  0.22504  0.62118  0.19556  1.0000
  H   H678      1.0  0.19186  0.62856  0.22774  1.0000
  H   H679      1.0  0.19742  0.62111  0.27288  1.0000
  H   H680      1.0  0.23619  0.60573  0.28611  1.0000
  H   H681      1.0  0.26961  0.59795  0.25426  1.0000
  H   H682      1.0  0.24343  0.60752  0.15430  1.0000
  H   H683      1.0  0.24290  0.62402  0.11674  1.0000
  H   H684      1.0  0.27325  0.64266  0.11309  1.0000
  H   H685      1.0  0.30373  0.64485  0.14730  1.0000
  H   H686      1.0  0.30486  0.62852  0.18493  1.0000
  C   C863      1.0  0.05697  0.61216  0.29975  1.0000
  H   H687      1.0  0.46977  0.69429  0.31740  1.0000
  C   C864      1.0  0.47070  0.66020  0.08314  1.0000
  C   C865      1.0  0.02150  0.60045  0.33575  1.0000
  C   C866      1.0  0.04781  0.59487  0.33374  1.0000
  C   C867      1.0  0.06577  0.60112  0.31616  1.0000
  P   P30       1.0  0.05923  0.58118  0.35616  1.0000
  C   C868      1.0  0.06223  0.58858  0.38543  1.0000
  H   H688      1.0  0.41390  0.70430  0.15784  1.0000
  H   H689      1.0  0.05237  0.52046  0.36848  1.0000
  H   H690      1.0  0.44142  0.51787  0.01187  1.0000
  H   H691      1.0  0.49058  0.62673  0.08783  1.0000
  H   H692      1.0  0.41689  0.49292  0.07829  1.0000
  H   H693      1.0  0.19992  0.52352  0.44430  1.0000
  C   C869      1.0  0.04658  0.58469  0.40709  1.0000
  C   C870      1.0  0.05016  0.59013  0.42985  1.0000
  C   C871      1.0  0.06889  0.59965  0.43108  1.0000
  C   C872      1.0  0.08352  0.60402  0.40934  1.0000
  C   C873      1.0  0.08033  0.59850  0.38659  1.0000
  C   C874      1.0  0.09103  0.57375  0.34554  1.0000
  C   C875      1.0  0.11262  0.57172  0.36155  1.0000
  C   C876      1.0  0.09410  0.56967  0.32098  1.0000
  H   H694      1.0  0.07097  0.61725  0.28673  1.0000
  C   C877      1.0  0.00356  0.64765  0.31950  1.0000
  C   C878      1.0  0.49064  0.70015  0.20010  1.0000
  C   C879      1.0  0.25958  0.49624  0.41963  1.0000
  H   H695      1.0  0.08673  0.59783  0.31554  1.0000
  C   C880      1.0  0.23131  0.73045  0.31026  1.0000
  C   C881      1.0  0.44035  0.64189  0.13159  1.0000
  C   C882      1.0  0.23437  0.49630  0.40973  1.0000
  C   C883      1.0  0.48665  0.63495  0.13883  1.0000
  C   C884      1.0  0.47929  0.61847  0.08382  1.0000
  H   H696      1.0  0.03191  0.57735  0.40684  1.0000
  H   H697      1.0  0.03861  0.58681  0.44664  1.0000
  H   H698      1.0  0.07205  0.60368  0.44884  1.0000
  H   H699      1.0  0.09744  0.61169  0.41009  1.0000
  H   H700      1.0  0.09225  0.60189  0.37003  1.0000
  H   H701      1.0  0.11074  0.57447  0.38081  1.0000
  H   H702      1.0  0.07754  0.57113  0.30855  1.0000
  S   S122      1.0  0.36631  0.56859  0.03411  1.0000
  Fe  Fe61      1.0  0.36059  0.54644  0.03213  1.0000
  H   H703      1.0  0.06184  0.73342  0.38786  1.0000
  H   H704      1.0  0.44671  0.60953  0.15797  1.0000
  C   C885      1.0  0.24087  0.72479  0.33360  1.0000
  C   C886      1.0  0.23162  0.71270  0.34491  1.0000
  C   C887      1.0  0.21252  0.70626  0.33316  1.0000
  C   C888      1.0  0.20267  0.71191  0.31014  1.0000
  C   C889      1.0  0.21198  0.72394  0.29866  1.0000
  C   C890      1.0  0.30367  0.53510  0.12719  1.0000
  C   C891      1.0  0.08521  0.70369  0.36641  1.0000
  C   C892      1.0  0.45557  0.67469  0.12904  1.0000
  C   C893      1.0  0.02329  0.54095  0.30081  1.0000
  C   C894      1.0  0.31336  0.54039  0.22267  1.0000
  C   C895      1.0  0.44368  0.52582  0.99676  1.0000
  C   C896      1.0  0.43663  0.61035  0.07546  1.0000
  H   H705      1.0  0.45705  0.65448  0.01362  1.0000
  H   H706      1.0  0.23883  0.70845  0.36304  1.0000
  H   H707      1.0  0.20484  0.69703  0.34210  1.0000
  H   H708      1.0  0.18722  0.70710  0.30158  1.0000
  C   C897      1.0  0.44770  0.67367  0.15477  1.0000
  C   C898      1.0  0.02493  0.54985  0.46011  1.0000
  H   H709      1.0  0.11004  0.50143  0.31632  1.0000
  C   C899      1.0  0.33535  0.55089  0.25452  1.0000
  H   H710      1.0  0.49879  0.62971  0.19477  1.0000
  H   H711      1.0  0.15390  0.56483  0.36515  1.0000
  C   C900      1.0  0.27185  0.49727  0.24919  1.0000
  C   C901      1.0  0.11194  0.51014  0.32655  1.0000
  C   C902      1.0  0.35367  0.53968  0.25732  1.0000
  P   P31       1.0  0.33049  0.51563  0.20506  1.0000
  H   H712      1.0  0.29757  0.53970  0.10888  1.0000
  C   C903      1.0  0.33049  0.53509  0.16379  1.0000
  H   H713      1.0  0.02759  0.73274  0.27681  1.0000
  H   H714      1.0  0.03033  0.49991  0.45671  1.0000
  H   H715      1.0  0.45268  0.66453  0.16681  1.0000
  H   H716      1.0  0.06659  0.64365  0.42832  1.0000
  S   S123      1.0  0.34190  0.53378  0.00506  1.0000
  H   H717      1.0  0.03194  0.53833  0.39872  1.0000
  H   H718      1.0  0.36660  0.52036  0.24493  1.0000
  H   H719      1.0  0.02193  0.63632  0.44234  1.0000
  H   H720      1.0  0.49497  0.59298  0.97922  1.0000
  H   H721      1.0  0.42875  0.66681  0.08580  1.0000
  C   C904      1.0  0.43265  0.68432  0.16505  1.0000
  H   H722      1.0  0.16971  0.49770  0.40888  1.0000
  H   H723      1.0  0.47151  0.49311  0.13134  1.0000
  H   H724      1.0  0.42546  0.68325  0.18461  1.0000
  C   C905      1.0  0.11866  0.56401  0.31227  1.0000
  S   S124      1.0  0.44420  0.57076  0.02597  1.0000
  C   C906      1.0  0.45017  0.70597  0.22402  1.0000
  C   C907      1.0  0.47602  0.59492  0.07777  1.0000
  H   H725      1.0  0.33056  0.55033  0.13226  1.0000
  C   C908      1.0  0.13720  0.56614  0.35275  1.0000
  C   C909      1.0  0.13870  0.52200  0.35268  1.0000
  C   C910      1.0  0.38279  0.51217  0.18522  1.0000
  H   H726      1.0  0.34494  0.53993  0.17366  1.0000
  C   C911      1.0  0.04440  0.72399  0.35833  1.0000
  C   C912      1.0  0.02602  0.62534  0.38340  1.0000
  C   C913      1.0  0.32225  0.54109  0.14038  1.0000
  H   H727      1.0  0.33287  0.72314  0.28955  1.0000
  Fe  Fe62      1.0  0.08311  0.55882  0.47632  1.0000
  C   C914      1.0  0.05516  0.63853  0.41584  1.0000
  C   C915      1.0  0.31517  0.55123  0.23724  1.0000
  H   H728      1.0  0.27954  0.51821  0.12680  1.0000
  H   H729      1.0  0.30111  0.55996  0.23495  1.0000
  H   H730      1.0  0.06943  0.69448  0.33607  1.0000
  H   H731      1.0  0.10148  0.69601  0.36894  1.0000
  C   C916      1.0  0.35203  0.52887  0.24265  1.0000
  C   C917      1.0  0.29346  0.52303  0.13733  1.0000
  C   C918      1.0  0.48042  0.72332  0.20993  1.0000
  H   H732      1.0  0.47199  0.53578  0.01631  1.0000
  C   C919      1.0  0.01529  0.62750  0.40763  1.0000
  H   H733      1.0  0.07676  0.71556  0.29817  1.0000
  H   H734      1.0  0.01378  0.73616  0.41078  1.0000
  C   C920      1.0  0.33199  0.52920  0.22505  1.0000
  C   C921      1.0  0.32036  0.52293  0.17419  1.0000
  H   H735      1.0  0.41223  0.62694  0.14248  1.0000
  H   H736      1.0  0.42502  0.64928  0.12459  1.0000
  H   H737      1.0  0.00689  0.63963  0.33435  1.0000
  C   C922      1.0  0.36325  0.50699  0.20242  1.0000
  H   H738      1.0  0.02872  0.57098  0.26551  1.0000
  C   C923      1.0  0.06669  0.70980  0.28570  1.0000
  C   C924      1.0  0.22323  0.49212  0.32889  1.0000
  C   C925      1.0  0.30723  0.49098  0.20930  1.0000
  C   C926      1.0  0.06543  0.49311  0.29759  1.0000
  C   C927      1.0  0.06964  0.50166  0.24606  1.0000
  H   H739      1.0  0.25816  0.49965  0.26472  1.0000
  H   H740      1.0  0.09804  0.71552  0.39477  1.0000
  C   C928      1.0  0.99956  0.69907  0.32990  1.0000
  C   C929      1.0  0.14884  0.49847  0.40472  1.0000
  C   C930      1.0  0.45674  0.71939  0.22264  1.0000
  P   P32       1.0  0.47603  0.66121  0.11620  1.0000
  C   C931      1.0  0.09484  0.50043  0.39409  1.0000
  C   C932      1.0  0.42598  0.69617  0.14990  1.0000
  H   H741      1.0  0.15939  0.55805  0.32141  1.0000
  H   H742      1.0  0.40202  0.49216  0.98688  1.0000
  C   C933      1.0  0.09093  0.52013  0.32839  1.0000
  C   C934      1.0  0.45251  0.61931  0.15002  1.0000
  H   H743      1.0  0.25522  0.72986  0.34320  1.0000
  H   H744      1.0  0.07556  0.56164  0.26141  1.0000
  H   H745      1.0  0.46194  0.68601  0.21375  1.0000
  C   C935      1.0  0.37946  0.73106  0.21035  1.0000
  C   C936      1.0  0.44942  0.68677  0.11407  1.0000
  H   H746      1.0  0.15673  0.52248  0.36283  1.0000
  C   C937      1.0  0.39857  0.50297  0.04568  1.0000
  C   C938      1.0  0.28914  0.50682  0.23850  1.0000
  H   H747      1.0  0.02233  0.61110  0.45338  1.0000
  C   C939      1.0  0.04038  0.70641  0.29127  1.0000
  H   H748      1.0  0.29412  0.50740  0.16770  1.0000
  C   C940      1.0  0.40603  0.49238  0.00668  1.0000
  C   C941      1.0  0.06101  0.55587  0.27249  1.0000
  H   H749      1.0  0.00806  0.59653  0.35061  1.0000
  H   H750      1.0  0.44307  0.72675  0.23115  1.0000
  H   H751      1.0  0.07392  0.50098  0.39035  1.0000
  C   C942      1.0  0.08049  0.70559  0.26409  1.0000
  H   H752      1.0  0.00725  0.69677  0.27792  1.0000
  C   C943      1.0  0.37018  0.49560  0.21905  1.0000
  H   H753      1.0  0.26275  0.50258  0.43454  1.0000
  C   C944      1.0  0.05109  0.62968  0.37553  1.0000
  H   H754      1.0  0.08518  0.63960  0.38551  1.0000
  C   C945      1.0  0.01264  0.61136  0.31909  1.0000
  C   C946      1.0  0.01528  0.51200  0.37915  1.0000
  C   C947      1.0  0.30704  0.50372  0.21845  1.0000
  C   C948      1.0  0.44515  0.66323  0.07369  1.0000
  C   C949      1.0  0.06566  0.63629  0.39169  1.0000
  H   H755      1.0  0.06385  0.48960  0.31749  1.0000
  C   C950      1.0  0.04148  0.69516  0.25261  1.0000
  H   H756      1.0  0.00887  0.57534  0.33289  1.0000
  C   C951      1.0  0.00484  0.54377  0.44889  1.0000
  C   C952      1.0  0.32048  0.73230  0.28494  1.0000
  C   C953      1.0  0.43306  0.62914  0.14139  1.0000
  C   C954      1.0  0.06867  0.54323  0.28462  1.0000
  H   H757      1.0  0.42923  0.70664  0.11278  1.0000
  H   H758      1.0  0.11968  0.53998  0.36671  1.0000
  C   C955      1.0  0.06427  0.50696  0.28982  1.0000
  C   C956      1.0  0.08328  0.71469  0.38090  1.0000
  C   C957      1.0  0.43448  0.69743  0.12445  1.0000
  H   H759      1.0  0.17708  0.49713  0.28348  1.0000
  H   H760      1.0  0.02909  0.73208  0.35528  1.0000
  H   H761      1.0  0.02784  0.68601  0.35212  1.0000
  H   H762      1.0  0.24463  0.72106  0.18256  1.0000
  C   C958      1.0  0.00287  0.61047  0.46254  1.0000
  H   H763      1.0  0.20739  0.50979  0.30653  1.0000
  H   H764      1.0  0.31411  0.49447  0.02384  1.0000
  H   H765      1.0  0.01658  0.51372  0.39889  1.0000
  H   H766      1.0  0.48495  0.58475  0.07669  1.0000
  C   C959      1.0  0.01578  0.55367  0.28893  1.0000
  H   H767      1.0  0.32062  0.73804  0.22313  1.0000
  C   C960      1.0  0.00772  0.68757  0.34575  1.0000
  C   C961      1.0  0.46106  0.53585  0.99922  1.0000
  C   C962      1.0  0.03035  0.61714  0.30095  1.0000
  C   C963      1.0  0.27105  0.73701  0.18231  1.0000
  H   H768      1.0  0.01055  0.50574  0.30864  1.0000
  H   H769      1.0  0.47283  0.70384  0.27273  1.0000
  H   H770      1.0  0.00975  0.53487  0.43906  1.0000
  C   C964      1.0  0.01213  0.50755  0.32828  1.0000
  H   H771      1.0  0.07115  0.50494  0.22606  1.0000
  H   H772      1.0  0.00833  0.53535  0.31159  1.0000
  C   C965      1.0  0.18975  0.49189  0.29769  1.0000
  H   H773      1.0  0.22815  0.53137  0.47613  1.0000
  C   C966      1.0  0.49109  0.65478  0.06742  1.0000
  H   H774      1.0  0.02379  0.62591  0.28859  1.0000
  C   C967      1.0  0.49746  0.71354  0.19883  1.0000
  H   H775      1.0  0.43724  0.73705  0.18467  1.0000
  C   C968      1.0  0.49076  0.70171  0.28329  1.0000
  C   C969      1.0  0.48624  0.65283  0.04238  1.0000
  C   C970      1.0  0.30339  0.73454  0.21494  1.0000
  S   S125      1.0  0.15576  0.52729  0.51769  1.0000
  Fe  Fe63      1.0  0.13691  0.50753  0.66381  1.0000
  S   S126      1.0  0.12477  0.50815  0.70528  1.0000
  S   S127      1.0  0.13202  0.52644  0.63652  1.0000
  H   H776      1.0  0.28198  0.50144  0.93648  1.0000
  C   C971      1.0  0.49155  0.51318  0.82552  1.0000
  C   C972      1.0  0.02514  0.49061  0.70981  1.0000
  H   H777      1.0  0.12732  0.54984  0.71898  1.0000
  C   C973      1.0  0.42822  0.55309  0.89067  1.0000
  H   H778      1.0  0.40953  0.56436  0.97574  1.0000
  Fe  Fe64      1.0  0.35827  0.51605  0.86552  1.0000
  S   S128      1.0  0.36887  0.51448  0.82397  1.0000
  S   S129      1.0  0.36377  0.53465  0.88594  1.0000
  Fe  Fe65      1.0  0.33165  0.50275  0.82311  1.0000
  C   C974      1.0  0.08477  0.50331  0.76395  1.0000
  Fe  Fe66      1.0  0.16119  0.49355  0.71287  1.0000
  C   C975      1.0  0.08128  0.50828  0.58675  1.0000
  C   C976      1.0  0.20979  0.50224  0.50851  1.0000
  H   H779      1.0  0.08046  0.52898  0.65735  1.0000
  H   H780      1.0  0.09152  0.56363  0.81491  1.0000
  C   C977      1.0  0.18105  0.52700  0.72133  1.0000
  H   H781      1.0  0.12268  0.54530  0.54843  1.0000
  C   C978      1.0  0.47484  0.54625  0.89632  1.0000
  C   C979      1.0  0.45709  0.51026  0.92163  1.0000
  C   C980      1.0  0.15956  0.53524  0.73021  1.0000
  H   H782      1.0  0.49785  0.56843  0.90225  1.0000
  C   C981      1.0  0.00086  0.60389  0.48689  1.0000
  H   H783      1.0  0.44619  0.51630  0.90691  1.0000
  C   C982      1.0  0.35985  0.53395  0.91938  1.0000
  C   C983      1.0  0.35408  0.52202  0.93394  1.0000
  C   C984      1.0  0.42831  0.52645  0.97542  1.0000
  C   C985      1.0  0.27094  0.50182  0.77834  1.0000
  C   C986      1.0  0.35808  0.54556  0.95807  1.0000
  C   C987      1.0  0.36219  0.54567  0.93164  1.0000
  H   H784      1.0  0.35218  0.51293  0.92478  1.0000
  C   C988      1.0  0.07178  0.49984  0.54713  1.0000
  H   H785      1.0  0.13223  0.49272  0.53235  1.0000
  H   H786      1.0  0.36638  0.55498  0.92060  1.0000
  H   H787      1.0  0.02839  0.51829  0.57374  1.0000
  C   C989      1.0  0.49847  0.50413  0.94321  1.0000
  S   S130      1.0  0.17434  0.49427  0.67158  1.0000
  C   C990      1.0  0.25241  0.49443  0.79331  1.0000
  C   C991      1.0  0.49732  0.57325  0.91960  1.0000
  H   H788      1.0  0.09265  0.53685  0.75251  1.0000
  H   H789      1.0  0.49378  0.51911  0.91118  1.0000
  H   H790      1.0  0.38529  0.59775  0.90385  1.0000
  C   C992      1.0  0.42918  0.54686  0.86818  1.0000
  H   H791      1.0  0.45961  0.57804  0.97336  1.0000
  C   C993      1.0  0.39280  0.48968  0.76918  1.0000
  C   C994      1.0  0.26433  0.50617  0.75321  1.0000
  C   C995      1.0  0.05407  0.53541  0.62710  1.0000
  C   C996      1.0  0.14864  0.52716  0.55063  1.0000
  C   C997      1.0  0.16040  0.51676  0.56698  1.0000
  C   C998      1.0  0.15497  0.51620  0.59328  1.0000
  C   C999      1.0  0.13845  0.52636  0.60351  1.0000
  C   C1000     1.0  0.12694  0.53686  0.58718  1.0000
  C   C1001     1.0  0.13169  0.53717  0.56082  1.0000
  H   H792      1.0  0.17386  0.50910  0.55928  1.0000
  H   H793      1.0  0.16409  0.50811  0.60566  1.0000
  H   H794      1.0  0.11426  0.54480  0.59494  1.0000
  H   H795      1.0  0.10812  0.54154  0.80092  1.0000
  H   H796      1.0  0.14022  0.55085  0.67341  1.0000
  C   C1002     1.0  0.36664  0.49376  0.76286  1.0000
  H   H797      1.0  0.19193  0.51987  0.73424  1.0000
  C   C1003     1.0  0.41335  0.58159  0.91721  1.0000
  S   S131      1.0  0.38238  0.49717  0.87855  1.0000
  H   H798      1.0  0.09307  0.51759  0.55014  1.0000
  C   C1004     1.0  0.05875  0.48914  0.56025  1.0000
  H   H799      1.0  0.01865  0.59950  0.49612  1.0000
  H   H800      1.0  0.05846  0.52040  0.75177  1.0000
  C   C1005     1.0  0.22131  0.49596  0.75827  1.0000
  H   H801      1.0  0.49237  0.54538  0.90758  1.0000
  C   C1006     1.0  0.48509  0.49486  0.95978  1.0000
  Fe  Fe67      1.0  0.13295  0.54133  0.48882  1.0000
  H   H802      1.0  0.08992  0.51564  0.59708  1.0000
  H   H803      1.0  0.23625  0.51807  0.82722  1.0000
  C   C1007     1.0  0.39062  0.59040  0.91943  1.0000
  C   C1008     1.0  0.38181  0.58035  0.96191  1.0000
  C   C1009     1.0  0.09772  0.52634  0.75837  1.0000
  C   C1010     1.0  0.45131  0.55330  0.90446  1.0000
  H   H804      1.0  0.20472  0.52115  0.68888  1.0000
  C   C1011     1.0  0.18829  0.52768  0.69559  1.0000
  P   P33       1.0  0.44981  0.56079  0.93422  1.0000
  C   C1012     1.0  0.21910  0.52183  0.47989  1.0000
  H   H805      1.0  0.49426  0.53505  0.86700  1.0000
  H   H806      1.0  0.36067  0.50438  0.75901  1.0000
  H   H807      1.0  0.05311  0.51073  0.67552  1.0000
  C   C1013     1.0  0.17384  0.53646  0.67842  1.0000
  C   C1014     1.0  0.28856  0.49979  0.95573  1.0000
  C   C1015     1.0  0.02253  0.51500  0.64817  1.0000
  C   C1016     1.0  0.47587  0.54019  0.87356  1.0000
  H   H808      1.0  0.19066  0.51171  0.84072  1.0000
  Fe  Fe68      1.0  0.10109  0.49030  0.69984  1.0000
  H   H809      1.0  0.01011  0.50740  0.65730  1.0000
  H   H810      1.0  0.27828  0.51187  0.74126  1.0000
  Fe  Fe69      1.0  0.39140  0.49491  0.83733  1.0000
  H   H811      1.0  0.06999  0.49606  0.76257  1.0000
  C   C1017     1.0  0.49592  0.58738  0.96267  1.0000
  H   H812      1.0  0.41120  0.54670  0.85774  1.0000
  S   S132      1.0  0.30218  0.50617  0.78987  1.0000
  C   C1018     1.0  0.06218  0.52728  0.64856  1.0000
  C   C1019     1.0  0.14473  0.54383  0.71278  1.0000
  C   C1020     1.0  0.01327  0.52708  0.53844  1.0000
  C   C1021     1.0  0.06875  0.49759  0.59993  1.0000
  C   C1022     1.0  0.04654  0.51704  0.65897  1.0000
  H   H813      1.0  0.35716  0.59654  0.94349  1.0000
  H   H814      1.0  0.17902  0.53675  0.65836  1.0000
  C   C1023     1.0  0.46647  0.50755  0.82706  1.0000
  C   C1024     1.0  0.08293  0.50938  0.56034  1.0000
  C   C1025     1.0  0.10704  0.56311  0.80015  1.0000
  C   C1026     1.0  0.11794  0.57491  0.78941  1.0000
  C   C1027     1.0  0.13834  0.57421  0.77074  1.0000
  C   C1028     1.0  0.14769  0.56174  0.76261  1.0000
  C   C1029     1.0  0.13630  0.54990  0.77279  1.0000
  C   C1030     1.0  0.11637  0.55062  0.79206  1.0000
  P   P34       1.0  0.14939  0.53378  0.76331  1.0000
  C   C1031     1.0  0.17695  0.52861  0.78346  1.0000
  C   C1032     1.0  0.20265  0.53259  0.77647  1.0000
  C   C1033     1.0  0.22392  0.52875  0.79220  1.0000
  C   C1034     1.0  0.21959  0.52121  0.81531  1.0000
  C   C1035     1.0  0.19394  0.51757  0.82280  1.0000
  C   C1036     1.0  0.17263  0.52136  0.80706  1.0000
  C   C1037     1.0  0.12367  0.52198  0.76559  1.0000
  H   H815      1.0  0.49256  0.52389  0.82629  1.0000
  C   C1038     1.0  0.07831  0.51704  0.75776  1.0000
  H   H816      1.0  0.45367  0.53598  0.84179  1.0000
  C   C1039     1.0  0.44839  0.54697  0.95854  1.0000
  C   C1040     1.0  0.12994  0.50817  0.77181  1.0000
  H   H817      1.0  0.11078  0.58458  0.79576  1.0000
  H   H818      1.0  0.14709  0.58333  0.76269  1.0000
  H   H819      1.0  0.16389  0.56133  0.74849  1.0000
  H   H820      1.0  0.20643  0.53857  0.75878  1.0000
  H   H821      1.0  0.24392  0.53142  0.78635  1.0000
  H   H822      1.0  0.06783  0.49671  0.62044  1.0000
  S   S133      1.0  0.11148  0.49065  0.65825  1.0000
  H   H823      1.0  0.15285  0.51858  0.81328  1.0000
  C   C1041     1.0  0.01486  0.52267  0.62582  1.0000
  C   C1042     1.0  0.22792  0.49159  0.78340  1.0000
  H   H824      1.0  0.15001  0.50447  0.77640  1.0000
  H   H825      1.0  0.44832  0.51389  0.82924  1.0000
  C   C1043     1.0  0.48415  0.51189  0.92424  1.0000
  H   H826      1.0  0.23428  0.51785  0.51725  1.0000
  C   C1044     1.0  0.45817  0.49302  0.95675  1.0000
  H   H827      1.0  0.23561  0.50663  0.72386  1.0000
  H   H828      1.0  0.02419  0.53981  0.59954  1.0000
  C   C1045     1.0  0.40438  0.57145  0.95970  1.0000
  H   H829      1.0  0.01624  0.49432  0.62056  1.0000
  C   C1046     1.0  0.23992  0.50326  0.74325  1.0000
  C   C1047     1.0  0.47583  0.57887  0.95929  1.0000
  C   C1048     1.0  0.15196  0.54446  0.68698  1.0000
  C   C1049     1.0  0.28602  0.51029  0.97143  1.0000
  C   C1050     1.0  0.34982  0.52196  0.96033  1.0000
  H   H830      1.0  0.25671  0.49109  0.81273  1.0000
  H   H831      1.0  0.35883  0.55474  0.96716  1.0000
  C   C1051     1.0  0.01709  0.50394  0.71429  1.0000
  C   C1052     1.0  0.42006  0.57186  0.93712  1.0000
  H   H832      1.0  0.41809  0.53747  0.94026  1.0000
  S   S134      1.0  0.18987  0.49183  0.74677  1.0000
  S   S135      1.0  0.31973  0.50619  0.86356  1.0000
  C   C1053     1.0  0.44414  0.50075  0.93775  1.0000
  H   H833      1.0  0.21213  0.49673  0.52687  1.0000
  H   H834      1.0  0.42561  0.58231  0.89991  1.0000
  C   C1054     1.0  0.22256  0.51420  0.50307  1.0000
  C   C1055     1.0  0.46484  0.49378  0.82495  1.0000
  C   C1056     1.0  0.35134  0.53378  0.97248  1.0000
  H   H835      1.0  0.13467  0.50508  0.49218  1.0000
  H   H836      1.0  0.06627  0.54340  0.61918  1.0000
  C   C1057     1.0  0.03036  0.53322  0.61589  1.0000
  H   H837      1.0  0.03247  0.52626  0.52838  1.0000
  H   H838      1.0  0.03183  0.51070  0.71828  1.0000
  H   H839      1.0  0.40920  0.55745  0.89735  1.0000
  C   C1058     1.0  0.19336  0.49783  0.49077  1.0000
  C   C1059     1.0  0.11056  0.49889  0.77102  1.0000
  C   C1060     1.0  0.37480  0.58974  0.94174  1.0000
  H   H840      1.0  0.41400  0.51904  0.97381  1.0000
  H   H841      1.0  0.34483  0.51276  0.97128  1.0000
  C   C1061     1.0  0.47662  0.57147  0.93802  1.0000
  C   C1062     1.0  0.01092  0.52267  0.56418  1.0000
  C   C1063     1.0  0.43061  0.53699  0.95640  1.0000
  H   H842      1.0  0.07347  0.50082  0.52666  1.0000
  C   C1064     1.0  0.45307  0.54062  0.85941  1.0000
  S   S136      1.0  0.04360  0.56819  0.48915  1.0000
  H   H843      1.0  0.42322  0.49943  0.93546  1.0000
  S   S137      1.0  0.12434  0.56396  0.48507  1.0000
  H   H844      1.0  0.49563  0.48888  0.97471  1.0000
  C   C1065     1.0  0.03593  0.48930  0.49360  1.0000
  H   H845      1.0  0.40729  0.49711  0.77013  1.0000
  C   C1066     1.0  0.12861  0.49681  0.48240  1.0000
  S   S138      1.0  0.09105  0.53649  0.48345  1.0000
  H   H846      1.0  0.27760  0.52016  0.96438  1.0000
  H   H847      1.0  0.12556  0.49032  0.57850  1.0000
  H   H848      1.0  0.49942  0.49697  0.88130  1.0000
  C   C1067     1.0  0.00131  0.49381  0.52536  1.0000
  Fe  Fe70      1.0  0.38199  0.76675  0.21571  1.0000
  S   S139      1.0  0.38166  0.77760  0.25083  1.0000
  C   C1068     1.0  0.21470  0.75746  0.33729  1.0000
  Fe  Fe71      1.0  0.37314  0.79333  0.18289  1.0000
  S   S140      1.0  0.37212  0.80577  0.21595  1.0000
  S   S141      1.0  0.37192  0.80260  0.14217  1.0000
  Fe  Fe72      1.0  0.40747  0.79209  0.22845  1.0000
  S   S142      1.0  0.44209  0.80080  0.24572  1.0000
  Fe  Fe73      1.0  0.34620  0.79008  0.23530  1.0000
  S   S143      1.0  0.31354  0.79477  0.26508  1.0000
  S   S144      1.0  0.41019  0.78060  0.19431  1.0000
  S   S145      1.0  0.34476  0.77831  0.20133  1.0000
  Fe  Fe74      1.0  0.13473  0.77660  0.34162  1.0000
  S   S146      1.0  0.13085  0.77734  0.29985  1.0000
  S   S147      1.0  0.14267  0.75614  0.36405  1.0000
  Fe  Fe75      1.0  0.12433  0.80733  0.34162  1.0000
  S   S148      1.0  0.11965  0.80963  0.29933  1.0000
  S   S149      1.0  0.11450  0.82759  0.35811  1.0000
  Fe  Fe76      1.0  0.09506  0.79168  0.30579  1.0000
  S   S150      1.0  0.05829  0.78764  0.28507  1.0000
  Fe  Fe77      1.0  0.15596  0.79512  0.29741  1.0000
  S   S151      1.0  0.18650  0.79695  0.26423  1.0000
  S   S152      1.0  0.09746  0.79007  0.34799  1.0000
  S   S153      1.0  0.16224  0.79374  0.33926  1.0000
  S   S154      1.0  0.11319  0.98742  0.31293  1.0000
  H   H849      1.0  0.13659  0.87656  0.37970  1.0000
  S   S155      1.0  0.16103  0.92098  0.45281  1.0000
  Fe  Fe78      1.0  0.36192  0.87961  0.08319  1.0000
  S   S156      1.0  0.37836  0.89756  0.09762  1.0000
  S   S157      1.0  0.34594  0.86552  0.11566  1.0000
  Fe  Fe79      1.0  0.37604  0.88973  0.02846  1.0000
  S   S158      1.0  0.39439  0.90814  0.03891  1.0000
  C   C1069     1.0  0.05742  0.82237  0.42522  1.0000
  Fe  Fe80      1.0  0.41231  0.89435  0.07015  1.0000
  S   S159      1.0  0.45006  0.89792  0.08789  1.0000
  Fe  Fe81      1.0  0.35897  0.91004  0.06585  1.0000
  S   S160      1.0  0.34294  0.93129  0.07132  1.0000
  S   S161      1.0  0.39774  0.87549  0.05771  1.0000
  S   S162      1.0  0.33878  0.89255  0.05324  1.0000
  C   C1070     1.0  0.40922  0.93226  0.17502  1.0000
  C   C1071     1.0  0.02089  0.84553  0.36911  1.0000
  S   S163      1.0  0.11259  0.95562  0.35819  1.0000
  H   H850      1.0  0.03410  0.80618  0.32054  1.0000
  H   H851      1.0  0.10297  0.83392  0.47523  1.0000
  H   H852      1.0  0.02404  0.92156  0.38629  1.0000
  C   C1072     1.0  0.14089  0.96385  0.47428  1.0000
  S   S164      1.0  0.34379  0.94875  0.18275  1.0000
  C   C1073     1.0  0.19915  0.76019  0.27229  1.0000
  H   H853      1.0  0.34827  0.89331  0.19091  1.0000
  C   C1074     1.0  0.39520  0.98528  0.03182  1.0000
  H   H854      1.0  0.38457  0.97562  0.10433  1.0000
  H   H855      1.0  0.15910  0.91768  0.36707  1.0000
  C   C1075     1.0  0.45304  0.76308  0.26309  1.0000
  S   S165      1.0  0.11365  0.89167  0.44405  1.0000
  C   C1076     1.0  0.03574  0.77777  0.45487  1.0000
  C   C1077     1.0  0.47982  0.89244  0.07292  1.0000
  H   H856      1.0  0.18858  0.91351  0.40269  1.0000
  C   C1078     1.0  0.48040  0.88453  0.05251  1.0000
  C   C1079     1.0  0.46179  0.97331  0.10393  1.0000
  H   H857      1.0  0.46199  0.88169  0.04549  1.0000
  C   C1080     1.0  0.34524  0.93578  0.10238  1.0000
  C   C1081     1.0  0.35003  0.94907  0.10632  1.0000
  C   C1082     1.0  0.35004  0.95308  0.13097  1.0000
  C   C1083     1.0  0.34524  0.94381  0.15177  1.0000
  C   C1084     1.0  0.34105  0.93045  0.14787  1.0000
  C   C1085     1.0  0.34114  0.92643  0.12324  1.0000
  H   H858      1.0  0.35350  0.95628  0.09025  1.0000
  H   H859      1.0  0.35328  0.96339  0.13392  1.0000
  H   H860      1.0  0.33732  0.92325  0.16391  1.0000
  H   H861      1.0  0.33710  0.91621  0.12038  1.0000
  H   H862      1.0  0.18141  0.76462  0.21094  1.0000
  C   C1086     1.0  0.14660  0.93117  0.42759  1.0000
  C   C1087     1.0  0.12333  0.92766  0.41726  1.0000
  C   C1088     1.0  0.11294  0.93532  0.39607  1.0000
  C   C1089     1.0  0.12526  0.94677  0.38558  1.0000
  C   C1090     1.0  0.14813  0.95054  0.39626  1.0000
  C   C1091     1.0  0.15896  0.94266  0.41712  1.0000
  H   H863      1.0  0.11348  0.91895  0.42533  1.0000
  H   H864      1.0  0.09521  0.93240  0.38789  1.0000
  H   H865      1.0  0.15770  0.95935  0.38809  1.0000
  H   H866      1.0  0.17696  0.94541  0.42509  1.0000
  C   C1092     1.0  0.02483  0.79243  0.29396  1.0000
  H   H867      1.0  0.19262  0.95453  0.21701  1.0000
  C   C1093     1.0  0.00503  0.98266  0.41330  1.0000
  C   C1094     1.0  0.49797  0.87076  0.15034  1.0000
  C   C1095     1.0  0.12269  0.83448  0.38618  1.0000
  C   C1096     1.0  0.11282  0.84772  0.39014  1.0000
  C   C1097     1.0  0.11861  0.85365  0.41210  1.0000
  C   C1098     1.0  0.13464  0.84648  0.43026  1.0000
  C   C1099     1.0  0.14444  0.83324  0.42637  1.0000
  C   C1100     1.0  0.13847  0.82725  0.40448  1.0000
  H   H868      1.0  0.10081  0.85348  0.37605  1.0000
  H   H869      1.0  0.11096  0.86383  0.41485  1.0000
  H   H870      1.0  0.15688  0.82761  0.44030  1.0000
  H   H871      1.0  0.14621  0.81708  0.40171  1.0000
  C   C1101     1.0  0.47641  0.79553  0.24249  1.0000
  C   C1102     1.0  0.12854  0.74125  0.32590  1.0000
  S   S166      1.0  0.03903  0.90175  0.45991  1.0000
  H   H872      1.0  0.47413  0.78465  0.20964  1.0000
  H   H873      1.0  0.47217  0.77923  0.14370  1.0000
  C   C1103     1.0  0.36697  0.82030  0.13491  1.0000
  C   C1104     1.0  0.36507  0.82921  0.15381  1.0000
  C   C1105     1.0  0.36001  0.84313  0.14749  1.0000
  C   C1106     1.0  0.35707  0.84835  0.12221  1.0000
  C   C1107     1.0  0.35996  0.83951  0.10320  1.0000
  C   C1108     1.0  0.36474  0.82554  0.10956  1.0000
  H   H874      1.0  0.36682  0.82539  0.17336  1.0000
  H   H875      1.0  0.35807  0.84987  0.16231  1.0000
  H   H876      1.0  0.35741  0.84338  0.08370  1.0000
  H   H877      1.0  0.36622  0.81875  0.09478  1.0000
  C   C1109     1.0  0.27830  0.79471  0.26439  1.0000
  C   C1110     1.0  0.26521  0.79279  0.24250  1.0000
  C   C1111     1.0  0.23711  0.79313  0.24296  1.0000
  C   C1112     1.0  0.22184  0.79525  0.26529  1.0000
  C   C1113     1.0  0.23499  0.79691  0.28724  1.0000
  C   C1114     1.0  0.26303  0.79678  0.28668  1.0000
  H   H878      1.0  0.27666  0.79125  0.22517  1.0000
  H   H879      1.0  0.22710  0.79191  0.22583  1.0000
  H   H880      1.0  0.22353  0.79865  0.30449  1.0000
  H   H881      1.0  0.27297  0.79837  0.30364  1.0000
  H   H882      1.0  0.12180  0.75071  0.31603  1.0000
  C   C1115     1.0  0.23550  0.93035  0.33992  1.0000
  H   H883      1.0  0.49505  0.89879  0.99977  1.0000
  C   C1116     1.0  0.21083  0.76613  0.35650  1.0000
  C   C1117     1.0  0.28283  0.93943  0.28588  1.0000
  C   C1118     1.0  0.42162  0.91467  0.14753  1.0000
  C   C1119     1.0  0.40558  0.91956  0.16725  1.0000
  C   C1120     1.0  0.44383  0.93559  0.14214  1.0000
  C   C1121     1.0  0.44110  0.92252  0.13539  1.0000
  C   C1122     1.0  0.01835  0.80181  0.31160  1.0000
  C   C1123     1.0  0.44803  0.96201  0.11300  1.0000
  C   C1124     1.0  0.42007  0.96279  0.11230  1.0000
  C   C1125     1.0  0.09503  0.80260  0.44482  1.0000
  P   P35       1.0  0.24253  0.74643  0.29663  1.0000
  H   H884      1.0  0.48803  0.90799  0.16591  1.0000
  C   C1126     1.0  0.48161  0.93950  0.09719  1.0000
  H   H885      1.0  0.19796  0.95517  0.34541  1.0000
  C   C1127     1.0  0.47702  0.85075  0.20465  1.0000
  H   H886      1.0  0.41878  0.90486  0.14129  1.0000
  H   H887      1.0  0.39008  0.91364  0.17629  1.0000
  H   H888      1.0  0.45361  0.91837  0.12060  1.0000
  C   C1128     1.0  0.44779  0.98546  0.09586  1.0000
  H   H889      1.0  0.19973  0.75042  0.33511  1.0000
  P   P36       1.0  0.23276  0.95104  0.30071  1.0000
  C   C1129     1.0  0.48073  0.84172  0.22617  1.0000
  H   H890      1.0  0.43190  0.88816  0.99669  1.0000
  Fe  Fe82      1.0  0.13595  0.90403  0.46802  1.0000
  H   H891      1.0  0.44396  0.93521  0.08260  1.0000
  H   H892      1.0  0.27646  0.76502  0.26706  1.0000
  C   C1130     1.0  0.28872  0.82893  0.13539  1.0000
  C   C1131     1.0  0.30024  0.81583  0.14005  1.0000
  C   C1132     1.0  0.30760  0.81106  0.16444  1.0000
  C   C1133     1.0  0.30435  0.81950  0.18404  1.0000
  C   C1134     1.0  0.29360  0.83283  0.17937  1.0000
  C   C1135     1.0  0.28488  0.83731  0.15506  1.0000
  P   P37       1.0  0.28901  0.84355  0.20503  1.0000
  C   C1136     1.0  0.31846  0.84107  0.22366  1.0000
  C   C1137     1.0  0.28450  0.86120  0.19343  1.0000
  C   C1138     1.0  0.29957  0.86631  0.17226  1.0000
  C   C1139     1.0  0.29626  0.87991  0.16326  1.0000
  C   C1140     1.0  0.27816  0.88861  0.17555  1.0000
  C   C1141     1.0  0.26321  0.88367  0.19679  1.0000
  C   C1142     1.0  0.26631  0.87002  0.20569  1.0000
  C   C1143     1.0  0.33937  0.84970  0.21938  1.0000
  C   C1144     1.0  0.36186  0.84771  0.23414  1.0000
  C   C1145     1.0  0.36376  0.83705  0.25314  1.0000
  C   C1146     1.0  0.34321  0.82835  0.25733  1.0000
  C   C1147     1.0  0.32071  0.83032  0.24266  1.0000
  C   C1148     1.0  0.26049  0.83846  0.22458  1.0000
  C   C1149     1.0  0.24094  0.83129  0.21481  1.0000
  C   C1150     1.0  0.21956  0.82687  0.23038  1.0000
  C   C1151     1.0  0.21752  0.82958  0.25572  1.0000
  C   C1152     1.0  0.23674  0.83681  0.26553  1.0000
  C   C1153     1.0  0.25810  0.84130  0.25002  1.0000
  H   H893      1.0  0.28306  0.83264  0.11645  1.0000
  H   H894      1.0  0.30382  0.80942  0.12473  1.0000
  H   H895      1.0  0.31658  0.80091  0.16795  1.0000
  H   H896      1.0  0.31036  0.81556  0.20274  1.0000
  H   H897      1.0  0.27532  0.84729  0.15105  1.0000
  H   H898      1.0  0.31374  0.85977  0.16246  1.0000
  H   H899      1.0  0.30761  0.88363  0.14653  1.0000
  H   H900      1.0  0.27563  0.89915  0.16849  1.0000
  H   H901      1.0  0.24909  0.89042  0.20625  1.0000
  H   H902      1.0  0.25443  0.86642  0.22206  1.0000
  H   H903      1.0  0.33851  0.85795  0.20469  1.0000
  H   H904      1.0  0.37784  0.85442  0.23080  1.0000
  H   H905      1.0  0.38122  0.83542  0.26452  1.0000
  H   H906      1.0  0.34479  0.81989  0.27172  1.0000
  H   H907      1.0  0.30516  0.82334  0.24609  1.0000
  H   H908      1.0  0.24232  0.82887  0.19536  1.0000
  H   H909      1.0  0.20489  0.82097  0.22309  1.0000
  H   H910      1.0  0.20131  0.82577  0.26785  1.0000
  H   H911      1.0  0.23533  0.83866  0.28531  1.0000
  H   H912      1.0  0.27301  0.84674  0.25800  1.0000
  C   C1154     1.0  0.44348  0.85607  0.13780  1.0000
  C   C1155     1.0  0.39593  0.87677  0.15561  1.0000
  C   C1156     1.0  0.37180  0.88375  0.16196  1.0000
  C   C1157     1.0  0.45181  0.86227  0.11423  1.0000
  C   C1158     1.0  0.44876  0.85617  0.09205  1.0000
  C   C1159     1.0  0.43696  0.84391  0.09309  1.0000
  C   C1160     1.0  0.42848  0.83770  0.11638  1.0000
  C   C1161     1.0  0.43169  0.84371  0.13865  1.0000
  H   H913      1.0  0.39902  0.87359  0.13669  1.0000
  H   H914      1.0  0.35678  0.88595  0.14794  1.0000
  H   H915      1.0  0.46024  0.87197  0.11282  1.0000
  H   H916      1.0  0.45488  0.86113  0.07397  1.0000
  H   H917      1.0  0.43384  0.83938  0.07583  1.0000
  H   H918      1.0  0.41883  0.82834  0.11712  1.0000
  H   H919      1.0  0.42437  0.83876  0.15623  1.0000
  H   H920      1.0  0.35684  0.93448  0.01554  1.0000
  C   C1162     1.0  0.05754  0.76112  0.33603  1.0000
  H   H921      1.0  0.22617  0.78229  0.37426  1.0000
  C   C1163     1.0  0.23332  0.96239  0.32524  1.0000
  H   H922      1.0  0.27922  0.93102  0.29968  1.0000
  H   H923      1.0  0.26834  0.97229  0.30996  1.0000
  H   H924      1.0  0.42967  0.77148  0.13041  1.0000
  C   C1164     1.0  0.46972  0.75030  0.18309  1.0000
  H   H925      1.0  0.08233  0.92143  0.32500  1.0000
  C   C1165     1.0  0.29244  0.74183  0.19374  1.0000
  C   C1166     1.0  0.45964  0.80801  0.13502  1.0000
  C   C1167     1.0  0.44445  0.80889  0.15751  1.0000
  C   C1168     1.0  0.23751  0.75797  0.32103  1.0000
  C   C1169     1.0  0.21423  0.92522  0.30236  1.0000
  C   C1170     1.0  0.46021  0.75835  0.23962  1.0000
  H   H926      1.0  0.07255  0.76028  0.32084  1.0000
  P   P38       1.0  0.44642  0.86445  0.16621  1.0000
  C   C1171     1.0  0.28856  0.75582  0.27220  1.0000
  H   H927      1.0  0.26299  0.74251  0.16550  1.0000
  H   H928      1.0  0.02691  0.98633  0.34743  1.0000
  C   C1172     1.0  0.25322  0.97155  0.32504  1.0000
  C   C1173     1.0  0.19293  0.76101  0.22723  1.0000
  H   H929      1.0  0.16685  0.87259  0.41495  1.0000
  C   C1174     1.0  0.36701  0.88788  0.18621  1.0000
  C   C1175     1.0  0.45985  0.83421  0.23635  1.0000
  H   H930      1.0  0.23686  0.91460  0.37058  1.0000
  C   C1176     1.0  0.21440  0.97050  0.36439  1.0000
  H   H931      1.0  0.45083  0.80458  0.11876  1.0000
  H   H932      1.0  0.42397  0.80616  0.15870  1.0000
  C   C1177     1.0  0.13943  0.74100  0.34965  1.0000
  H   H933      1.0  0.27411  0.76808  0.31249  1.0000
  H   H934      1.0  0.30095  0.75105  0.18589  1.0000
  C   C1178     1.0  0.00235  0.75686  0.45138  1.0000
  H   H935      1.0  0.06762  0.81460  0.38919  1.0000
  C   C1179     1.0  0.18408  0.76445  0.25120  1.0000
  C   C1180     1.0  0.47021  0.88898  0.16700  1.0000
  C   C1181     1.0  0.14284  0.93534  0.30389  1.0000
  C   C1182     1.0  0.15006  0.93122  0.28001  1.0000
  C   C1183     1.0  0.14991  0.91762  0.27577  1.0000
  C   C1184     1.0  0.14229  0.90814  0.29538  1.0000
  C   C1185     1.0  0.13477  0.91223  0.31942  1.0000
  C   C1186     1.0  0.13519  0.92591  0.32346  1.0000
  P   P39       1.0  0.12278  0.90036  0.34448  1.0000
  C   C1187     1.0  0.09141  0.90717  0.35744  1.0000
  C   C1188     1.0  0.11735  0.88441  0.33261  1.0000
  C   C1189     1.0  0.09143  0.88078  0.32900  1.0000
  C   C1190     1.0  0.08737  0.86800  0.32175  1.0000
  C   C1191     1.0  0.10909  0.85877  0.31798  1.0000
  C   C1192     1.0  0.13494  0.86237  0.32111  1.0000
  C   C1193     1.0  0.13912  0.87517  0.32817  1.0000
  C   C1194     1.0  0.08181  0.90189  0.38120  1.0000
  C   C1195     1.0  0.05748  0.90699  0.39135  1.0000
  C   C1196     1.0  0.04257  0.91742  0.37800  1.0000
  C   C1197     1.0  0.05172  0.92257  0.35409  1.0000
  C   C1198     1.0  0.07587  0.91736  0.34367  1.0000
  C   C1199     1.0  0.14606  0.89731  0.36978  1.0000
  C   C1200     1.0  0.14842  0.88463  0.38379  1.0000
  C   C1201     1.0  0.16558  0.88232  0.40392  1.0000
  C   C1202     1.0  0.18019  0.89270  0.41060  1.0000
  C   C1203     1.0  0.17793  0.90533  0.39691  1.0000
  C   C1204     1.0  0.16093  0.90767  0.37666  1.0000
  H   H936      1.0  0.14251  0.94592  0.30724  1.0000
  H   H937      1.0  0.15552  0.93861  0.26477  1.0000
  H   H938      1.0  0.15532  0.91446  0.25716  1.0000
  H   H939      1.0  0.14182  0.89772  0.29152  1.0000
  H   H940      1.0  0.12861  0.92943  0.34152  1.0000
  H   H941      1.0  0.07427  0.88768  0.33213  1.0000
  H   H942      1.0  0.06735  0.86513  0.31944  1.0000
  H   H943      1.0  0.10595  0.84873  0.31304  1.0000
  H   H944      1.0  0.15165  0.85506  0.31864  1.0000
  H   H945      1.0  0.15925  0.87771  0.33096  1.0000
  H   H946      1.0  0.09311  0.89387  0.39197  1.0000
  H   H947      1.0  0.05039  0.90297  0.40977  1.0000
  C   C1205     1.0  0.44106  0.76548  0.14480  1.0000
  C   C1206     1.0  0.22948  0.77545  0.35959  1.0000
  H   H948      1.0  0.00189  0.89629  0.37167  1.0000
  H   H949      1.0  0.46545  0.91975  0.99768  1.0000
  C   C1207     1.0  0.41556  0.87393  0.17361  1.0000
  C   C1208     1.0  0.42822  0.94027  0.16251  1.0000
  H   H950      1.0  0.39670  0.93609  0.19025  1.0000
  C   C1209     1.0  0.19047  0.95745  0.23615  1.0000
  H   H951      1.0  0.19931  0.97017  0.37957  1.0000
  H   H952      1.0  0.46450  0.92309  0.04766  1.0000
  H   H953      1.0  0.45170  0.76360  0.22288  1.0000
  H   H954      1.0  0.19205  0.76323  0.29055  1.0000
  H   H955      1.0  0.19262  0.89109  0.42688  1.0000
  H   H956      1.0  0.40883  0.95414  0.11835  1.0000
  P   P40       1.0  0.46642  0.94665  0.12482  1.0000
  S   S167      1.0  0.43672  0.98275  0.22209  1.0000
  C   C1210     1.0  0.14201  0.97273  0.45234  1.0000
  C   C1211     1.0  0.46547  0.93456  0.07982  1.0000
  H   H957      1.0  0.32442  0.76385  0.25532  1.0000
  H   H958      1.0  0.22367  0.75054  0.20571  1.0000
  H   H959      1.0  0.41183  0.84601  0.19559  1.0000
  C   C1212     1.0  0.31129  0.97199  0.05556  1.0000
  H   H960      1.0  0.01994  0.84884  0.38796  1.0000
  C   C1213     1.0  0.06278  0.82147  0.45104  1.0000
  C   C1214     1.0  0.20956  0.91239  0.31393  1.0000
  C   C1215     1.0  0.22318  0.75233  0.26952  1.0000
  H   H961      1.0  0.02031  0.88301  0.41473  1.0000
  C   C1216     1.0  0.45222  0.85236  0.19324  1.0000
  H   H962      1.0  0.43018  0.95027  0.16829  1.0000
  C   C1217     1.0  0.35217  0.95606  0.01612  1.0000
  C   C1218     1.0  0.21674  0.75312  0.22432  1.0000
  C   C1219     1.0  0.38649  0.88513  0.20421  1.0000
  H   H963      1.0  0.02545  0.83280  0.30221  1.0000
  C   C1220     1.0  0.04706  0.83614  0.33480  1.0000
  C   C1221     1.0  0.46337  0.75644  0.28517  1.0000
  H   H964      1.0  0.07686  0.85528  0.45330  1.0000
  C   C1222     1.0  0.18562  0.96557  0.28521  1.0000
  C   C1223     1.0  0.03112  0.97777  0.41846  1.0000
  C   C1224     1.0  0.41068  0.87819  0.19796  1.0000
  C   C1225     1.0  0.26964  0.96131  0.26478  1.0000
  H   H965      1.0  0.24587  0.93709  0.35021  1.0000
  C   C1226     1.0  0.02515  0.87318  0.42445  1.0000
  Fe  Fe83      1.0  0.35215  0.97035  0.18646  1.0000
  H   H966      1.0  0.35386  0.95552  0.03644  1.0000
  C   C1227     1.0  0.22696  0.93437  0.31538  1.0000
  C   C1228     1.0  0.30104  0.97002  0.08042  1.0000
  H   H967      1.0  0.20786  0.92797  0.28332  1.0000
  C   C1229     1.0  0.35410  0.94409  0.00428  1.0000
  H   H968      1.0  0.19317  0.76572  0.36889  1.0000
  H   H969      1.0  0.48552  0.80552  0.27485  1.0000
  H   H970      1.0  0.06604  0.83213  0.32714  1.0000
  C   C1230     1.0  0.46493  0.76988  0.15235  1.0000
  H   H971      1.0  0.48939  0.97139  0.23344  1.0000
  C   C1231     1.0  0.43126  0.84485  0.20381  1.0000
  H   H972      1.0  0.38287  0.88844  0.22298  1.0000
  H   H973      1.0  0.04028  0.93074  0.34374  1.0000
  C   C1232     1.0  0.40615  0.97494  0.10407  1.0000
  C   C1233     1.0  0.27727  0.74487  0.28622  1.0000
  C   C1234     1.0  0.20934  0.95262  0.25390  1.0000
  H   H974      1.0  0.39037  0.97772  0.04701  1.0000
  P   P41       1.0  0.48824  0.74080  0.20799  1.0000
  C   C1235     1.0  0.48078  0.74494  0.28385  1.0000
  H   H975      1.0  0.15478  0.97033  0.22912  1.0000
  H   H976      1.0  0.05207  0.76012  0.39984  1.0000
  H   H977      1.0  0.00131  0.92762  0.46515  1.0000
  C   C1236     1.0  0.01127  0.85179  0.44384  1.0000
  H   H978      1.0  0.42562  0.87614  0.21211  1.0000
  C   C1237     1.0  0.14666  0.98624  0.45389  1.0000
  C   C1238     1.0  0.25364  0.98010  0.34439  1.0000
  H   H979      1.0  0.30424  0.96614  0.04140  1.0000
  C   C1239     1.0  0.43135  0.75359  0.15649  1.0000
  C   C1240     1.0  0.05094  0.86982  0.43259  1.0000
  C   C1241     1.0  0.20718  0.95671  0.27856  1.0000
  S   S168      1.0  0.37761  0.88346  0.98844  1.0000
  H   H980      1.0  0.25558  0.97002  0.26221  1.0000
  C   C1242     1.0  0.47913  0.76237  0.17151  1.0000
  C   C1243     1.0  0.23062  0.91755  0.35149  1.0000
  S   S169      1.0  0.39156  0.74432  0.22527  1.0000
  H   H981      1.0  0.13815  0.95330  0.47258  1.0000
  C   C1244     1.0  0.09007  0.80380  0.41903  1.0000
  C   C1245     1.0  0.23174  0.74870  0.24539  1.0000
  C   C1246     1.0  0.30980  0.97744  0.09906  1.0000
  C   C1247     1.0  0.44556  0.74603  0.17559  1.0000
  H   H982      1.0  0.25006  0.74252  0.24280  1.0000
  C   C1248     1.0  0.05683  0.85756  0.44679  1.0000
  C   C1249     1.0  0.02420  0.83656  0.32076  1.0000
  C   C1250     1.0  0.45566  0.81329  0.17853  1.0000
  C   C1251     1.0  0.30644  0.93903  0.27087  1.0000
  C   C1252     1.0  0.25632  0.76730  0.32450  1.0000
  C   C1253     1.0  0.01125  0.76482  0.34983  1.0000
  H   H983      1.0  0.49341  0.85654  0.19728  1.0000
  H   H984      1.0  0.19959  0.90541  0.30386  1.0000
  C   C1254     1.0  0.49347  0.79943  0.26011  1.0000
  H   H985      1.0  0.06612  0.87695  0.42878  1.0000
  P   P42       1.0  0.04486  0.83279  0.47156  1.0000
  H   H986      1.0  0.41920  0.82967  0.23282  1.0000
  S   S170      1.0  0.14342  0.85371  0.45775  1.0000
  H   H987      1.0  0.10995  0.79508  0.45228  1.0000
  Fe  Fe84      1.0  0.11772  0.97790  0.35242  1.0000
  C   C1255     1.0  0.34753  0.96849  0.00182  1.0000
  C   C1256     1.0  0.29327  0.96092  0.24993  1.0000
  H   H988      1.0  0.04301  0.82996  0.41726  1.0000
  C   C1257     1.0  0.16670  0.97031  0.26745  1.0000
  C   C1258     1.0  0.01861  0.76396  0.37508  1.0000
  C   C1259     1.0  0.16917  0.96633  0.24293  1.0000
  C   C1260     1.0  0.21759  0.90859  0.33853  1.0000
  H   H989      1.0  0.06310  0.84033  0.36981  1.0000
  H   H990      1.0  0.32974  0.94940  0.24100  1.0000
  H   H991      1.0  0.43953  0.77199  0.26413  1.0000
  C   C1261     1.0  0.47350  0.87552  0.16117  1.0000
  C   C1262     1.0  0.26416  0.95056  0.28278  1.0000
  C   C1263     1.0  0.47705  0.92782  0.05975  1.0000
  H   H992      1.0  0.29573  0.97932  0.98994  1.0000
  H   H993      1.0  0.02514  0.76415  0.31096  1.0000
  H   H994      1.0  0.30222  0.97573  0.11843  1.0000
  H   H995      1.0  0.13938  0.96914  0.43408  1.0000
  C   C1264     1.0  0.04539  0.84071  0.35890  1.0000
  C   C1265     1.0  0.46571  0.87654  0.98182  1.0000
  C   C1266     1.0  0.33067  0.98130  0.04920  1.0000
  H   H996      1.0  0.03726  0.96723  0.41699  1.0000
  C   C1267     1.0  0.04567  0.76141  0.38059  1.0000
  H   H997      1.0  0.48331  0.97274  0.10387  1.0000
  C   C1268     1.0  0.48606  0.81154  0.13356  1.0000
  H   H998      1.0  0.43589  0.98550  0.04240  1.0000
  H   H999      1.0  0.28672  0.96253  0.08537  1.0000
  H   H1000     1.0  0.22595  0.94591  0.24818  1.0000
  C   C1269     1.0  0.32874  0.98686  0.09281  1.0000
  C   C1270     1.0  0.21376  0.96201  0.34500  1.0000
  C   C1271     1.0  0.01377  0.75842  0.47435  1.0000
  C   C1272     1.0  0.00417  0.78683  0.28248  1.0000
  H   H1001     1.0  0.21369  0.89870  0.34760  1.0000
  H   H1002     1.0  0.45163  0.89299  0.17521  1.0000
  H   H1003     1.0  0.26668  0.78328  0.34593  1.0000
  C   C1273     1.0  0.07110  0.81359  0.40929  1.0000
  H   H1004     1.0  0.10124  0.79731  0.40645  1.0000
  H   H1005     1.0  0.02824  0.78338  0.41570  1.0000
  C   C1274     1.0  0.43515  0.83577  0.22517  1.0000
  C   C1275     1.0  0.49090  0.89756  0.16173  1.0000
  S   S171      1.0  0.36060  0.97556  0.22522  1.0000
  H   H1006     1.0  0.44390  0.81371  0.19602  1.0000
  H   H1007     1.0  0.46283  0.82707  0.25280  1.0000
  C   C1276     1.0  0.31574  0.75518  0.26543  1.0000
  H   H1008     1.0  0.00903  0.77969  0.26861  1.0000
  C   C1277     1.0  0.25225  0.77600  0.34365  1.0000
  C   C1278     1.0  0.02418  0.77631  0.43197  1.0000
  H   H1009     1.0  0.32078  0.93042  0.27312  1.0000
  C   C1279     1.0  0.23423  0.97959  0.36402  1.0000
  H   H1010     1.0  0.00593  0.87209  0.36581  1.0000
  C   C1280     1.0  0.31158  0.94974  0.25282  1.0000
  C   C1281     1.0  0.48688  0.92034  0.99586  1.0000
  H   H1011     1.0  0.35283  0.74301  0.26673  1.0000
  H   H1012     1.0  0.45779  0.76021  0.30326  1.0000
  C   C1282     1.0  0.06500  0.76010  0.36110  1.0000
  P   P43       1.0  0.34326  0.98398  0.01690  1.0000
  C   C1283     1.0  0.04964  0.98660  0.42443  1.0000
  H   H1013     1.0  0.29737  0.96931  0.23615  1.0000
  H   H1014     1.0  0.18360  0.96925  0.30375  1.0000
  C   C1284     1.0  0.49148  0.94947  0.14664  1.0000
  H   H1015     1.0  0.36619  0.74323  0.17713  1.0000
  H   H1016     1.0  0.49779  0.81057  0.11613  1.0000
  C   C1285     1.0  0.00530  0.86420  0.43015  1.0000
  H   H1017     1.0  0.46551  0.86880  0.99753  1.0000
  H   H1018     1.0  0.08585  0.75821  0.36537  1.0000
  C   C1286     1.0  0.03693  0.84851  0.45285  1.0000
  H   H1019     1.0  0.04886  0.78578  0.45606  1.0000
  C   C1287     1.0  0.49209  0.96195  0.15657  1.0000
  H   H1020     1.0  0.15062  0.97750  0.27249  1.0000
  S   S172      1.0  0.38759  0.98027  0.16871  1.0000
  C   C1288     1.0  0.48206  0.81686  0.17717  1.0000
  C   C1289     1.0  0.33174  0.74346  0.27196  1.0000
  C   C1290     1.0  0.03070  0.76337  0.33046  1.0000
  H   H1021     1.0  0.16583  0.77077  0.25339  1.0000
  C   C1291     1.0  0.08121  0.81128  0.46086  1.0000
  C   C1292     1.0  0.48705  0.78755  0.22356  1.0000
  H   H1022     1.0  0.49723  0.76610  0.17751  1.0000
  H   H1023     1.0  0.49051  0.81982  0.19398  1.0000
  C   C1293     1.0  0.47814  0.74700  0.23807  1.0000
  C   C1294     1.0  0.49740  0.81613  0.15456  1.0000
  C   C1295     1.0  0.44680  0.88749  0.98138  1.0000
  H   H1024     1.0  0.48934  0.97085  0.05065  1.0000
  H   H1025     1.0  0.07018  0.98295  0.42743  1.0000
  C   C1296     1.0  0.48804  0.74023  0.26038  1.0000
  C   C1297     1.0  0.99960  0.84141  0.33089  1.0000
  C   C1298     1.0  0.49147  0.98169  0.22570  1.0000
  C   C1299     1.0  0.00788  0.76567  0.42993  1.0000
  H   H1026     1.0  0.41246  0.75037  0.15119  1.0000
  H   H1027     1.0  0.47675  0.96986  0.15248  1.0000
  H   H1028     1.0  0.48475  0.94195  0.99176  1.0000
  C   C1300     1.0  0.41995  0.98632  0.09625  1.0000
  H   H1029     1.0  0.48864  0.73973  0.30099  1.0000
  C   C1301     1.0  0.01337  0.89156  0.47133  1.0000
  Fe  Fe85      1.0  0.12738  0.87406  0.47068  1.0000
  Fe  Fe86      1.0  0.08010  0.89479  0.47265  1.0000
  H   H1030     1.0  0.00150  0.75417  0.26596  1.0000
  H   H1031     1.0  0.23437  0.98635  0.37880  1.0000
  Fe  Fe87      1.0  0.39442  0.98707  0.20675  1.0000
  C   C1302     1.0  0.49789  0.93288  0.99254  1.0000
  H   H1032     1.0  0.26881  0.98728  0.34386  1.0000
  S   S173      1.0  0.32291  0.98813  0.17774  1.0000
  C   C1303     1.0  0.35181  0.94448  0.97813  1.0000
  C   C1304     1.0  0.03058  0.76881  0.47605  1.0000
  C   C1305     1.0  0.49794  0.98549  0.01939  1.0000
  C   C1306     1.0  0.49804  0.97248  0.03166  1.0000
  Fe  Fe88      1.0  0.14601  0.93994  0.65921  1.0000
  S   S174      1.0  0.13561  0.92898  0.69687  1.0000
  S   S175      1.0  0.16301  0.93141  0.62305  1.0000
  Fe  Fe89      1.0  0.13358  0.96718  0.68002  1.0000
  S   S176      1.0  0.12150  0.95805  0.71883  1.0000
  Fe  Fe90      1.0  0.15887  0.94413  0.71486  1.0000
  S   S177      1.0  0.19010  0.93826  0.74617  1.0000
  Fe  Fe91      1.0  0.09945  0.94406  0.69715  1.0000
  S   S178      1.0  0.05753  0.93606  0.70453  1.0000
  S   S179      1.0  0.17125  0.95392  0.67689  1.0000
  S   S180      1.0  0.10955  0.95429  0.65873  1.0000
  Fe  Fe92      1.0  0.11555  0.89004  0.51764  1.0000
  S   S181      1.0  0.10114  0.90871  0.49416  1.0000
  S   S182      1.0  0.10990  0.88985  0.56034  1.0000
  H   H1033     1.0  0.16892  0.94898  0.57374  1.0000
  C   C1307     1.0  0.42549  0.91190  0.85029  1.0000
  C   C1308     1.0  0.17892  0.96100  0.79588  1.0000
  C   C1309     1.0  0.04865  0.96327  0.61979  1.0000
  C   C1310     1.0  0.14313  0.96856  0.49816  1.0000
  C   C1311     1.0  0.23249  0.96790  0.67499  1.0000
  Fe  Fe93      1.0  0.35640  0.93513  0.86269  1.0000
  S   S183      1.0  0.36771  0.94040  0.82135  1.0000
  S   S184      1.0  0.35903  0.91323  0.87854  1.0000
  Fe  Fe94      1.0  0.34137  0.96404  0.87173  1.0000
  S   S185      1.0  0.35140  0.97140  0.83158  1.0000
  Fe  Fe95      1.0  0.32927  0.95392  0.82051  1.0000
  S   S186      1.0  0.29801  0.95858  0.78890  1.0000
  Fe  Fe96      1.0  0.38869  0.95729  0.83590  1.0000
  S   S187      1.0  0.42938  0.96633  0.82636  1.0000
  S   S188      1.0  0.31742  0.94752  0.86095  1.0000
  S   S189      1.0  0.37933  0.95107  0.87695  1.0000
  C   C1312     1.0  0.46360  0.95987  0.82616  1.0000
  C   C1313     1.0  0.47137  0.94611  0.82626  1.0000
  C   C1314     1.0  0.48460  0.87552  0.96188  1.0000
  H   H1034     1.0  0.45632  0.93890  0.82680  1.0000
  H   H1035     1.0  0.03963  0.76991  0.49379  1.0000
  C   C1315     1.0  0.36441  0.90607  0.90991  1.0000
  C   C1316     1.0  0.37316  0.89243  0.91304  1.0000
  C   C1317     1.0  0.37743  0.88592  0.93715  1.0000
  H   H1036     1.0  0.07150  0.96929  0.55894  1.0000
  C   C1318     1.0  0.45032  0.94515  0.94797  1.0000
  C   C1319     1.0  0.35972  0.91320  0.93147  1.0000
  H   H1037     1.0  0.37650  0.88678  0.89667  1.0000
  H   H1038     1.0  0.38405  0.87533  0.93907  1.0000
  H   H1039     1.0  0.35231  0.92365  0.92925  1.0000
  C   C1320     1.0  0.31528  0.92667  0.61325  1.0000
  C   C1321     1.0  0.08372  0.93167  0.55301  1.0000
  C   C1322     1.0  0.26520  0.98197  0.86715  1.0000
  C   C1323     1.0  0.46587  0.89664  0.94108  1.0000
  H   H1040     1.0  0.08921  0.98387  0.64889  1.0000
  C   C1324     1.0  0.02454  0.94270  0.69672  1.0000
  C   C1325     1.0  0.44388  0.98604  0.93379  1.0000
  H   H1041     1.0  0.44846  0.88396  0.90199  1.0000
  C   C1326     1.0  0.21363  0.97485  0.62651  1.0000
  H   H1042     1.0  0.03266  0.96364  0.69360  1.0000
  C   C1327     1.0  0.26796  0.95268  0.77740  1.0000
  C   C1328     1.0  0.25817  0.94020  0.78601  1.0000
  C   C1329     1.0  0.23471  0.93598  0.77609  1.0000
  C   C1330     1.0  0.22028  0.94411  0.75746  1.0000
  C   C1331     1.0  0.22999  0.95663  0.74897  1.0000
  C   C1332     1.0  0.25358  0.96080  0.75871  1.0000
  H   H1043     1.0  0.26884  0.93371  0.80015  1.0000
  H   H1044     1.0  0.22766  0.92628  0.78288  1.0000
  H   H1045     1.0  0.21905  0.96318  0.73514  1.0000
  H   H1046     1.0  0.26070  0.97045  0.75168  1.0000
  C   C1333     1.0  0.12410  0.90186  0.57716  1.0000
  C   C1334     1.0  0.14622  0.90855  0.56729  1.0000
  C   C1335     1.0  0.15794  0.91754  0.58162  1.0000
  C   C1336     1.0  0.14723  0.92019  0.60569  1.0000
  C   C1337     1.0  0.12475  0.91372  0.61538  1.0000
  C   C1338     1.0  0.11346  0.90446  0.60128  1.0000
  H   H1047     1.0  0.15470  0.90649  0.54889  1.0000
  H   H1048     1.0  0.17539  0.92245  0.57400  1.0000
  H   H1049     1.0  0.11642  0.91563  0.63394  1.0000
  H   H1050     1.0  0.09643  0.89926  0.60912  1.0000
  C   C1339     1.0  0.01606  0.98076  0.52269  1.0000
  C   C1340     1.0  0.16432  0.93818  0.93578  1.0000
  C   C1341     1.0  0.18855  0.93071  0.93222  1.0000
  C   C1342     1.0  0.20374  0.93288  0.90970  1.0000
  C   C1343     1.0  0.19466  0.94251  0.89045  1.0000
  H   H1051     1.0  0.33872  0.93604  0.58247  1.0000
  P   P44       1.0  0.21440  0.94581  0.86157  1.0000
  C   C1344     1.0  0.23370  0.96019  0.86371  1.0000
  C   C1345     1.0  0.23731  0.93138  0.85672  1.0000
  C   C1346     1.0  0.26116  0.92957  0.86971  1.0000
  C   C1347     1.0  0.27926  0.91856  0.86598  1.0000
  C   C1348     1.0  0.27369  0.90926  0.84926  1.0000
  C   C1349     1.0  0.24989  0.91089  0.83642  1.0000
  C   C1350     1.0  0.23171  0.92188  0.84016  1.0000
  C   C1351     1.0  0.25471  0.96269  0.84604  1.0000
  H   H1052     1.0  0.41680  0.97238  0.92174  1.0000
  H   H1053     1.0  0.37817  0.98315  0.88479  1.0000
  H   H1054     1.0  0.21333  0.96490  0.81525  1.0000
  C   C1352     1.0  0.16871  0.94472  0.52315  1.0000
  C   C1353     1.0  0.19209  0.94880  0.83560  1.0000
  C   C1354     1.0  0.17014  0.94093  0.83504  1.0000
  H   H1055     1.0  0.49382  0.91705  0.86558  1.0000
  C   C1355     1.0  0.48459  0.88546  0.94150  1.0000
  H   H1056     1.0  0.00710  0.89658  0.67729  1.0000
  C   C1356     1.0  0.19637  0.95885  0.81579  1.0000
  H   H1057     1.0  0.34670  0.95720  0.94330  1.0000
  H   H1058     1.0  0.31711  0.98546  0.77601  1.0000
  H   H1059     1.0  0.19563  0.92323  0.94696  1.0000
  H   H1060     1.0  0.22247  0.92700  0.90748  1.0000
  H   H1061     1.0  0.00237  0.98733  0.59750  1.0000
  H   H1062     1.0  0.26586  0.93670  0.88272  1.0000
  H   H1063     1.0  0.29781  0.91730  0.87585  1.0000
  H   H1064     1.0  0.28793  0.90083  0.84621  1.0000
  H   H1065     1.0  0.24567  0.90373  0.82330  1.0000
  H   H1066     1.0  0.21363  0.92300  0.82975  1.0000
  H   H1067     1.0  0.25932  0.95608  0.83118  1.0000
  C   C1357     1.0  0.10906  0.84031  0.51169  1.0000
  C   C1358     1.0  0.19466  0.94830  0.52656  1.0000
  C   C1359     1.0  0.01752  0.95655  0.69289  1.0000
  H   H1068     1.0  0.16665  0.93298  0.84988  1.0000
  C   C1360     1.0  0.46415  0.93421  0.93735  1.0000
  C   C1361     1.0  0.15289  0.94303  0.81495  1.0000
  C   C1362     1.0  0.00936  0.95971  0.50524  1.0000
  C   C1363     1.0  0.01775  0.88086  0.48995  1.0000
  H   H1069     1.0  0.13654  0.95371  0.91963  1.0000
  C   C1364     1.0  0.32378  0.93764  0.59742  1.0000
  C   C1365     1.0  0.23043  0.96318  0.63127  1.0000
  H   H1070     1.0  0.44456  0.92562  0.87104  1.0000
  C   C1366     1.0  0.37274  0.89284  0.95877  1.0000
  C   C1367     1.0  0.31328  0.95069  0.60113  1.0000
  H   H1071     1.0  0.03683  0.87906  0.49841  1.0000
  C   C1368     1.0  0.28559  0.93311  0.70577  1.0000
  H   H1072     1.0  0.09485  0.95615  0.49309  1.0000
  H   H1073     1.0  0.01834  0.91381  0.50292  1.0000
  C   C1369     1.0  0.09223  0.94938  0.50991  1.0000
  H   H1074     1.0  0.41101  0.91984  0.91630  1.0000
  H   H1075     1.0  0.43347  0.98702  0.95190  1.0000
  H   H1076     1.0  0.00719  0.93056  0.76922  1.0000
  H   H1077     1.0  0.43135  0.90562  0.96104  1.0000
  C   C1370     1.0  0.44667  0.89745  0.96105  1.0000
  H   H1078     1.0  0.15267  0.98580  0.51724  1.0000
  H   H1079     1.0  0.11356  0.98114  0.54498  1.0000
  C   C1371     1.0  0.12630  0.97651  0.55965  1.0000
  C   C1372     1.0  0.42255  0.94677  0.94749  1.0000
  C   C1373     1.0  0.43455  0.97771  0.91692  1.0000
  C   C1374     1.0  0.29405  0.95277  0.62049  1.0000
  C   C1375     1.0  0.18687  0.92274  0.51209  1.0000
  H   H1080     1.0  0.32018  0.95922  0.58913  1.0000
  C   C1376     1.0  0.15728  0.95306  0.79539  1.0000
  S   S190      1.0  0.09191  0.87622  0.49768  1.0000
  H   H1081     1.0  0.28672  0.97527  0.83414  1.0000
  H   H1082     1.0  0.14216  0.98046  0.61998  1.0000
  C   C1377     1.0  0.28478  0.94175  0.63592  1.0000
  H   H1083     1.0  0.11951  0.93840  0.56633  1.0000
  H   H1084     1.0  0.19630  0.91662  0.71101  1.0000
  H   H1085     1.0  0.01358  0.94607  0.59603  1.0000
  C   C1378     1.0  0.06629  0.93244  0.53317  1.0000
  H   H1086     1.0  0.13048  0.84038  0.50845  1.0000
  C   C1379     1.0  0.21534  0.97944  0.67026  1.0000
  H   H1087     1.0  0.24086  0.92655  0.62689  1.0000
  C   C1380     1.0  0.28084  0.94476  0.68918  1.0000
  H   H1088     1.0  0.29004  0.92015  0.64505  1.0000
  C   C1381     1.0  0.00451  0.98785  0.50138  1.0000
  C   C1382     1.0  0.36401  0.90657  0.95594  1.0000
  C   C1383     1.0  0.29306  0.95653  0.69319  1.0000
  S   S191      1.0  0.32423  0.97766  0.90095  1.0000
  H   H1089     1.0  0.32516  0.94547  0.74702  1.0000
  H   H1090     1.0  0.32369  0.91657  0.61063  1.0000
  C   C1384     1.0  0.09331  0.83656  0.49288  1.0000
  H   H1091     1.0  0.23524  0.95670  0.61623  1.0000
  C   C1385     1.0  0.07055  0.94131  0.51165  1.0000
  H   H1092     1.0  0.47898  0.98321  0.86797  1.0000
  C   C1386     1.0  0.15764  0.96427  0.59848  1.0000
  H   H1093     1.0  0.00963  0.75153  0.49083  1.0000
  S   S192      1.0  0.15246  0.88624  0.49306  1.0000
  H   H1094     1.0  0.20847  0.98544  0.68555  1.0000
  P   P45       1.0  0.46682  0.90978  0.91519  1.0000
  H   H1095     1.0  0.46094  0.95232  0.95684  1.0000
  C   C1387     1.0  0.14235  0.96476  0.55565  1.0000
  H   H1096     1.0  0.05000  0.92588  0.53421  1.0000
  C   C1388     1.0  0.44736  0.97673  0.89326  1.0000
  C   C1389     1.0  0.44874  0.90521  0.88906  1.0000
  H   H1097     1.0  0.16918  0.95933  0.61385  1.0000
  C   C1390     1.0  0.45010  0.92489  0.92608  1.0000
  H   H1098     1.0  0.47806  0.97969  0.82419  1.0000
  C   C1391     1.0  0.12642  0.98224  0.58270  1.0000
  C   C1392     1.0  0.24040  0.95976  0.65546  1.0000
  C   C1393     1.0  0.01397  0.81112  0.48733  1.0000
  H   H1099     1.0  0.14537  0.92905  0.51160  1.0000
  H   H1100     1.0  0.00939  0.92301  0.69898  1.0000
  C   C1394     1.0  0.21648  0.93902  0.52336  1.0000
  C   C1395     1.0  0.20133  0.91128  0.67266  1.0000
  C   C1396     1.0  0.09719  0.84460  0.53406  1.0000
  C   C1397     1.0  0.06498  0.96226  0.59797  1.0000
  C   C1398     1.0  0.27025  0.97359  0.84764  1.0000
  C   C1399     1.0  0.23821  0.93119  0.66600  1.0000
  H   H1101     1.0  0.05359  0.95715  0.63714  1.0000
  C   C1400     1.0  0.29607  0.92872  0.63262  1.0000
  H   H1102     1.0  0.08274  0.95540  0.59847  1.0000
  H   H1103     1.0  0.20893  0.90889  0.63314  1.0000
  H   H1104     1.0  0.03234  0.84200  0.52218  1.0000
  H   H1105     1.0  0.34403  0.97832  0.96393  1.0000
  H   H1106     1.0  0.27712  0.92378  0.70274  1.0000
  C   C1401     1.0  0.10574  0.93950  0.55110  1.0000
  C   C1402     1.0  0.46917  0.98432  0.88618  1.0000
  C   C1403     1.0  0.44026  0.91520  0.87015  1.0000
  C   C1404     1.0  0.40864  0.93781  0.93546  1.0000
  C   C1405     1.0  0.21415  0.91405  0.64908  1.0000
  C   C1406     1.0  0.30142  0.93341  0.72660  1.0000
  H   H1107     1.0  0.08085  0.92457  0.56948  1.0000
  H   H1108     1.0  0.06029  0.84876  0.55480  1.0000
  C   C1407     1.0  0.14220  0.97614  0.60203  1.0000
  H   H1109     1.0  0.22940  0.91905  0.51347  1.0000
  H   H1110     1.0  0.40692  0.89615  0.83414  1.0000
  H   H1111     1.0  0.41830  0.91971  0.83621  1.0000
  H   H1112     1.0  0.23643  0.94179  0.52623  1.0000
  H   H1113     1.0  0.13641  0.93671  0.81419  1.0000
  C   C1408     1.0  0.34844  0.95685  0.96363  1.0000
  H   H1114     1.0  0.36004  0.91187  0.97265  1.0000
  H   H1115     1.0  0.29021  0.96553  0.68031  1.0000
  C   C1409     1.0  0.05864  0.97021  0.57567  1.0000
  C   C1410     1.0  0.24438  0.97953  0.88492  1.0000
  C   C1411     1.0  0.01848  0.96661  0.52450  1.0000
  H   H1116     1.0  0.44014  0.97022  0.88021  1.0000
  C   C1412     1.0  0.30897  0.95678  0.71401  1.0000
  P   P46       1.0  0.26110  0.94437  0.66178  1.0000
  H   H1117     1.0  0.18653  0.90387  0.67501  1.0000
  H   H1118     1.0  0.02738  0.96086  0.54061  1.0000
  H   H1119     1.0  0.28659  0.96297  0.62345  1.0000
  C   C1413     1.0  0.17043  0.95008  0.89430  1.0000
  H   H1120     1.0  0.23879  0.96510  0.69403  1.0000
  H   H1121     1.0  0.41174  0.95501  0.95628  1.0000
  C   C1414     1.0  0.16500  0.93195  0.51540  1.0000
  C   C1415     1.0  0.48371  0.96904  0.82487  1.0000
  C   C1416     1.0  0.02601  0.97224  0.61933  1.0000
  C   C1417     1.0  0.11048  0.94825  0.52935  1.0000
  C   C1418     1.0  0.14902  0.98202  0.49942  1.0000
  C   C1419     1.0  0.03601  0.97933  0.57505  1.0000
  H   H1122     1.0  0.30443  0.92452  0.73977  1.0000
  C   C1420     1.0  0.15760  0.95851  0.57551  1.0000
  C   C1421     1.0  0.01541  0.82517  0.48547  1.0000
  C   C1422     1.0  0.42229  0.92690  0.92490  1.0000
  H   H1123     1.0  0.03013  0.80468  0.48006  1.0000
  H   H1124     1.0  0.38721  0.93921  0.93439  1.0000
  H   H1125     1.0  0.19797  0.95826  0.53173  1.0000
  C   C1423     1.0  0.06546  0.83682  0.49649  1.0000
  C   C1424     1.0  0.20674  0.91850  0.69287  1.0000
  H   H1126     1.0  0.10938  0.84797  0.54821  1.0000
  C   C1425     1.0  0.22494  0.92849  0.68951  1.0000
  C   C1426     1.0  0.06951  0.84507  0.53772  1.0000
  C   C1427     1.0  0.05370  0.84120  0.51906  1.0000
  C   C1428     1.0  0.23223  0.92411  0.64561  1.0000
  C   C1429     1.0  0.41913  0.89860  0.84909  1.0000
  C   C1430     1.0  0.42780  0.88857  0.86761  1.0000
  P   P47       1.0  0.14090  0.95696  0.52639  1.0000
  C   C1431     1.0  0.44256  0.89184  0.88755  1.0000
  H   H1127     1.0  0.18381  0.91294  0.50590  1.0000
  C   C1432     1.0  0.21256  0.92622  0.51619  1.0000
  H   H1128     1.0  0.48562  0.93287  0.93833  1.0000
  H   H1129     1.0  0.42241  0.87832  0.86689  1.0000
  C   C1433     1.0  0.31314  0.94522  0.73069  1.0000
  H   H1130     1.0  0.22829  0.93427  0.70517  1.0000
  H   H1131     1.0  0.14446  0.95440  0.77937  1.0000
  H   H1132     1.0  0.21280  0.96695  0.89733  1.0000
  C   C1434     1.0  0.15528  0.94788  0.91683  1.0000
  H   H1133     1.0  0.16328  0.95773  0.87988  1.0000
  H   H1134     1.0  0.01109  0.94880  0.50681  1.0000
  H   H1135     1.0  0.31788  0.96594  0.71746  1.0000
  H   H1136     1.0  0.20591  0.97745  0.60787  1.0000
  H   H1137     1.0  0.18269  0.96847  0.78024  1.0000
  H   H1138     1.0  0.15259  0.93648  0.95326  1.0000
  C   C1435     1.0  0.49873  0.94171  0.82442  1.0000
  C   C1436     1.0  0.20595  0.98293  0.64603  1.0000
  C   C1437     1.0  0.22859  0.96871  0.88320  1.0000
  H   H1139     1.0  0.08524  0.81019  0.48080  1.0000
  H   H1140     1.0  0.35253  0.93519  0.96914  1.0000
  C   C1438     1.0  0.00432  0.93372  0.69594  1.0000
  C   C1439     1.0  0.34669  0.96883  0.97541  1.0000
  H   H1141     1.0  0.24084  0.98589  0.90031  1.0000
  H   H1142     1.0  0.00069  0.86427  0.51229  1.0000
  H   H1143     1.0  0.05759  0.94159  0.49588  1.0000
  C   C1440     1.0  0.99970  0.91989  0.50430  1.0000
  H   H1144     1.0  0.01352  0.97307  0.63637  1.0000
  H   H1145     1.0  0.49636  0.96121  0.89953  1.0000
  C   C1441     1.0  0.01971  0.98028  0.59711  1.0000
  H   H1146     1.0  0.49919  0.86698  0.96220  1.0000
  H   H1147     1.0  0.49921  0.88443  0.92609  1.0000
  C   C1442     1.0  0.81944  0.07557  0.42619  1.0000
  C   C1443     1.0  0.57890  0.98957  0.01779  1.0000
  H   H1148     1.0  0.89145  0.11046  0.41522  1.0000
  Fe  Fe97      1.0  0.60766  0.05075  0.00875  1.0000
  S   S193      1.0  0.59787  0.04924  0.05106  1.0000
  H   H1149     1.0  0.54664  0.04435  0.02727  1.0000
  Fe  Fe98      1.0  0.59553  0.99864  0.20793  1.0000
  C   C1444     1.0  0.53250  0.03746  0.03603  1.0000
  S   S194      1.0  0.55187  0.00729  0.21128  1.0000
  Fe  Fe99      1.0  0.65388  0.99691  0.22786  1.0000
  C   C1445     1.0  0.74472  0.00488  0.30380  1.0000
  S   S195      1.0  0.68004  0.00261  0.25988  1.0000
  Fe  Fe100     1.0  0.64341  0.00222  0.17058  1.0000
  S   S196      1.0  0.66206  0.01097  0.13338  1.0000
  S   S197      1.0  0.62888  0.01294  0.20447  1.0000
  H   H1150     1.0  0.60935  0.00717  0.30711  1.0000
  Fe  Fe101     1.0  0.82445  0.99888  0.33782  1.0000
  S   S198      1.0  0.80931  0.00258  0.37743  1.0000
  H   H1151     1.0  0.50480  0.99563  0.14446  1.0000
  H   H1152     1.0  0.77075  0.05735  0.45593  1.0000
  Fe  Fe102     1.0  0.88464  0.99623  0.35428  1.0000
  H   H1153     1.0  0.98080  0.04697  0.44074  1.0000
  Fe  Fe103     1.0  0.84361  0.01588  0.37808  1.0000
  S   S199      1.0  0.84489  0.03583  0.39515  1.0000
  S   S200      1.0  0.85738  0.01347  0.33741  1.0000
  C   C1446     1.0  0.76490  0.99640  0.29340  1.0000
  C   C1447     1.0  0.80985  0.00261  0.23901  1.0000
  C   C1448     1.0  0.85400  0.04570  0.44029  1.0000
  C   C1449     1.0  0.84071  0.03632  0.42838  1.0000
  C   C1450     1.0  0.82284  0.02833  0.44277  1.0000
  C   C1451     1.0  0.64765  0.99961  0.32093  1.0000
  H   H1154     1.0  0.53345  0.06280  0.12743  1.0000
  H   H1155     1.0  0.86757  0.05200  0.42920  1.0000
  H   H1156     1.0  0.81227  0.02114  0.43380  1.0000
  P   P48       1.0  0.85718  0.09138  0.44258  1.0000
  C   C1452     1.0  0.71281  0.99970  0.27264  1.0000
  H   H1157     1.0  0.85920  0.03425  0.16341  1.0000
  S   S201      1.0  0.79823  0.99411  0.30503  1.0000
  C   C1453     1.0  0.67875  0.99946  0.03489  1.0000
  S   S202      1.0  0.87216  0.99955  0.39438  1.0000
  C   C1454     1.0  0.71956  0.00876  0.04573  1.0000
  C   C1455     1.0  0.64410  0.02177  0.11082  1.0000
  C   C1456     1.0  0.61914  0.02796  0.11689  1.0000
  C   C1457     1.0  0.60540  0.03649  0.09845  1.0000
  C   C1458     1.0  0.61631  0.03877  0.07374  1.0000
  C   C1459     1.0  0.64146  0.03275  0.06778  1.0000
  C   C1460     1.0  0.65533  0.02432  0.08629  1.0000
  H   H1158     1.0  0.61047  0.02623  0.13582  1.0000
  H   H1159     1.0  0.58617  0.04130  0.10335  1.0000
  H   H1160     1.0  0.65020  0.03461  0.04893  1.0000
  H   H1161     1.0  0.67481  0.01973  0.08154  1.0000
  C   C1461     1.0  0.52024  0.00005  0.21338  1.0000
  H   H1162     1.0  0.88239  0.13018  0.38436  1.0000
  C   C1462     1.0  0.71345  0.02038  0.02970  1.0000
  H   H1163     1.0  0.55136  0.03524  0.07163  1.0000
  H   H1164     1.0  0.79880  0.12369  0.39000  1.0000
  C   C1463     1.0  0.84929  0.04722  0.46625  1.0000
  H   H1165     1.0  0.80745  0.10405  0.42089  1.0000
  C   C1464     1.0  0.55548  0.03384  0.16121  1.0000
  H   H1166     1.0  0.77241  0.00415  0.18683  1.0000
  C   C1465     1.0  0.53242  0.02887  0.12438  1.0000
  H   H1167     1.0  0.82543  0.01992  0.18442  1.0000
  H   H1168     1.0  0.55880  0.05484  0.16561  1.0000
  H   H1169     1.0  0.94450  0.01423  0.32348  1.0000
  C   C1466     1.0  0.71901  0.00650  0.29351  1.0000
  H   H1170     1.0  0.85921  0.05466  0.47512  1.0000
  C   C1467     1.0  0.78553  0.00012  0.20169  1.0000
  H   H1171     1.0  0.73757  0.00788  0.05631  1.0000
  H   H1172     1.0  0.56620  0.03037  0.17809  1.0000
  C   C1468     1.0  0.62347  0.99847  0.30974  1.0000
  H   H1173     1.0  0.68494  0.03120  0.16367  1.0000
  C   C1469     1.0  0.52731  0.04277  0.11801  1.0000
  C   C1470     1.0  0.55120  0.04763  0.15424  1.0000
  C   C1471     1.0  0.56970  0.00173  0.02731  1.0000
  C   C1472     1.0  0.61336  0.00389  0.04304  1.0000
  H   H1174     1.0  0.90340  0.03160  0.37956  1.0000
  H   H1175     1.0  0.90803  0.09429  0.46709  1.0000
  H   H1176     1.0  0.65544  0.01201  0.00727  1.0000
  C   C1473     1.0  0.54353  0.00211  0.10399  1.0000
  H   H1177     1.0  0.70782  0.98918  0.06010  1.0000
  H   H1178     1.0  0.73071  0.03195  0.25079  1.0000
  C   C1474     1.0  0.94564  0.03255  0.37142  1.0000
  C   C1475     1.0  0.97427  0.02688  0.40707  1.0000
  C   C1476     1.0  0.73283  0.99101  0.26260  1.0000
  P   P49       1.0  0.52040  0.01676  0.10524  1.0000
  C   C1477     1.0  0.99334  0.04173  0.45504  1.0000
  H   H1179     1.0  0.93176  0.05655  0.45133  1.0000
  C   C1478     1.0  0.51178  0.03376  0.02217  1.0000
  C   C1479     1.0  0.96012  0.99560  0.34261  1.0000
  H   H1180     1.0  0.50977  0.03784  0.00277  1.0000
  H   H1181     1.0  0.95353  0.02104  0.44247  1.0000
  C   C1480     1.0  0.95151  0.02457  0.42275  1.0000
  C   C1481     1.0  0.79158  0.03683  0.29021  1.0000
  H   H1182     1.0  0.57832  0.01272  0.10978  1.0000
  C   C1482     1.0  0.54587  0.02448  0.14655  1.0000
  C   C1483     1.0  0.69037  0.02144  0.01584  1.0000
  H   H1183     1.0  0.50954  0.99764  0.98551  1.0000
  C   C1484     1.0  0.53498  0.03236  0.06126  1.0000
  H   H1184     1.0  0.68966  0.01420  0.20055  1.0000
  C   C1485     1.0  0.97111  0.03077  0.38122  1.0000
  C   C1486     1.0  0.96234  0.00821  0.32906  1.0000
  H   H1185     1.0  0.90845  0.02463  0.42489  1.0000
  C   C1487     1.0  0.51665  0.02357  0.07284  1.0000
  H   H1186     1.0  0.62629  0.00937  0.05335  1.0000
  C   C1488     1.0  0.53694  0.05210  0.13275  1.0000
  C   C1489     1.0  0.82891  0.08115  0.44706  1.0000
  C   C1490     1.0  0.92549  0.06315  0.41218  1.0000
  H   H1187     1.0  0.70386  0.01323  0.30163  1.0000
  H   H1188     1.0  0.94147  0.05648  0.40512  1.0000
  C   C1491     1.0  0.82042  0.98928  0.23890  1.0000
  H   H1189     1.0  0.51602  0.04646  0.10164  1.0000
  C   C1492     1.0  0.92606  0.02643  0.41289  1.0000
  H   H1190     1.0  0.83613  0.13681  0.37157  1.0000
  H   H1191     1.0  0.58028  0.01830  0.04733  1.0000
  H   H1192     1.0  0.94340  0.03530  0.35139  1.0000
  C   C1493     1.0  0.81754  0.03015  0.46855  1.0000
  S   S203      1.0  0.64662  0.05388  0.98728  1.0000
  H   H1193     1.0  0.65229  0.00920  0.32693  1.0000
  C   C1494     1.0  0.82457  0.03048  0.18769  1.0000
  C   C1495     1.0  0.74799  0.03336  0.26130  1.0000
  H   H1194     1.0  0.89431  0.07103  0.46742  1.0000
  H   H1195     1.0  0.98812  0.03219  0.36835  1.0000
  P   P50       1.0  0.77982  0.02568  0.21950  1.0000
  C   C1496     1.0  0.76569  0.03912  0.30022  1.0000
  C   C1497     1.0  0.74952  0.02792  0.20207  1.0000
  C   C1498     1.0  0.72882  0.01943  0.20871  1.0000
  C   C1499     1.0  0.70558  0.02072  0.19508  1.0000
  C   C1500     1.0  0.70289  0.03037  0.17442  1.0000
  C   C1501     1.0  0.72341  0.03885  0.16756  1.0000
  C   C1502     1.0  0.74665  0.03767  0.18132  1.0000
  H   H1196     1.0  0.68495  0.98986  0.33183  1.0000
  H   H1197     1.0  0.66536  0.99357  0.08796  1.0000
  C   C1503     1.0  0.79571  0.03293  0.26568  1.0000
  C   C1504     1.0  0.77397  0.03096  0.25110  1.0000
  H   H1198     1.0  0.80847  0.03793  0.30159  1.0000
  C   C1505     1.0  0.80462  0.03602  0.20375  1.0000
  C   C1506     1.0  0.80397  0.04979  0.20740  1.0000
  C   C1507     1.0  0.82316  0.05787  0.19533  1.0000
  C   C1508     1.0  0.84307  0.05227  0.17952  1.0000
  C   C1509     1.0  0.79219  0.00816  0.22050  1.0000
  H   H1199     1.0  0.88165  0.01704  0.47247  1.0000
  H   H1200     1.0  0.65166  0.98964  0.98239  1.0000
  H   H1201     1.0  0.92248  0.99881  0.44355  1.0000
  C   C1510     1.0  0.86523  0.09890  0.47071  1.0000
  H   H1202     1.0  0.54904  0.01383  0.15260  1.0000
  S   S204      1.0  0.59715  0.03405  0.98653  1.0000
  H   H1203     1.0  0.73061  0.01181  0.22449  1.0000
  H   H1204     1.0  0.72127  0.04629  0.15144  1.0000
  H   H1205     1.0  0.76228  0.04429  0.17551  1.0000
  C   C1511     1.0  0.92314  0.03039  0.38723  1.0000
  C   C1512     1.0  0.58699  0.00886  0.03996  1.0000
  C   C1513     1.0  0.74393  0.03752  0.28568  1.0000
  H   H1206     1.0  0.91386  0.07137  0.37512  1.0000
  C   C1514     1.0  0.53474  0.98980  0.09811  1.0000
  H   H1207     1.0  0.78860  0.05428  0.21955  1.0000
  H   H1208     1.0  0.82262  0.06847  0.19830  1.0000
  H   H1209     1.0  0.85800  0.05852  0.17025  1.0000
  H   H1210     1.0  0.54925  0.00566  0.02496  1.0000
  C   C1515     1.0  0.81715  0.07801  0.47117  1.0000
  C   C1516     1.0  0.91998  0.06314  0.43817  1.0000
  C   C1517     1.0  0.67308  0.01103  0.01840  1.0000
  H   H1211     1.0  0.74898  0.01033  0.31962  1.0000
  C   C1518     1.0  0.88952  0.08033  0.40443  1.0000
  C   C1519     1.0  0.88437  0.08062  0.43059  1.0000
  C   C1520     1.0  0.89905  0.07156  0.44729  1.0000
  C   C1521     1.0  0.84374  0.03859  0.17567  1.0000
  H   H1212     1.0  0.76253  0.04198  0.31935  1.0000
  C   C1522     1.0  0.85024  0.10558  0.41976  1.0000
  C   C1523     1.0  0.87119  0.11319  0.40960  1.0000
  C   C1524     1.0  0.86611  0.12438  0.39219  1.0000
  C   C1525     1.0  0.84006  0.12812  0.38502  1.0000
  C   C1526     1.0  0.81904  0.12071  0.39537  1.0000
  C   C1527     1.0  0.82405  0.10951  0.41279  1.0000
  H   H1213     1.0  0.72667  0.02852  0.02784  1.0000
  C   C1528     1.0  0.91005  0.07163  0.39530  1.0000
  C   C1529     1.0  0.79832  0.06715  0.42933  1.0000
  H   H1214     1.0  0.72384  0.03913  0.29352  1.0000
  H   H1215     1.0  0.68586  0.03028  0.00295  1.0000
  H   H1216     1.0  0.87752  0.08665  0.39103  1.0000
  C   C1530     1.0  0.57087  0.00321  0.10646  1.0000
  H   H1217     1.0  0.82892  0.07736  0.40760  1.0000
  H   H1218     1.0  0.81531  0.00839  0.25390  1.0000
  H   H1219     1.0  0.79192  0.06239  0.41336  1.0000
  H   H1220     1.0  0.81595  0.03136  0.25819  1.0000
  C   C1531     1.0  0.79574  0.06977  0.47415  1.0000
  C   C1532     1.0  0.98776  0.01276  0.32165  1.0000
  H   H1221     1.0  0.90058  0.03919  0.47069  1.0000
  C   C1533     1.0  0.62296  0.99196  0.03283  1.0000
  H   H1222     1.0  0.60993  0.99295  0.10727  1.0000
  H   H1223     1.0  0.97738  0.99993  0.40916  1.0000
  C   C1534     1.0  0.75844  0.98933  0.27297  1.0000
  S   S205      1.0  0.60900  0.98908  0.17238  1.0000
  S   S206      1.0  0.92878  0.98854  0.35015  1.0000
  C   C1535     1.0  0.78642  0.06428  0.45330  1.0000
  C   C1536     1.0  0.58894  0.99201  0.10467  1.0000
  S   S207      1.0  0.58481  0.06686  0.98418  1.0000
  C   C1537     1.0  0.70248  0.99824  0.04806  1.0000
  C   C1538     1.0  0.99645  0.04775  0.47733  1.0000
  H   H1224     1.0  0.98918  0.02233  0.31049  1.0000
  H   H1225     1.0  0.51393  0.98896  0.09497  1.0000
  C   C1539     1.0  0.99743  0.99637  0.41415  1.0000
  C   C1540     1.0  0.66631  0.98853  0.32352  1.0000
  H   H1226     1.0  0.95142  0.05907  0.61852  1.0000
  C   C1541     1.0  0.84626  0.00594  0.68367  1.0000
  Fe  Fe104     1.0  0.63408  0.03824  0.96314  1.0000
  C   C1542     1.0  0.93321  0.06652  0.70658  1.0000
  S   S208      1.0  0.65928  0.02002  0.95186  1.0000
  Fe  Fe105     1.0  0.62294  0.06883  0.96078  1.0000
  S   S209      1.0  0.63717  0.08963  0.94773  1.0000
  S   S210      1.0  0.61404  0.05339  0.93500  1.0000
  Fe  Fe106     1.0  0.90405  0.06440  0.53307  1.0000
  S   S211      1.0  0.86208  0.07383  0.53224  1.0000
  S   S212      1.0  0.93376  0.07167  0.50324  1.0000
  Fe  Fe107     1.0  0.89126  0.04349  0.57576  1.0000
  S   S213      1.0  0.84849  0.05104  0.57814  1.0000
  S   S214      1.0  0.90812  0.02607  0.60128  1.0000
  Fe  Fe108     1.0  0.85107  0.05223  0.53550  1.0000
  Fe  Fe109     1.0  0.86411  0.07184  0.57489  1.0000
  S   S215      1.0  0.84892  0.08537  0.60582  1.0000
  S   S216      1.0  0.89289  0.04315  0.53385  1.0000
  S   S217      1.0  0.90713  0.06393  0.57500  1.0000
  Fe  Fe110     1.0  0.85407  0.18554  0.68258  1.0000
  S   S218      1.0  0.86113  0.17746  0.72261  1.0000
  S   S219      1.0  0.84162  0.20774  0.67321  1.0000
  Fe  Fe111     1.0  0.85863  0.15709  0.66396  1.0000
  S   S220      1.0  0.86504  0.14730  0.70331  1.0000
  S   S221      1.0  0.86249  0.14648  0.62735  1.0000
  Fe  Fe112     1.0  0.83216  0.16215  0.71600  1.0000
  S   S222      1.0  0.80140  0.15771  0.74833  1.0000
  Fe  Fe113     1.0  0.89331  0.16363  0.70611  1.0000
  S   S223      1.0  0.93260  0.15849  0.72595  1.0000
  S   S224      1.0  0.82367  0.17081  0.67642  1.0000
  S   S225      1.0  0.88837  0.17284  0.66633  1.0000
  Fe  Fe114     1.0  0.63583  0.17540  0.84059  1.0000
  S   S226      1.0  0.62272  0.18370  0.80251  1.0000
  S   S227      1.0  0.64775  0.18888  0.86947  1.0000
  Fe  Fe115     1.0  0.62780  0.14617  0.83056  1.0000
  S   S228      1.0  0.61403  0.15290  0.79123  1.0000
  S   S229      1.0  0.62686  0.12338  0.84023  1.0000
  Fe  Fe116     1.0  0.64834  0.16633  0.78832  1.0000
  S   S230      1.0  0.67474  0.16864  0.75233  1.0000
  Fe  Fe117     1.0  0.58981  0.16945  0.80932  1.0000
  S   S231      1.0  0.54725  0.17845  0.80373  1.0000
  S   S232      1.0  0.66350  0.15872  0.82633  1.0000
  S   S233      1.0  0.60169  0.16208  0.84865  1.0000
  C   C1543     1.0  0.76653  0.16218  0.74867  1.0000
  C   C1544     1.0  0.75218  0.16412  0.72656  1.0000
  C   C1545     1.0  0.72417  0.16641  0.72799  1.0000
  C   C1546     1.0  0.71017  0.16671  0.75149  1.0000
  C   C1547     1.0  0.72462  0.16524  0.77356  1.0000
  C   C1548     1.0  0.75262  0.16299  0.77209  1.0000
  H   H1227     1.0  0.76258  0.16351  0.70838  1.0000
  H   H1228     1.0  0.71323  0.16765  0.71079  1.0000
  H   H1229     1.0  0.71421  0.16548  0.79177  1.0000
  H   H1230     1.0  0.76361  0.16156  0.78920  1.0000
  C   C1549     1.0  0.85323  0.10238  0.61137  1.0000
  C   C1550     1.0  0.84553  0.10675  0.63522  1.0000
  C   C1551     1.0  0.84838  0.12014  0.64054  1.0000
  C   C1552     1.0  0.85875  0.12940  0.62191  1.0000
  C   C1553     1.0  0.86641  0.12503  0.59804  1.0000
  C   C1554     1.0  0.86367  0.11162  0.59278  1.0000
  H   H1231     1.0  0.83704  0.09977  0.64964  1.0000
  H   H1232     1.0  0.84219  0.12337  0.65890  1.0000
  H   H1233     1.0  0.87434  0.13212  0.58348  1.0000
  H   H1234     1.0  0.86925  0.10846  0.57428  1.0000
  C   C1555     1.0  0.63221  0.09911  0.91814  1.0000
  C   C1556     1.0  0.63887  0.11262  0.91506  1.0000
  C   C1557     1.0  0.63660  0.12032  0.89154  1.0000
  C   C1558     1.0  0.62790  0.11452  0.87074  1.0000
  C   C1559     1.0  0.62079  0.10107  0.87390  1.0000
  C   C1560     1.0  0.62274  0.09342  0.89751  1.0000
  H   H1235     1.0  0.64623  0.11710  0.93090  1.0000
  H   H1236     1.0  0.64219  0.13063  0.88938  1.0000
  H   H1237     1.0  0.61380  0.09654  0.85799  1.0000
  H   H1238     1.0  0.61728  0.08310  0.89970  1.0000
  C   C1561     1.0  0.57455  0.22781  0.82033  1.0000
  C   C1562     1.0  0.85007  0.00100  0.59271  1.0000
  C   C1563     1.0  0.86639  0.01190  0.58905  1.0000
  C   C1564     1.0  0.88859  0.01211  0.60384  1.0000
  C   C1565     1.0  0.89503  0.00120  0.62146  1.0000
  H   H1239     1.0  0.56437  0.04566  0.80768  1.0000
  C   C1566     1.0  0.81574  0.00696  0.64956  1.0000
  H   H1240     1.0  0.86148  0.02022  0.57513  1.0000
  H   H1241     1.0  0.91270  0.00116  0.63217  1.0000
  C   C1567     1.0  0.67464  0.23673  0.73801  1.0000
  C   C1568     1.0  0.62634  0.00177  0.88490  1.0000
  C   C1569     1.0  0.61215  0.01254  0.89569  1.0000
  C   C1570     1.0  0.62182  0.01791  0.91664  1.0000
  C   C1571     1.0  0.64616  0.01281  0.92652  1.0000
  C   C1572     1.0  0.66035  0.00199  0.91580  1.0000
  H   H1242     1.0  0.92387  0.11557  0.62531  1.0000
  H   H1243     1.0  0.59351  0.01668  0.88792  1.0000
  H   H1244     1.0  0.61040  0.02602  0.92508  1.0000
  C   C1573     1.0  0.82624  0.00033  0.67157  1.0000
  C   C1574     1.0  0.55970  0.15936  0.91338  1.0000
  C   C1575     1.0  0.96767  0.15983  0.72629  1.0000
  H   H1245     1.0  0.91810  0.22609  0.70930  1.0000
  C   C1576     1.0  0.53134  0.10958  0.82059  1.0000
  C   C1577     1.0  0.50975  0.10227  0.94030  1.0000
  C   C1578     1.0  0.51773  0.17024  0.80036  1.0000
  C   C1579     1.0  0.51823  0.15659  0.79631  1.0000
  C   C1580     1.0  0.97407  0.09776  0.57539  1.0000
  P   P51       1.0  0.51857  0.13161  0.88153  1.0000
  H   H1246     1.0  0.96491  0.18429  0.62206  1.0000
  H   H1247     1.0  0.53709  0.15073  0.79530  1.0000
  C   C1581     1.0  0.98011  0.15470  0.74848  1.0000
  C   C1582     1.0  0.85097  0.11169  0.50631  1.0000
  Fe  Fe118     1.0  0.57786  0.05024  0.96020  1.0000
  C   C1583     1.0  0.96377  0.07627  0.51397  1.0000
  C   C1584     1.0  0.52133  0.11441  0.84328  1.0000
  H   H1248     1.0  0.55736  0.07474  0.86304  1.0000
  C   C1585     1.0  0.97186  0.13340  0.64745  1.0000
  H   H1249     1.0  0.88186  0.11574  0.53071  1.0000
  C   C1586     1.0  0.64199  0.21525  0.84519  1.0000
  C   C1587     1.0  0.64996  0.20664  0.86643  1.0000
  C   C1588     1.0  0.66064  0.21219  0.88658  1.0000
  C   C1589     1.0  0.66363  0.22604  0.88575  1.0000
  H   H1250     1.0  0.63404  0.21106  0.82933  1.0000
  H   H1251     1.0  0.66688  0.20570  0.90302  1.0000
  H   H1252     1.0  0.67214  0.23004  0.90155  1.0000
  H   H1253     1.0  0.89750  0.12578  0.65999  1.0000
  C   C1590     1.0  0.84984  0.23415  0.67870  1.0000
  C   C1591     1.0  0.85974  0.22065  0.68326  1.0000
  C   C1592     1.0  0.88404  0.21779  0.69501  1.0000
  C   C1593     1.0  0.89893  0.22839  0.70097  1.0000
  H   H1254     1.0  0.83092  0.23644  0.66984  1.0000
  H   H1255     1.0  0.89174  0.20743  0.69882  1.0000
  H   H1256     1.0  0.98415  0.99999  0.67338  1.0000
  C   C1594     1.0  0.98035  0.21710  0.67936  1.0000
  C   C1595     1.0  0.52941  0.00280  0.80838  1.0000
  C   C1596     1.0  0.57766  0.99241  0.94175  1.0000
  H   H1257     1.0  0.96830  0.15039  0.76432  1.0000
  C   C1597     1.0  0.96953  0.05343  0.62459  1.0000
  C   C1598     1.0  0.95622  0.13952  0.66628  1.0000
  C   C1599     1.0  0.92981  0.13650  0.67113  1.0000
  H   H1258     1.0  0.54054  0.09013  0.96040  1.0000
  H   H1259     1.0  0.83520  0.11665  0.51737  1.0000
  C   C1600     1.0  0.73000  0.20349  0.72921  1.0000
  C   C1601     1.0  0.53967  0.18975  0.72583  1.0000
  C   C1602     1.0  0.52961  0.19910  0.74243  1.0000
  H   H1260     1.0  0.80279  0.02438  0.47919  1.0000
  H   H1261     1.0  0.59585  0.99016  0.95195  1.0000
  C   C1603     1.0  0.90114  0.01773  0.47995  1.0000
  H   H1262     1.0  0.53519  0.00219  0.78860  1.0000
  C   C1604     1.0  0.75098  0.19971  0.71260  1.0000
  C   C1605     1.0  0.53209  0.12547  0.85243  1.0000
  C   C1606     1.0  0.50378  0.21712  0.85021  1.0000
  H   H1263     1.0  0.83262  0.00096  0.58159  1.0000
  H   H1264     1.0  0.97410  0.16954  0.68869  1.0000
  C   C1607     1.0  0.98505  0.09124  0.59734  1.0000
  C   C1608     1.0  0.91533  0.00628  0.49130  1.0000
  H   H1265     1.0  0.91818  0.14125  0.68587  1.0000
  H   H1266     1.0  0.54214  0.22799  0.70567  1.0000
  H   H1267     1.0  0.81915  0.99068  0.67891  1.0000
  C   C1609     1.0  0.55403  0.13114  0.83937  1.0000
  C   C1610     1.0  0.55261  0.21454  0.79272  1.0000
  H   H1268     1.0  0.63902  0.23596  0.82802  1.0000
  C   C1611     1.0  0.94650  0.09891  0.57295  1.0000
  H   H1269     1.0  0.98001  0.18823  0.76628  1.0000
  H   H1270     1.0  0.66125  0.00253  0.82102  1.0000
  H   H1271     1.0  0.67535  0.20067  0.70288  1.0000
  C   C1612     1.0  0.97298  0.20379  0.67932  1.0000
  H   H1272     1.0  0.55138  0.13877  0.92285  1.0000
  C   C1613     1.0  0.93498  0.21165  0.65431  1.0000
  C   C1614     1.0  0.78107  0.20244  0.77812  1.0000
  C   C1615     1.0  0.79578  0.19611  0.75914  1.0000
  C   C1616     1.0  0.80808  0.20385  0.73931  1.0000
  C   C1617     1.0  0.80630  0.21788  0.73874  1.0000
  C   C1618     1.0  0.79250  0.22435  0.75828  1.0000
  C   C1619     1.0  0.77944  0.21650  0.77777  1.0000
  C   C1620     1.0  0.55694  0.10309  0.92992  1.0000
  H   H1273     1.0  0.90852  0.09430  0.59059  1.0000
  H   H1274     1.0  0.80085  0.00237  0.63976  1.0000
  H   H1275     1.0  0.89967  0.99771  0.68284  1.0000
  S   S234      1.0  0.61451  0.99611  0.85744  1.0000
  P   P52       1.0  0.98234  0.07671  0.64512  1.0000
  C   C1621     1.0  0.91827  0.12776  0.65657  1.0000
  H   H1276     1.0  0.73750  0.22231  0.66229  1.0000
  C   C1622     1.0  0.51060  0.03140  0.89158  1.0000
  C   C1623     1.0  0.94205  0.99746  0.67791  1.0000
  H   H1277     1.0  0.77099  0.19641  0.79312  1.0000
  H   H1278     1.0  0.79735  0.18522  0.75953  1.0000
  H   H1279     1.0  0.81883  0.19899  0.72414  1.0000
  H   H1280     1.0  0.81580  0.22364  0.72298  1.0000
  H   H1281     1.0  0.76792  0.22107  0.79272  1.0000
  C   C1624     1.0  0.97574  0.08717  0.50084  1.0000
  H   H1282     1.0  0.81683  0.01157  0.52813  1.0000
  C   C1625     1.0  0.61445  0.19295  0.72725  1.0000
  C   C1626     1.0  0.96475  0.02415  0.56106  1.0000
  H   H1283     1.0  0.50508  0.10964  0.85372  1.0000
  C   C1627     1.0  0.52507  0.11815  0.90611  1.0000
  C   C1628     1.0  0.51451  0.00339  0.85988  1.0000
  C   C1629     1.0  0.53025  0.21301  0.73550  1.0000
  C   C1630     1.0  0.88703  0.01879  0.76710  1.0000
  C   C1631     1.0  0.86039  0.01937  0.77584  1.0000
  C   C1632     1.0  0.84005  0.02204  0.75867  1.0000
  C   C1633     1.0  0.84631  0.02404  0.73275  1.0000
  C   C1634     1.0  0.87301  0.02323  0.72379  1.0000
  C   C1635     1.0  0.89336  0.02076  0.74117  1.0000
  P   P53       1.0  0.88092  0.02583  0.69028  1.0000
  C   C1636     1.0  0.91355  0.01769  0.68412  1.0000
  C   C1637     1.0  0.85606  0.01825  0.67373  1.0000
  H   H1284     1.0  0.91803  0.10433  0.50551  1.0000
  H   H1285     1.0  0.58117  0.13052  0.80697  1.0000
  H   H1286     1.0  0.78735  0.06700  0.49292  1.0000
  C   C1638     1.0  0.82536  0.01918  0.63951  1.0000
  C   C1639     1.0  0.84551  0.02478  0.65142  1.0000
  C   C1640     1.0  0.93633  0.02509  0.68311  1.0000
  H   H1287     1.0  0.94949  0.03217  0.56382  1.0000
  P   P54       1.0  0.90113  0.99010  0.49474  1.0000
  C   C1641     1.0  0.96168  0.01873  0.67929  1.0000
  C   C1642     1.0  0.96846  0.08610  0.61739  1.0000
  C   C1643     1.0  0.88066  0.04365  0.68032  1.0000
  C   C1644     1.0  0.86753  0.05323  0.69515  1.0000
  C   C1645     1.0  0.86626  0.06693  0.68650  1.0000
  C   C1646     1.0  0.87801  0.07114  0.66305  1.0000
  C   C1647     1.0  0.89108  0.06167  0.64825  1.0000
  C   C1648     1.0  0.89258  0.04800  0.65687  1.0000
  H   H1288     1.0  0.90279  0.01668  0.78040  1.0000
  H   H1289     1.0  0.86552  0.00830  0.52347  1.0000
  H   H1290     1.0  0.81940  0.02245  0.76543  1.0000
  H   H1291     1.0  0.83031  0.02612  0.71968  1.0000
  H   H1292     1.0  0.91411  0.02021  0.73480  1.0000
  C   C1649     1.0  0.91669  0.00376  0.68192  1.0000
  H   H1293     1.0  0.96751  0.06027  0.54404  1.0000
  H   H1294     1.0  0.53407  0.22643  0.88489  1.0000
  H   H1295     1.0  0.81778  0.02411  0.62198  1.0000
  H   H1296     1.0  0.85285  0.03410  0.64283  1.0000
  H   H1297     1.0  0.93459  0.03576  0.68541  1.0000
  C   C1650     1.0  0.97396  0.04004  0.61896  1.0000
  H   H1298     1.0  0.58013  0.23263  0.88862  1.0000
  C   C1651     1.0  0.98342  0.16546  0.70593  1.0000
  C   C1652     1.0  0.55274  0.11548  0.80738  1.0000
  H   H1299     1.0  0.85782  0.05018  0.71311  1.0000
  H   H1300     1.0  0.85566  0.07429  0.69767  1.0000
  H   H1301     1.0  0.87644  0.08170  0.65600  1.0000
  H   H1302     1.0  0.89919  0.06488  0.62966  1.0000
  H   H1303     1.0  0.90227  0.04077  0.64486  1.0000
  C   C1653     1.0  0.72976  0.13230  0.77032  1.0000
  C   C1654     1.0  0.70233  0.13235  0.76736  1.0000
  C   C1655     1.0  0.68509  0.13083  0.78862  1.0000
  C   C1656     1.0  0.69527  0.12924  0.81282  1.0000
  C   C1657     1.0  0.72278  0.12910  0.81601  1.0000
  C   C1658     1.0  0.73994  0.13094  0.79454  1.0000
  P   P55       1.0  0.73507  0.12878  0.84746  1.0000
  C   C1659     1.0  0.72080  0.11610  0.86942  1.0000
  C   C1660     1.0  0.77056  0.12463  0.84747  1.0000
  C   C1661     1.0  0.78168  0.11385  0.83440  1.0000
  C   C1662     1.0  0.80918  0.11061  0.83408  1.0000
  C   C1663     1.0  0.82570  0.11795  0.84718  1.0000
  C   C1664     1.0  0.81468  0.12843  0.86087  1.0000
  C   C1665     1.0  0.78718  0.13170  0.86120  1.0000
  C   C1666     1.0  0.72470  0.11618  0.89539  1.0000
  C   C1667     1.0  0.71365  0.10652  0.91274  1.0000
  C   C1668     1.0  0.69899  0.09661  0.90427  1.0000
  C   C1669     1.0  0.69544  0.09631  0.87842  1.0000
  C   C1670     1.0  0.70650  0.10594  0.86102  1.0000
  C   C1671     1.0  0.72668  0.14546  0.85714  1.0000
  C   C1672     1.0  0.74053  0.15635  0.84604  1.0000
  C   C1673     1.0  0.73351  0.16943  0.85251  1.0000
  C   C1674     1.0  0.71246  0.17173  0.86998  1.0000
  C   C1675     1.0  0.69831  0.16098  0.88083  1.0000
  C   C1676     1.0  0.70523  0.14789  0.87434  1.0000
  H   H1304     1.0  0.74303  0.13409  0.75387  1.0000
  H   H1305     1.0  0.69438  0.13413  0.74864  1.0000
  H   H1306     1.0  0.66374  0.13130  0.78642  1.0000
  H   H1307     1.0  0.68158  0.12854  0.82913  1.0000
  H   H1308     1.0  0.76105  0.13186  0.79627  1.0000
  H   H1309     1.0  0.76910  0.10806  0.82421  1.0000
  H   H1310     1.0  0.81773  0.10247  0.82353  1.0000
  H   H1311     1.0  0.84704  0.11552  0.84673  1.0000
  H   H1312     1.0  0.82748  0.13406  0.87114  1.0000
  H   H1313     1.0  0.77904  0.13974  0.87218  1.0000
  H   H1314     1.0  0.73598  0.12382  0.90225  1.0000
  H   H1315     1.0  0.71610  0.10679  0.93283  1.0000
  H   H1316     1.0  0.68998  0.08934  0.91784  1.0000
  H   H1317     1.0  0.68368  0.08876  0.87192  1.0000
  H   H1318     1.0  0.70366  0.10545  0.84115  1.0000
  H   H1319     1.0  0.75665  0.15471  0.83224  1.0000
  H   H1320     1.0  0.74413  0.17780  0.84370  1.0000
  H   H1321     1.0  0.70660  0.18188  0.87473  1.0000
  H   H1322     1.0  0.68138  0.16291  0.89367  1.0000
  H   H1323     1.0  0.69325  0.13982  0.88219  1.0000
  C   C1677     1.0  0.69344  0.03626  0.90390  1.0000
  C   C1678     1.0  0.68975  0.04720  0.91855  1.0000
  C   C1679     1.0  0.67542  0.05898  0.90924  1.0000
  C   C1680     1.0  0.66462  0.05979  0.88534  1.0000
  C   C1681     1.0  0.66810  0.04880  0.87055  1.0000
  C   C1682     1.0  0.68255  0.03699  0.88006  1.0000
  P   P56       1.0  0.65316  0.05005  0.84011  1.0000
  C   C1683     1.0  0.61774  0.04837  0.84363  1.0000
  C   C1684     1.0  0.66022  0.06652  0.82532  1.0000
  C   C1685     1.0  0.63958  0.07658  0.82055  1.0000
  C   C1686     1.0  0.64547  0.08962  0.81108  1.0000
  C   C1687     1.0  0.67191  0.09271  0.80626  1.0000
  C   C1688     1.0  0.69258  0.08284  0.81130  1.0000
  C   C1689     1.0  0.68679  0.06985  0.82115  1.0000
  C   C1690     1.0  0.60293  0.04796  0.82203  1.0000
  C   C1691     1.0  0.57560  0.04622  0.82440  1.0000
  C   C1692     1.0  0.56292  0.04490  0.84835  1.0000
  C   C1693     1.0  0.57758  0.04526  0.86996  1.0000
  C   C1694     1.0  0.60495  0.04687  0.86760  1.0000
  C   C1695     1.0  0.66589  0.03643  0.82179  1.0000
  C   C1696     1.0  0.65825  0.02333  0.82910  1.0000
  C   C1697     1.0  0.66722  0.01261  0.81510  1.0000
  C   C1698     1.0  0.68367  0.01488  0.79348  1.0000
  C   C1699     1.0  0.69100  0.02792  0.78575  1.0000
  C   C1700     1.0  0.68205  0.03869  0.79975  1.0000
  H   H1324     1.0  0.70384  0.02698  0.91154  1.0000
  H   H1325     1.0  0.69732  0.04636  0.93743  1.0000
  H   H1326     1.0  0.67186  0.06731  0.92093  1.0000
  H   H1327     1.0  0.65309  0.06890  0.87864  1.0000
  H   H1328     1.0  0.68524  0.02824  0.86948  1.0000
  H   H1329     1.0  0.61896  0.07455  0.82474  1.0000
  H   H1330     1.0  0.62957  0.09747  0.80799  1.0000
  H   H1331     1.0  0.67634  0.10284  0.79903  1.0000
  H   H1332     1.0  0.71310  0.08533  0.80794  1.0000
  H   H1333     1.0  0.70302  0.06241  0.82578  1.0000
  H   H1334     1.0  0.61265  0.04877  0.80338  1.0000
  C   C1701     1.0  0.87840  0.99047  0.62560  1.0000
  C   C1702     1.0  0.53864  0.00734  0.93182  1.0000
  H   H1335     1.0  0.56799  0.04405  0.88867  1.0000
  H   H1336     1.0  0.61612  0.04658  0.88451  1.0000
  H   H1337     1.0  0.64531  0.02137  0.84570  1.0000
  C   C1703     1.0  0.53869  0.23676  0.87981  1.0000
  C   C1704     1.0  0.65577  0.23475  0.86486  1.0000
  H   H1338     1.0  0.70350  0.02966  0.76879  1.0000
  H   H1339     1.0  0.68755  0.04868  0.79305  1.0000
  H   H1340     1.0  0.59906  0.18626  0.72467  1.0000
  C   C1705     1.0  0.75399  0.20665  0.68874  1.0000
  C   C1706     1.0  0.87726  0.11118  0.51387  1.0000
  H   H1341     1.0  0.96185  0.05607  0.68300  1.0000
  C   C1707     1.0  0.63309  0.20882  0.75205  1.0000
  C   C1708     1.0  0.69190  0.21412  0.77503  1.0000
  C   C1709     1.0  0.70053  0.22373  0.78994  1.0000
  C   C1710     1.0  0.70648  0.22011  0.81522  1.0000
  C   C1711     1.0  0.70402  0.20689  0.82575  1.0000
  C   C1712     1.0  0.69554  0.19726  0.81104  1.0000
  C   C1713     1.0  0.68954  0.20084  0.78578  1.0000
  C   C1714     1.0  0.95130  0.02017  0.49892  1.0000
  C   C1715     1.0  0.50169  0.04494  0.89234  1.0000
  H   H1342     1.0  0.71223  0.22766  0.82690  1.0000
  H   H1343     1.0  0.70782  0.20422  0.84554  1.0000
  H   H1344     1.0  0.69296  0.18708  0.81937  1.0000
  H   H1345     1.0  0.68288  0.19325  0.77472  1.0000
  H   H1346     1.0  0.76489  0.19127  0.71813  1.0000
  H   H1347     1.0  0.72801  0.19777  0.74743  1.0000
  C   C1716     1.0  0.92051  0.07896  0.71165  1.0000
  C   C1717     1.0  0.52238  0.08091  0.88495  1.0000
  C   C1718     1.0  0.50417  0.11240  0.92086  1.0000
  H   H1348     1.0  0.84758  0.23222  0.74595  1.0000
  C   C1719     1.0  0.53853  0.22615  0.78195  1.0000
  H   H1349     1.0  0.55715  0.00104  0.86553  1.0000
  C   C1720     1.0  0.53595  0.07697  0.86308  1.0000
  C   C1721     1.0  0.53226  0.99917  0.91313  1.0000
  H   H1350     1.0  0.53077  0.06760  0.97270  1.0000
  C   C1722     1.0  0.54152  0.00183  0.85210  1.0000
  H   H1351     1.0  0.54182  0.04344  0.85007  1.0000
  H   H1352     1.0  0.52053  0.22218  0.84131  1.0000
  H   H1353     1.0  0.53249  0.07281  0.82446  1.0000
  H   H1354     1.0  0.58120  0.20626  0.81998  1.0000
  C   C1723     1.0  0.94073  0.08746  0.61483  1.0000
  C   C1724     1.0  0.97673  0.06876  0.53399  1.0000
  H   H1355     1.0  0.69985  0.22896  0.69110  1.0000
  H   H1356     1.0  0.91681  0.20964  0.64555  1.0000
  C   C1725     1.0  0.93327  0.12196  0.63713  1.0000
  H   H1357     1.0  0.94397  0.04148  0.48893  1.0000
  H   H1358     1.0  0.97132  0.11991  0.61768  1.0000
  H   H1359     1.0  0.93685  0.00873  0.56313  1.0000
  S   S235      1.0  0.82235  0.04231  0.51247  1.0000
  H   H1360     1.0  0.98596  0.05739  0.48030  1.0000
  H   H1361     1.0  0.51864  0.15810  0.85378  1.0000
  H   H1362     1.0  0.53884  0.17901  0.86132  1.0000
  C   C1726     1.0  0.86521  0.99270  0.49763  1.0000
  H   H1363     1.0  0.97243  0.20620  0.73176  1.0000
  C   C1727     1.0  0.95011  0.20112  0.66722  1.0000
  H   H1364     1.0  0.53326  0.08155  0.90189  1.0000
  H   H1365     1.0  0.97115  0.23784  0.66476  1.0000
  H   H1366     1.0  0.93806  0.10357  0.55559  1.0000
  P   P57       1.0  0.51583  0.22495  0.75680  1.0000
  H   H1367     1.0  0.95203  0.99886  0.50886  1.0000
  C   C1728     1.0  0.97724  0.00062  0.55633  1.0000
  H   H1368     1.0  0.76269  0.23388  0.71676  1.0000
  C   C1729     1.0  0.64483  0.22935  0.84444  1.0000
  H   H1369     1.0  0.55819  0.18693  0.68920  1.0000
  C   C1730     1.0  0.89763  0.10482  0.49964  1.0000
  H   H1370     1.0  0.56789  0.11718  0.89881  1.0000
  C   C1731     1.0  0.55146  0.11313  0.91032  1.0000
  H   H1371     1.0  0.56532  0.17994  0.89925  1.0000
  C   C1732     1.0  0.50258  0.00501  0.81580  1.0000
  C   C1733     1.0  0.56418  0.12616  0.81689  1.0000
  H   H1372     1.0  0.97136  0.99046  0.55570  1.0000
  C   C1734     1.0  0.50180  0.20351  0.84709  1.0000
  C   C1735     1.0  0.95219  0.06578  0.68659  1.0000
  C   C1736     1.0  0.57047  0.21534  0.81182  1.0000
  S   S236      1.0  0.54083  0.04519  0.94235  1.0000
  H   H1373     1.0  0.58850  0.22846  0.83502  1.0000
  C   C1737     1.0  0.85573  0.99042  0.61137  1.0000
  C   C1738     1.0  0.96013  0.12457  0.63280  1.0000
  C   C1739     1.0  0.63712  0.19305  0.71113  1.0000
  C   C1740     1.0  0.65596  0.20905  0.73586  1.0000
  C   C1741     1.0  0.65031  0.99636  0.89518  1.0000
  H   H1374     1.0  0.63924  0.18647  0.69599  1.0000
  H   H1375     1.0  0.91693  0.10034  0.70062  1.0000
  C   C1742     1.0  0.85341  0.00218  0.51344  1.0000
  C   C1743     1.0  0.65773  0.20113  0.71526  1.0000
  C   C1744     1.0  0.95765  0.01093  0.56048  1.0000
  H   H1376     1.0  0.56003  0.21143  0.67676  1.0000
  C   C1745     1.0  0.55607  0.17078  0.89627  1.0000
  C   C1746     1.0  0.54846  0.14740  0.90916  1.0000
  C   C1747     1.0  0.92676  0.09068  0.69674  1.0000
  P   P58       1.0  0.68339  0.21874  0.74255  1.0000
  C   C1748     1.0  0.54109  0.17028  0.87494  1.0000
  H   H1377     1.0  0.92737  0.08339  0.62964  1.0000
  H   H1378     1.0  0.52097  0.19540  0.76057  1.0000
  C   C1749     1.0  0.53376  0.14677  0.88752  1.0000
  C   C1750     1.0  0.52993  0.15835  0.87059  1.0000
  H   H1379     1.0  0.77054  0.20373  0.67610  1.0000
  H   H1380     1.0  0.90575  0.07953  0.72708  1.0000
  C   C1751     1.0  0.71432  0.22097  0.69754  1.0000
  C   C1752     1.0  0.53614  0.09776  0.94503  1.0000
  C   C1753     1.0  0.96555  0.22755  0.66561  1.0000
  H   H1381     1.0  0.97058  0.02119  0.50646  1.0000
  C   C1754     1.0  0.55150  0.20800  0.69511  1.0000
  H   H1382     1.0  0.56068  0.11173  0.78989  1.0000
  H   H1383     1.0  0.59470  0.20076  0.76003  1.0000
  H   H1384     1.0  0.56977  0.99977  0.82083  1.0000
  C   C1755     1.0  0.71166  0.21429  0.72193  1.0000
  C   C1756     1.0  0.98278  0.16413  0.62972  1.0000
  H   H1385     1.0  0.63203  0.23542  0.74506  1.0000
  C   C1757     1.0  0.52189  0.07587  0.84141  1.0000
  H   H1386     1.0  0.82497  0.08138  0.48788  1.0000
  H   H1387     1.0  0.96311  0.23833  0.71201  1.0000
  H   H1388     1.0  0.85413  0.00060  0.70071  1.0000
  C   C1758     1.0  0.98840  0.05940  0.63779  1.0000
  C   C1759     1.0  0.51170  0.05195  0.95695  1.0000
  C   C1760     1.0  0.55046  0.19420  0.70209  1.0000
  H   H1389     1.0  0.93075  0.23301  0.64372  1.0000
  C   C1761     1.0  0.73548  0.21718  0.68109  1.0000
  H   H1390     1.0  0.54999  0.20485  0.78633  1.0000
  H   H1391     1.0  0.85551  0.01770  0.79591  1.0000
  H   H1392     1.0  0.95052  0.09909  0.66549  1.0000
  H   H1393     1.0  0.70226  0.23406  0.78233  1.0000
  C   C1762     1.0  0.92987  0.09374  0.59266  1.0000
  H   H1394     1.0  0.67933  0.99812  0.92319  1.0000
  H   H1395     1.0  0.57737  0.09951  0.93363  1.0000
  P   P59       1.0  0.50453  0.00399  0.89291  1.0000
  H   H1396     1.0  0.96414  0.14689  0.67697  1.0000
  C   C1763     1.0  0.95847  0.07751  0.67147  1.0000
  C   C1764     1.0  0.56136  0.00400  0.94594  1.0000
  H   H1397     1.0  0.56684  0.01068  0.95950  1.0000
  H   H1398     1.0  0.52264  0.10126  0.81319  1.0000
  C   C1765     1.0  0.80950  0.99670  0.50283  1.0000
  H   H1399     1.0  0.97914  0.02450  0.67843  1.0000
  C   C1766     1.0  0.82571  0.00409  0.51614  1.0000
  H   H1400     1.0  0.94385  0.19092  0.66825  1.0000
  C   C1767     1.0  0.94570  0.08995  0.67677  1.0000
  H   H1401     1.0  0.96446  0.15958  0.62667  1.0000
  H   H1402     1.0  0.53173  0.02869  0.88928  1.0000
  H   H1403     1.0  0.63173  0.21435  0.76869  1.0000
  C   C1768     1.0  0.54140  0.21739  0.71170  1.0000
  C   C1769     1.0  0.61217  0.20104  0.74736  1.0000
  C   C1770     1.0  0.99150  0.02701  0.55835  1.0000
  C   C1771     1.0  0.94072  0.00755  0.50024  1.0000
  C   C1772     1.0  0.93654  0.03159  0.48871  1.0000
  H   H1404     1.0  0.52661  0.01648  0.93520  1.0000
  C   C1773     1.0  0.96454  0.00492  0.67653  1.0000
  H   H1405     1.0  0.51596  0.05258  0.89122  1.0000
  H   H1406     1.0  0.51714  0.19815  0.83617  1.0000
  H   H1407     1.0  0.57148  0.15973  0.92982  1.0000
  H   H1408     1.0  0.56363  0.13928  0.84647  1.0000
  H   H1409     1.0  0.92823  0.05744  0.71806  1.0000
  C   C1774     1.0  0.51230  0.06307  0.97093  1.0000
  H   H1410     1.0  0.69055  0.00653  0.78264  1.0000
  H   H1411     1.0  0.78803  0.99837  0.50466  1.0000
  H   H1412     1.0  0.98460  0.19545  0.68895  1.0000
  H   H1413     1.0  0.88617  0.99051  0.54926  1.0000
  H   H1414     1.0  0.53899  0.17905  0.73147  1.0000
  C   C1775     1.0  0.94283  0.22483  0.65331  1.0000
  H   H1415     1.0  0.96586  0.09288  0.48520  1.0000
  C   C1776     1.0  0.84500  0.10571  0.48466  1.0000
  C   C1777     1.0  0.54887  0.00135  0.82650  1.0000
  H   H1416     1.0  0.95932  0.03549  0.60886  1.0000
  C   C1778     1.0  0.91179  0.03032  0.47874  1.0000
  C   C1779     1.0  0.99685  0.19290  0.75657  1.0000
  C   C1780     1.0  0.98296  0.17819  0.62694  1.0000
  C   C1781     1.0  0.83077  0.03958  0.48045  1.0000
  H   H1417     1.0  0.98705  0.10155  0.55992  1.0000
  C   C1782     1.0  0.99732  0.03254  0.62615  1.0000
  H   H1418     1.0  0.99707  0.03721  0.55953  1.0000
  C   C1783     1.0  0.99267  0.20295  0.73673  1.0000
  H   H1419     1.0  0.82455  0.10631  0.47894  1.0000
  H   H1420     1.0  0.99749  0.09321  0.68529  1.0000
  H   H1421     1.0  0.99631  0.13353  0.69656  1.0000
  C   C1784     1.0  0.89173  0.09889  0.47794  1.0000
  Fe  Fe119     1.0  0.64862  0.44556  0.20496  1.0000
  S   S237      1.0  0.65543  0.45403  0.16454  1.0000
  S   S238      1.0  0.67864  0.44603  0.23730  1.0000
  Fe  Fe120     1.0  0.59057  0.43843  0.19354  1.0000
  S   S239      1.0  0.59484  0.44622  0.15272  1.0000
  S   S240      1.0  0.55116  0.42900  0.20613  1.0000
  Fe  Fe121     1.0  0.63596  0.43596  0.15297  1.0000
  S   S241      1.0  0.65590  0.42580  0.11928  1.0000
  Fe  Fe122     1.0  0.61366  0.46344  0.16738  1.0000
  S   S242      1.0  0.63118  0.42678  0.19330  1.0000
  S   S243      1.0  0.60731  0.45629  0.20841  1.0000
  P   P60       1.0  0.56089  0.33855  0.05313  1.0000
  C   C1785     1.0  0.55183  0.36625  0.05790  1.0000
  Fe  Fe123     1.0  0.61700  0.38794  0.00067  1.0000
  S   S244      1.0  0.60414  0.39071  0.04192  1.0000
  C   C1786     1.0  0.59848  0.33673  0.01287  1.0000
  H   H1422     1.0  0.65105  0.35545  0.04452  1.0000
  Fe  Fe124     1.0  0.88927  0.45498  0.31403  1.0000
  S   S245      1.0  0.88286  0.46072  0.35364  1.0000
  S   S246      1.0  0.93136  0.44877  0.29840  1.0000
  Fe  Fe125     1.0  0.82683  0.45592  0.30554  1.0000
  S   S247      1.0  0.81759  0.46105  0.34573  1.0000
  S   S248      1.0  0.79648  0.45630  0.27329  1.0000
  Fe  Fe126     1.0  0.85034  0.47535  0.33825  1.0000
  Fe  Fe127     1.0  0.85128  0.44582  0.35751  1.0000
  S   S249      1.0  0.85720  0.42840  0.38802  1.0000
  S   S250      1.0  0.85875  0.47079  0.29797  1.0000
  S   S251      1.0  0.85840  0.43955  0.31798  1.0000
  S   S252      1.0  0.59993  0.37197  0.97985  1.0000
  C   C1787     1.0  0.86792  0.41884  0.46278  1.0000
  C   C1788     1.0  0.87242  0.42159  0.43652  1.0000
  C   C1789     1.0  0.85221  0.42780  0.42124  1.0000
  C   C1790     1.0  0.82740  0.43142  0.43249  1.0000
  C   C1791     1.0  0.82298  0.42889  0.45882  1.0000
  C   C1792     1.0  0.64237  0.34522  0.01230  1.0000
  H   H1423     1.0  0.89147  0.41869  0.42783  1.0000
  H   H1424     1.0  0.81129  0.43566  0.42082  1.0000
  C   C1793     1.0  0.53849  0.40816  0.13109  1.0000
  C   C1794     1.0  0.71158  0.44911  0.24672  1.0000
  C   C1795     1.0  0.73265  0.45207  0.22934  1.0000
  C   C1796     1.0  0.75823  0.45420  0.23779  1.0000
  C   C1797     1.0  0.76348  0.45341  0.26378  1.0000
  C   C1798     1.0  0.74243  0.45047  0.28116  1.0000
  C   C1799     1.0  0.71685  0.44835  0.27270  1.0000
  H   H1425     1.0  0.72934  0.45247  0.20934  1.0000
  H   H1426     1.0  0.77415  0.45640  0.22402  1.0000
  H   H1427     1.0  0.74582  0.44977  0.30117  1.0000
  H   H1428     1.0  0.70097  0.44601  0.28647  1.0000
  C   C1800     1.0  0.64076  0.41664  0.09722  1.0000
  C   C1801     1.0  0.61375  0.41416  0.09929  1.0000
  C   C1802     1.0  0.60291  0.40626  0.08216  1.0000
  C   C1803     1.0  0.61861  0.40116  0.06217  1.0000
  C   C1804     1.0  0.64538  0.40413  0.05943  1.0000
  C   C1805     1.0  0.65640  0.41169  0.07701  1.0000
  H   H1429     1.0  0.60138  0.41812  0.11438  1.0000
  H   H1430     1.0  0.58230  0.40399  0.08453  1.0000
  H   H1431     1.0  0.65778  0.40026  0.04422  1.0000
  H   H1432     1.0  0.67730  0.41358  0.07514  1.0000
  C   C1806     1.0  0.95307  0.43176  0.36472  1.0000
  H   H1433     1.0  0.55471  0.46621  0.02443  1.0000
  H   H1434     1.0  0.62528  0.45167  0.10594  1.0000
  H   H1435     1.0  0.68482  0.44840  0.04511  1.0000
  C   C1807     1.0  0.51792  0.43673  0.20530  1.0000
  H   H1436     1.0  0.59359  0.46041  0.98030  1.0000
  H   H1437     1.0  0.52890  0.45719  0.20385  1.0000
  C   C1808     1.0  0.76893  0.48090  0.45048  1.0000
  C   C1809     1.0  0.59079  0.32104  0.08659  1.0000
  C   C1810     1.0  0.96291  0.45276  0.30888  1.0000
  C   C1811     1.0  0.96541  0.46338  0.32383  1.0000
  H   H1438     1.0  0.65328  0.48061  0.13567  1.0000
  H   H1439     1.0  0.94778  0.46936  0.32960  1.0000
  H   H1440     1.0  0.59112  0.40698  0.16948  1.0000
  C   C1812     1.0  0.51665  0.45776  0.13971  1.0000
  C   C1813     1.0  0.93152  0.43632  0.37984  1.0000
  C   C1814     1.0  0.93507  0.44547  0.39754  1.0000
  C   C1815     1.0  0.96018  0.45043  0.39987  1.0000
  C   C1816     1.0  0.50826  0.44472  0.13949  1.0000
  P   P61       1.0  0.96452  0.46241  0.42281  1.0000
  H   H1441     1.0  0.62815  0.33465  0.98271  1.0000
  C   C1817     1.0  0.94579  0.47834  0.41472  1.0000
  C   C1818     1.0  0.63164  0.45168  0.06573  1.0000
  H   H1442     1.0  0.93587  0.40979  0.40516  1.0000
  C   C1819     1.0  0.51253  0.45072  0.20445  1.0000
  C   C1820     1.0  0.95158  0.46296  0.47475  1.0000
  H   H1443     1.0  0.54973  0.38712  0.98513  1.0000
  C   C1821     1.0  0.74461  0.44667  0.14485  1.0000
  C   C1822     1.0  0.98627  0.44522  0.30144  1.0000
  H   H1444     1.0  0.57291  0.36716  0.05434  1.0000
  C   C1823     1.0  0.59233  0.34161  0.03654  1.0000
  H   H1445     1.0  0.61187  0.47761  0.02277  1.0000
  C   C1824     1.0  0.98178  0.44566  0.38469  1.0000
  C   C1825     1.0  0.70818  0.41905  0.02182  1.0000
  C   C1826     1.0  0.71658  0.46737  0.14613  1.0000
  C   C1827     1.0  0.53596  0.37778  0.06322  1.0000
  C   C1828     1.0  0.73718  0.47837  0.36231  1.0000
  H   H1446     1.0  0.91196  0.43285  0.37758  1.0000
  H   H1447     1.0  0.91810  0.44873  0.40917  1.0000
  C   C1829     1.0  0.77266  0.48112  0.42408  1.0000
  H   H1448     1.0  0.99496  0.43282  0.35556  1.0000
  C   C1830     1.0  0.55895  0.32678  0.12926  1.0000
  H   H1449     1.0  0.95012  0.42497  0.35050  1.0000
  H   H1450     1.0  0.54665  0.32902  0.14583  1.0000
  H   H1451     1.0  0.77410  0.46902  0.17682  1.0000
  C   C1831     1.0  0.54040  0.35389  0.05720  1.0000
  H   H1452     1.0  0.92552  0.47163  0.38343  1.0000
  H   H1453     1.0  0.64996  0.47348  0.22027  1.0000
  C   C1832     1.0  0.75448  0.48697  0.37168  1.0000
  C   C1833     1.0  0.56563  0.44502  0.98595  1.0000
  C   C1834     1.0  0.57813  0.42575  0.01508  1.0000
  H   H1454     1.0  0.95508  0.47352  0.47262  1.0000
  H   H1455     1.0  0.88133  0.44494  0.46297  1.0000
  C   C1835     1.0  0.60605  0.47757  0.06301  1.0000
  C   C1836     1.0  0.65739  0.48142  0.20706  1.0000
  H   H1456     1.0  0.95305  0.43474  0.44306  1.0000
  C   C1837     1.0  0.61529  0.47194  0.04085  1.0000
  C   C1838     1.0  0.57775  0.40370  0.15622  1.0000
  P   P62       1.0  0.63786  0.45117  0.01361  1.0000
  C   C1839     1.0  0.66495  0.43841  0.01758  1.0000
  C   C1840     1.0  0.60803  0.44373  0.00628  1.0000
  C   C1841     1.0  0.60190  0.43139  0.01920  1.0000
  H   H1457     1.0  0.55265  0.42199  0.15562  1.0000
  C   C1842     1.0  0.87995  0.45518  0.46820  1.0000
  C   C1843     1.0  0.96952  0.40791  0.42926  1.0000
  H   H1458     1.0  0.72406  0.46771  0.42411  1.0000
  C   C1844     1.0  0.66678  0.42746  0.00272  1.0000
  C   C1845     1.0  0.68830  0.41782  0.00487  1.0000
  C   C1846     1.0  0.50848  0.37712  0.06754  1.0000
  H   H1459     1.0  0.98102  0.41442  0.41625  1.0000
  C   C1847     1.0  0.72115  0.45434  0.13855  1.0000
  C   C1848     1.0  0.58247  0.39108  0.14690  1.0000
  H   H1460     1.0  0.54180  0.42802  0.99485  1.0000
  H   H1461     1.0  0.67854  0.46424  0.44150  1.0000
  H   H1462     1.0  0.69820  0.47313  0.14128  1.0000
  H   H1463     1.0  0.72758  0.46805  0.33037  1.0000
  C   C1849     1.0  0.88579  0.46575  0.45017  1.0000
  C   C1850     1.0  0.97827  0.43625  0.36748  1.0000
  H   H1464     1.0  0.57425  0.41596  0.02452  1.0000
  H   H1465     1.0  0.75624  0.48530  0.25943  1.0000
  H   H1466     1.0  0.54131  0.41565  0.07445  1.0000
  C   C1851     1.0  0.52342  0.45508  0.04346  1.0000
  H   H1467     1.0  0.61559  0.42608  0.03242  1.0000
  C   C1852     1.0  0.62871  0.45905  0.04213  1.0000
  C   C1853     1.0  0.98007  0.40192  0.45202  1.0000
  H   H1468     1.0  0.65175  0.42641  0.98922  1.0000
  H   H1469     1.0  0.89090  0.46380  0.43082  1.0000
  C   C1854     1.0  0.68395  0.47431  0.43482  1.0000
  C   C1855     1.0  0.79333  0.47283  0.41393  1.0000
  H   H1470     1.0  0.90861  0.39487  0.43409  1.0000
  H   H1471     1.0  0.82706  0.45880  0.42187  1.0000
  H   H1472     1.0  0.53539  0.34028  0.10415  1.0000
  C   C1856     1.0  0.63647  0.35008  0.03584  1.0000
  H   H1473     1.0  0.78183  0.44613  0.16345  1.0000
  H   H1474     1.0  0.54950  0.30979  0.06186  1.0000
  C   C1857     1.0  0.55592  0.41223  0.14826  1.0000
  C   C1858     1.0  0.68408  0.48061  0.19865  1.0000
  C   C1859     1.0  0.54676  0.45415  0.10398  1.0000
  P   P63       1.0  0.50982  0.41904  0.12170  1.0000
  H   H1475     1.0  0.59975  0.38462  0.15272  1.0000
  C   C1860     1.0  0.92848  0.39690  0.43907  1.0000
  C   C1861     1.0  0.61175  0.34808  0.04813  1.0000
  H   H1476     1.0  0.58433  0.33149  0.00350  1.0000
  S   S253      1.0  0.59782  0.48432  0.15280  1.0000
  C   C1862     1.0  0.50838  0.38651  0.99681  1.0000
  H   H1477     1.0  0.61425  0.30754  0.11226  1.0000
  C   C1863     1.0  0.51395  0.31116  0.00885  1.0000
  C   C1864     1.0  0.75918  0.46515  0.16601  1.0000
  H   H1478     1.0  0.72222  0.43105  0.04942  1.0000
  H   H1479     1.0  0.70625  0.45009  0.12813  1.0000
  C   C1865     1.0  0.54021  0.31413  0.04474  1.0000
  C   C1866     1.0  0.50080  0.41596  0.09018  1.0000
  H   H1480     1.0  0.79664  0.47272  0.39373  1.0000
  H   H1481     1.0  0.72470  0.41149  0.02360  1.0000
  C   C1867     1.0  0.92829  0.47986  0.39464  1.0000
  H   H1482     1.0  0.64074  0.44150  0.06721  1.0000
  H   H1483     1.0  0.88949  0.48713  0.44321  1.0000
  H   H1484     1.0  0.56206  0.45768  0.09056  1.0000
  C   C1868     1.0  0.51767  0.47838  0.02645  1.0000
  C   C1869     1.0  0.58113  0.31756  0.13170  1.0000
  H   H1485     1.0  0.99245  0.47481  0.34204  1.0000
  C   C1870     1.0  0.68539  0.43982  0.03403  1.0000
  C   C1871     1.0  0.80667  0.46457  0.45612  1.0000
  C   C1872     1.0  0.54282  0.39531  0.12241  1.0000
  H   H1486     1.0  0.54884  0.43459  0.09087  1.0000
  C   C1873     1.0  0.70678  0.43007  0.03632  1.0000
  H   H1487     1.0  0.52448  0.29537  0.03783  1.0000
  H   H1488     1.0  0.84068  0.48201  0.39215  1.0000
  H   H1489     1.0  0.60782  0.35164  0.06666  1.0000
  C   C1874     1.0  0.81053  0.46478  0.42990  1.0000
  C   C1875     1.0  0.76367  0.45209  0.15848  1.0000
  C   C1876     1.0  0.95029  0.44127  0.45819  1.0000
  C   C1877     1.0  0.74074  0.47481  0.33747  1.0000
  C   C1878     1.0  0.59702  0.31468  0.11037  1.0000
  C   C1879     1.0  0.88491  0.47890  0.45710  1.0000
  C   C1880     1.0  0.53007  0.33300  0.01375  1.0000
  H   H1490     1.0  0.68953  0.40944  0.99320  1.0000
  H   H1491     1.0  0.51244  0.38480  0.01661  1.0000
  C   C1881     1.0  0.55264  0.33317  0.10551  1.0000
  C   C1882     1.0  0.70972  0.47632  0.42496  1.0000
  C   C1883     1.0  0.51893  0.43629  0.12129  1.0000
  C   C1884     1.0  0.93868  0.39106  0.46179  1.0000
  H   H1492     1.0  0.74790  0.43651  0.13922  1.0000
  H   H1493     1.0  0.54263  0.47252  0.12253  1.0000
  C   C1885     1.0  0.73541  0.47284  0.16013  1.0000
  C   C1886     1.0  0.51380  0.41271  0.04637  1.0000
  C   C1887     1.0  0.56004  0.43251  0.99834  1.0000
  C   C1888     1.0  0.94386  0.40533  0.42283  1.0000
  H   H1494     1.0  0.69672  0.47187  0.20519  1.0000
  H   H1495     1.0  0.58603  0.31265  0.15013  1.0000
  C   C1889     1.0  0.66217  0.47441  0.99497  1.0000
  C   C1890     1.0  0.56495  0.38686  0.13006  1.0000
  H   H1496     1.0  0.60331  0.31867  0.07025  1.0000
  C   C1891     1.0  0.84957  0.37378  0.25357  1.0000
  C   C1892     1.0  0.83608  0.36437  0.26951  1.0000
  C   C1893     1.0  0.81668  0.36876  0.28714  1.0000
  C   C1894     1.0  0.81093  0.38255  0.28900  1.0000
  C   C1895     1.0  0.82493  0.39205  0.27353  1.0000
  C   C1896     1.0  0.84386  0.38759  0.25539  1.0000
  P   P64       1.0  0.81646  0.40980  0.27515  1.0000
  C   C1897     1.0  0.78794  0.41387  0.25569  1.0000
  C   C1898     1.0  0.80983  0.41347  0.30755  1.0000
  C   C1899     1.0  0.79288  0.42467  0.31307  1.0000
  C   C1900     1.0  0.78889  0.42808  0.33793  1.0000
  C   C1901     1.0  0.80218  0.42042  0.35746  1.0000
  C   C1902     1.0  0.81955  0.40940  0.35208  1.0000
  C   C1903     1.0  0.82351  0.40596  0.32721  1.0000
  C   C1904     1.0  0.79152  0.41636  0.22935  1.0000
  C   C1905     1.0  0.76947  0.41929  0.21418  1.0000
  C   C1906     1.0  0.74370  0.41949  0.22514  1.0000
  C   C1907     1.0  0.73994  0.41663  0.25123  1.0000
  C   C1908     1.0  0.76193  0.41367  0.26644  1.0000
  C   C1909     1.0  0.84457  0.41946  0.26495  1.0000
  C   C1910     1.0  0.87008  0.41512  0.27341  1.0000
  C   C1911     1.0  0.89150  0.42321  0.26779  1.0000
  C   C1912     1.0  0.88757  0.43573  0.25393  1.0000
  C   C1913     1.0  0.86226  0.44014  0.24551  1.0000
  C   C1914     1.0  0.84084  0.43205  0.25100  1.0000
  H   H1497     1.0  0.86434  0.37038  0.23966  1.0000
  H   H1498     1.0  0.84047  0.35368  0.26804  1.0000
  H   H1499     1.0  0.80596  0.36147  0.29926  1.0000
  H   H1500     1.0  0.79552  0.38581  0.30244  1.0000
  H   H1501     1.0  0.85413  0.39475  0.24257  1.0000
  H   H1502     1.0  0.78316  0.43094  0.29807  1.0000
  H   H1503     1.0  0.77603  0.43686  0.34194  1.0000
  H   H1504     1.0  0.79974  0.42323  0.37668  1.0000
  H   H1505     1.0  0.83060  0.40382  0.36718  1.0000
  H   H1506     1.0  0.83772  0.39768  0.32334  1.0000
  H   H1507     1.0  0.81135  0.41609  0.22054  1.0000
  H   H1508     1.0  0.77228  0.42145  0.19394  1.0000
  H   H1509     1.0  0.72655  0.42203  0.21354  1.0000
  H   H1510     1.0  0.71989  0.41692  0.25965  1.0000
  H   H1511     1.0  0.75849  0.41130  0.28654  1.0000
  H   H1512     1.0  0.87324  0.40571  0.28512  1.0000
  H   H1513     1.0  0.91097  0.42007  0.27505  1.0000
  H   H1514     1.0  0.90400  0.44220  0.25047  1.0000
  H   H1515     1.0  0.85898  0.45005  0.23554  1.0000
  H   H1516     1.0  0.82123  0.43592  0.24520  1.0000
  C   C1915     1.0  0.66516  0.48526  0.43610  1.0000
  H   H1517     1.0  0.54514  0.38723  0.06359  1.0000
  H   H1518     1.0  0.56862  0.37708  0.12284  1.0000
  C   C1916     1.0  0.64987  0.46302  0.98888  1.0000
  C   C1917     1.0  0.62249  0.45735  0.08779  1.0000
  H   H1519     1.0  0.60184  0.47437  0.10356  1.0000
  C   C1918     1.0  0.62347  0.33845  0.00096  1.0000
  C   C1919     1.0  0.56859  0.33038  0.08398  1.0000
  C   C1920     1.0  0.52056  0.41502  0.07074  1.0000
  H   H1520     1.0  0.72105  0.47432  0.37405  1.0000
  C   C1921     1.0  0.53575  0.46252  0.12189  1.0000
  H   H1521     1.0  0.76470  0.47673  0.30286  1.0000
  C   C1922     1.0  0.96440  0.39347  0.46815  1.0000
  C   C1923     1.0  0.53878  0.44105  0.10395  1.0000
  C   C1924     1.0  0.95477  0.45506  0.45413  1.0000
  C   C1925     1.0  0.53389  0.46649  0.03065  1.0000
  H   H1522     1.0  0.52912  0.39181  0.10981  1.0000
  C   C1926     1.0  0.76147  0.47983  0.32182  1.0000
  C   C1927     1.0  0.78578  0.47258  0.46641  1.0000
  H   H1523     1.0  0.52912  0.41154  0.03165  1.0000
  H   H1524     1.0  0.80362  0.43156  0.46734  1.0000
  H   H1525     1.0  0.66152  0.34678  0.00268  1.0000
  S   S254      1.0  0.65774  0.38465  0.98189  1.0000
  C   C1928     1.0  0.99083  0.46644  0.33096  1.0000
  H   H1526     1.0  0.98470  0.43703  0.28976  1.0000
  H   H1527     1.0  0.50883  0.46408  0.15417  1.0000
  C   C1929     1.0  0.58960  0.45065  0.98985  1.0000
  H   H1528     1.0  0.53612  0.44592  0.04696  1.0000
  H   H1529     1.0  0.64518  0.48369  0.44376  1.0000
  C   C1930     1.0  0.51605  0.32469  0.00015  1.0000
  C   C1931     1.0  0.54222  0.32777  0.03619  1.0000
  H   H1530     1.0  0.88354  0.41383  0.47424  1.0000
  H   H1531     1.0  0.53165  0.34347  0.00667  1.0000
  C   C1932     1.0  0.60957  0.47022  0.08643  1.0000
  H   H1532     1.0  0.66397  0.47641  0.01446  1.0000
  C   C1933     1.0  0.51266  0.35339  0.06110  1.0000
  H   H1533     1.0  0.50685  0.32873  0.98282  1.0000
  H   H1534     1.0  0.99609  0.47731  0.38452  1.0000
  C   C1934     1.0  0.84307  0.42243  0.47403  1.0000
  H   H1535     1.0  0.50201  0.39777  0.16365  1.0000
  H   H1536     1.0  0.52605  0.48730  0.01710  1.0000
  C   C1935     1.0  0.52604  0.30588  0.03113  1.0000
  H   H1537     1.0  0.75299  0.48716  0.45874  1.0000
  C   C1936     1.0  0.52953  0.38777  0.97892  1.0000
  C   C1937     1.0  0.99890  0.46650  0.42157  1.0000
  H   H1538     1.0  0.72394  0.48479  0.22671  1.0000
  H   H1539     1.0  0.81986  0.45818  0.46842  1.0000
  H   H1540     1.0  0.50327  0.34401  0.06058  1.0000
  H   H1541     1.0  0.59614  0.48761  0.06216  1.0000
  H   H1542     1.0  0.92674  0.38450  0.47440  1.0000
  H   H1543     1.0  0.50300  0.30476  0.99832  1.0000
  C   C1938     1.0  0.74342  0.48812  0.22114  1.0000
  H   H1544     1.0  0.49998  0.41771  0.20742  1.0000
  Fe  Fe128     1.0  0.61439  0.47533  0.84403  1.0000
  C   C1939     1.0  0.54258  0.47866  0.93691  1.0000
  S   S255      1.0  0.60002  0.45470  0.85508  1.0000
  Fe  Fe129     1.0  0.87538  0.46946  0.69252  1.0000
  S   S256      1.0  0.88076  0.47790  0.72959  1.0000
  S   S257      1.0  0.88198  0.44728  0.68671  1.0000
  Fe  Fe130     1.0  0.89279  0.27655  0.70167  1.0000
  S   S258      1.0  0.89105  0.28510  0.73933  1.0000
  S   S259      1.0  0.90999  0.25490  0.70104  1.0000
  Fe  Fe131     1.0  0.87268  0.30351  0.67478  1.0000
  S   S260      1.0  0.86930  0.31369  0.71067  1.0000
  S   S261      1.0  0.86477  0.31434  0.63602  1.0000
  Fe  Fe132     1.0  0.90941  0.30301  0.71884  1.0000
  S   S262      1.0  0.93977  0.31521  0.73531  1.0000
  Fe  Fe133     1.0  0.85107  0.29478  0.72787  1.0000
  S   S263      1.0  0.81840  0.29373  0.75927  1.0000
  S   S264      1.0  0.91387  0.29397  0.68187  1.0000
  S   S265      1.0  0.85185  0.28514  0.69125  1.0000
  Fe  Fe134     1.0  0.60395  0.28292  0.80633  1.0000
  S   S266      1.0  0.60906  0.28251  0.84801  1.0000
  S   S267      1.0  0.56615  0.27678  0.78977  1.0000
  Fe  Fe135     1.0  0.66310  0.28883  0.79385  1.0000
  S   S268      1.0  0.67192  0.28893  0.83493  1.0000
  S   S269      1.0  0.69164  0.29230  0.75943  1.0000
  Fe  Fe136     1.0  0.64770  0.27054  0.84030  1.0000
  S   S270      1.0  0.66099  0.25208  0.86591  1.0000
  Fe  Fe137     1.0  0.63231  0.30089  0.83879  1.0000
  S   S271      1.0  0.61902  0.32047  0.85630  1.0000
  S   S272      1.0  0.64139  0.26976  0.79922  1.0000
  S   S273      1.0  0.62491  0.30195  0.79705  1.0000
  Fe  Fe138     1.0  0.64271  0.40068  0.95236  1.0000
  H   H1545     1.0  0.93179  0.43926  0.52079  1.0000
  S   S274      1.0  0.66577  0.41835  0.93745  1.0000
  C   C1940     1.0  0.52538  0.32725  0.79927  1.0000
  H   H1546     1.0  0.53711  0.28788  0.90349  1.0000
  S   S275      1.0  0.65924  0.35038  0.94717  1.0000
  S   S276      1.0  0.62780  0.38628  0.92730  1.0000
  Fe  Fe139     1.0  0.90807  0.41266  0.56847  1.0000
  S   S277      1.0  0.86401  0.41139  0.57321  1.0000
  S   S278      1.0  0.92669  0.43085  0.57996  1.0000
  Fe  Fe140     1.0  0.91476  0.38750  0.54118  1.0000
  S   S279      1.0  0.87083  0.38452  0.54283  1.0000
  S   S280      1.0  0.94199  0.37203  0.52338  1.0000
  Fe  Fe141     1.0  0.86623  0.40697  0.53244  1.0000
  Fe  Fe142     1.0  0.87298  0.38917  0.58317  1.0000
  S   S281      1.0  0.85317  0.37847  0.61800  1.0000
  S   S282      1.0  0.91006  0.40941  0.52726  1.0000
  S   S283      1.0  0.91729  0.39091  0.58204  1.0000
  H   H1547     1.0  0.57302  0.30251  0.88671  1.0000
  C   C1941     1.0  0.50916  0.24149  0.74037  1.0000
  C   C1942     1.0  0.63104  0.32850  0.88154  1.0000
  C   C1943     1.0  0.65157  0.32263  0.89668  1.0000
  C   C1944     1.0  0.66006  0.32945  0.91666  1.0000
  C   C1945     1.0  0.64819  0.34218  0.92169  1.0000
  C   C1946     1.0  0.62770  0.34803  0.90649  1.0000
  C   C1947     1.0  0.61917  0.34120  0.88663  1.0000
  H   H1548     1.0  0.66090  0.31287  0.89301  1.0000
  H   H1549     1.0  0.67595  0.32485  0.92826  1.0000
  H   H1550     1.0  0.61838  0.35781  0.91006  1.0000
  H   H1551     1.0  0.60337  0.34581  0.87498  1.0000
  H   H1552     1.0  0.56281  0.36004  0.94602  1.0000
  H   H1553     1.0  0.85699  0.25508  0.68083  1.0000
  C   C1948     1.0  0.86074  0.33215  0.63106  1.0000
  C   C1949     1.0  0.85305  0.34005  0.65085  1.0000
  C   C1950     1.0  0.85003  0.35418  0.64630  1.0000
  C   C1951     1.0  0.85551  0.36061  0.62222  1.0000
  C   C1952     1.0  0.86291  0.35272  0.60231  1.0000
  C   C1953     1.0  0.86524  0.33854  0.60669  1.0000
  H   H1554     1.0  0.84918  0.33526  0.66961  1.0000
  H   H1555     1.0  0.84400  0.36020  0.66161  1.0000
  H   H1556     1.0  0.86695  0.35752  0.58355  1.0000
  H   H1557     1.0  0.87108  0.33252  0.59121  1.0000
  C   C1954     1.0  0.78322  0.29324  0.75863  1.0000
  C   C1955     1.0  0.76967  0.29442  0.73607  1.0000
  C   C1956     1.0  0.74170  0.29397  0.73665  1.0000
  C   C1957     1.0  0.72694  0.29244  0.75976  1.0000
  C   C1958     1.0  0.74049  0.29133  0.78231  1.0000
  C   C1959     1.0  0.76845  0.29170  0.78171  1.0000
  H   H1558     1.0  0.78069  0.29572  0.71820  1.0000
  H   H1559     1.0  0.73142  0.29491  0.71908  1.0000
  H   H1560     1.0  0.72945  0.29020  0.80023  1.0000
  H   H1561     1.0  0.77870  0.29080  0.79929  1.0000
  C   C1960     1.0  0.89276  0.44313  0.65627  1.0000
  C   C1961     1.0  0.89012  0.43007  0.64956  1.0000
  C   C1962     1.0  0.89985  0.42633  0.62584  1.0000
  C   C1963     1.0  0.91269  0.43559  0.60894  1.0000
  C   C1964     1.0  0.91496  0.44869  0.61547  1.0000
  C   C1965     1.0  0.90484  0.45248  0.63901  1.0000
  H   H1562     1.0  0.88102  0.42274  0.66290  1.0000
  H   H1563     1.0  0.89807  0.41617  0.62092  1.0000
  H   H1564     1.0  0.92452  0.45591  0.60228  1.0000
  H   H1565     1.0  0.90703  0.46252  0.64406  1.0000
  C   C1966     1.0  0.61813  0.44501  0.87859  1.0000
  C   C1967     1.0  0.64224  0.44904  0.88638  1.0000
  C   C1968     1.0  0.65660  0.44094  0.90483  1.0000
  C   C1969     1.0  0.64692  0.42881  0.91550  1.0000
  C   C1970     1.0  0.62250  0.42497  0.90815  1.0000
  C   C1971     1.0  0.60816  0.43305  0.88972  1.0000
  H   H1566     1.0  0.65001  0.45826  0.87797  1.0000
  H   H1567     1.0  0.67534  0.44399  0.91067  1.0000
  H   H1568     1.0  0.61471  0.41570  0.91645  1.0000
  H   H1569     1.0  0.58930  0.43001  0.88413  1.0000
  C   C1972     1.0  0.99475  0.37936  0.65224  1.0000
  C   C1973     1.0  0.99443  0.44577  0.58930  1.0000
  H   H1570     1.0  0.98142  0.35047  0.52145  1.0000
  C   C1974     1.0  0.54305  0.32042  0.75092  1.0000
  S   S284      1.0  0.83628  0.41900  0.50688  1.0000
  C   C1975     1.0  0.97504  0.31316  0.73697  1.0000
  H   H1571     1.0  0.55427  0.36113  0.88726  1.0000
  C   C1976     1.0  0.76712  0.24847  0.78087  1.0000
  H   H1572     1.0  0.97428  0.32830  0.76322  1.0000
  H   H1573     1.0  0.52492  0.44760  0.84065  1.0000
  C   C1977     1.0  0.53436  0.28569  0.78855  1.0000
  C   C1978     1.0  0.98908  0.47874  0.62367  1.0000
  C   C1979     1.0  0.88526  0.48341  0.54220  1.0000
  C   C1980     1.0  0.52544  0.26001  0.86615  1.0000
  C   C1981     1.0  0.55189  0.35171  0.94130  1.0000
  H   H1574     1.0  0.89376  0.25952  0.77943  1.0000
  C   C1982     1.0  0.77168  0.45188  0.83678  1.0000
  C   C1983     1.0  0.97578  0.37107  0.53039  1.0000
  C   C1984     1.0  0.71259  0.40298  0.88369  1.0000
  H   H1575     1.0  0.74076  0.25853  0.75296  1.0000
  H   H1576     1.0  0.54164  0.26893  0.71608  1.0000
  C   C1985     1.0  0.56371  0.36730  0.84823  1.0000
  H   H1577     1.0  0.96859  0.39159  0.73063  1.0000
  H   H1578     1.0  0.93755  0.42514  0.48464  1.0000
  C   C1986     1.0  0.94264  0.48597  0.61824  1.0000
  C   C1987     1.0  0.75109  0.44547  0.82687  1.0000
  C   C1988     1.0  0.93070  0.35067  0.61052  1.0000
  P   P65       1.0  0.85800  0.47518  0.53092  1.0000
  C   C1989     1.0  0.90757  0.47572  0.55198  1.0000
  C   C1990     1.0  0.97193  0.33026  0.61697  1.0000
  C   C1991     1.0  0.54711  0.31551  0.86262  1.0000
  C   C1992     1.0  0.72186  0.44969  0.87436  1.0000
  H   H1579     1.0  0.92203  0.48362  0.61759  1.0000
  C   C1993     1.0  0.85119  0.26298  0.78456  1.0000
  C   C1994     1.0  0.95218  0.28530  0.63087  1.0000
  H   H1580     1.0  0.74874  0.47477  0.62667  1.0000
  C   C1995     1.0  0.96254  0.47566  0.62309  1.0000
  H   H1581     1.0  0.57563  0.37532  0.85262  1.0000
  H   H1582     1.0  0.86820  0.44935  0.50660  1.0000
  C   C1996     1.0  0.82629  0.25874  0.77949  1.0000
  S   S285      1.0  0.60847  0.48566  0.80518  1.0000
  C   C1997     1.0  0.96253  0.29765  0.62257  1.0000
  C   C1998     1.0  0.96466  0.27674  0.64979  1.0000
  H   H1583     1.0  0.59176  0.25616  0.87764  1.0000
  H   H1584     1.0  0.53513  0.45679  0.88039  1.0000
  C   C1999     1.0  0.98550  0.30153  0.63317  1.0000
  C   C2000     1.0  0.95268  0.35052  0.59358  1.0000
  C   C2001     1.0  0.56077  0.36481  0.82310  1.0000
  C   C2002     1.0  0.71219  0.47083  0.89327  1.0000
  C   C2003     1.0  0.64632  0.45107  0.80267  1.0000
  C   C2004     1.0  0.97318  0.34034  0.59667  1.0000
  C   C2005     1.0  0.69089  0.45602  0.81232  1.0000
  H   H1585     1.0  0.80857  0.26465  0.78535  1.0000
  H   H1586     1.0  0.62141  0.25986  0.74138  1.0000
  C   C2006     1.0  0.57135  0.25355  0.87620  1.0000
  C   C2007     1.0  0.67135  0.43621  0.83306  1.0000
  C   C2008     1.0  0.94357  0.45725  0.49869  1.0000
  C   C2009     1.0  0.55150  0.32894  0.92957  1.0000
  H   H1587     1.0  0.63122  0.43347  0.82324  1.0000
  H   H1588     1.0  0.95236  0.30423  0.60813  1.0000
  C   C2010     1.0  0.52389  0.41822  0.87895  1.0000
  H   H1589     1.0  0.66598  0.46835  0.78608  1.0000
  C   C2011     1.0  0.74423  0.41372  0.84313  1.0000
  H   H1590     1.0  0.55074  0.24584  0.73601  1.0000
  C   C2012     1.0  0.55843  0.46741  0.92987  1.0000
  C   C2013     1.0  0.76439  0.24968  0.68660  1.0000
  C   C2014     1.0  0.77362  0.26227  0.67842  1.0000
  H   H1591     1.0  0.80893  0.43448  0.55391  1.0000
  C   C2015     1.0  0.79232  0.45552  0.79493  1.0000
  H   H1592     1.0  0.57526  0.30888  0.76979  1.0000
  H   H1593     1.0  0.70021  0.39889  0.89943  1.0000
  C   C2016     1.0  0.66006  0.46915  0.94443  1.0000
  H   H1594     1.0  0.97967  0.36124  0.64035  1.0000
  H   H1595     1.0  0.51426  0.36309  0.94245  1.0000
  C   C2017     1.0  0.87218  0.45779  0.49298  1.0000
  C   C2018     1.0  0.51990  0.32881  0.75381  1.0000
  H   H1596     1.0  0.56053  0.31507  0.81208  1.0000
  C   C2019     1.0  0.99258  0.36940  0.63562  1.0000
  C   C2020     1.0  0.99083  0.35898  0.52740  1.0000
  C   C2021     1.0  0.73253  0.44394  0.89721  1.0000
  C   C2022     1.0  0.73257  0.45153  0.91800  1.0000
  H   H1597     1.0  0.89093  0.23985  0.75482  1.0000
  C   C2023     1.0  0.55160  0.26344  0.86838  1.0000
  H   H1598     1.0  0.50903  0.41941  0.96836  1.0000
  H   H1599     1.0  0.82414  0.45322  0.52474  1.0000
  H   H1600     1.0  0.76005  0.39322  0.84029  1.0000
  H   H1601     1.0  0.75663  0.41765  0.82741  1.0000
  H   H1602     1.0  0.74042  0.44698  0.93568  1.0000
  C   C2024     1.0  0.78497  0.25020  0.72693  1.0000
  C   C2025     1.0  0.64939  0.46027  0.96350  1.0000
  C   C2026     1.0  0.88948  0.24190  0.69556  1.0000
  H   H1603     1.0  0.70694  0.46273  0.80946  1.0000
  H   H1604     1.0  0.94746  0.32249  0.64897  1.0000
  C   C2027     1.0  0.52445  0.38987  0.95318  1.0000
  H   H1605     1.0  0.96310  0.47954  0.70261  1.0000
  C   C2028     1.0  0.67269  0.48327  0.97583  1.0000
  C   C2029     1.0  0.71207  0.46324  0.87249  1.0000
  C   C2030     1.0  0.78832  0.26888  0.69447  1.0000
  C   C2031     1.0  0.79401  0.26290  0.71865  1.0000
  C   C2032     1.0  0.51645  0.43156  0.86970  1.0000
  C   C2033     1.0  0.69297  0.44442  0.82951  1.0000
  H   H1606     1.0  0.96384  0.45166  0.56284  1.0000
  H   H1607     1.0  0.99018  0.46823  0.53753  1.0000
  H   H1608     1.0  0.91132  0.34027  0.64271  1.0000
  C   C2034     1.0  0.72252  0.46498  0.91600  1.0000
  H   H1609     1.0  0.79337  0.48251  0.61294  1.0000
  H   H1610     1.0  0.79544  0.27864  0.68813  1.0000
  H   H1611     1.0  0.80546  0.26821  0.73078  1.0000
  H   H1612     1.0  0.76952  0.26689  0.65961  1.0000
  C   C2035     1.0  0.53262  0.29639  0.88981  1.0000
  C   C2036     1.0  0.74365  0.25571  0.77279  1.0000
  H   H1613     1.0  0.50316  0.36416  0.89639  1.0000
  C   C2037     1.0  0.72737  0.25656  0.81627  1.0000
  C   C2038     1.0  0.85590  0.45939  0.57734  1.0000
  H   H1614     1.0  0.99728  0.27384  0.67496  1.0000
  C   C2039     1.0  0.74622  0.39984  0.85036  1.0000
  C   C2040     1.0  0.84868  0.46084  0.55193  1.0000
  C   C2041     1.0  0.80344  0.31753  0.67817  1.0000
  C   C2042     1.0  0.79398  0.32516  0.65666  1.0000
  C   C2043     1.0  0.78301  0.33831  0.65843  1.0000
  C   C2044     1.0  0.78204  0.34394  0.68162  1.0000
  C   C2045     1.0  0.79290  0.33657  0.70303  1.0000
  C   C2046     1.0  0.80272  0.32316  0.70132  1.0000
  P   P66       1.0  0.79252  0.34369  0.73308  1.0000
  C   C2047     1.0  0.78968  0.36195  0.72864  1.0000
  C   C2048     1.0  0.76499  0.33737  0.75270  1.0000
  C   C2049     1.0  0.76449  0.33796  0.77904  1.0000
  C   C2050     1.0  0.74376  0.33259  0.79431  1.0000
  C   C2051     1.0  0.72328  0.32671  0.78342  1.0000
  C   C2052     1.0  0.72341  0.32628  0.75724  1.0000
  C   C2053     1.0  0.74418  0.33154  0.74191  1.0000
  C   C2054     1.0  0.80414  0.36875  0.70877  1.0000
  C   C2055     1.0  0.80258  0.38282  0.70544  1.0000
  C   C2056     1.0  0.78649  0.39028  0.72193  1.0000
  C   C2057     1.0  0.77185  0.38364  0.74169  1.0000
  C   C2058     1.0  0.77341  0.36953  0.74505  1.0000
  C   C2059     1.0  0.82404  0.33830  0.74733  1.0000
  C   C2060     1.0  0.84724  0.34495  0.73997  1.0000
  C   C2061     1.0  0.87182  0.34018  0.74984  1.0000
  C   C2062     1.0  0.87354  0.32870  0.76699  1.0000
  C   C2063     1.0  0.85065  0.32205  0.77443  1.0000
  C   C2064     1.0  0.82605  0.32680  0.76465  1.0000
  H   H1615     1.0  0.81184  0.30733  0.67671  1.0000
  H   H1616     1.0  0.79550  0.32090  0.63858  1.0000
  H   H1617     1.0  0.77560  0.34418  0.64172  1.0000
  H   H1618     1.0  0.77297  0.35403  0.68263  1.0000
  H   H1619     1.0  0.80999  0.31704  0.71783  1.0000
  H   H1620     1.0  0.78040  0.34232  0.78780  1.0000
  H   H1621     1.0  0.74373  0.33277  0.81466  1.0000
  H   H1622     1.0  0.70749  0.32226  0.79524  1.0000
  H   H1623     1.0  0.70771  0.32149  0.74891  1.0000
  H   H1624     1.0  0.74405  0.33077  0.72176  1.0000
  H   H1625     1.0  0.81662  0.36313  0.69580  1.0000
  H   H1626     1.0  0.81390  0.38791  0.69002  1.0000
  H   H1627     1.0  0.78543  0.40117  0.71939  1.0000
  H   H1628     1.0  0.75930  0.38941  0.75448  1.0000
  H   H1629     1.0  0.76190  0.36463  0.76046  1.0000
  H   H1630     1.0  0.84674  0.35357  0.72616  1.0000
  H   H1631     1.0  0.88977  0.34508  0.74361  1.0000
  H   H1632     1.0  0.89276  0.32470  0.77384  1.0000
  H   H1633     1.0  0.85205  0.31285  0.78704  1.0000
  H   H1634     1.0  0.80887  0.32111  0.76999  1.0000
  C   C2065     1.0  0.51725  0.46344  0.88186  1.0000
  C   C2066     1.0  0.51902  0.24655  0.87079  1.0000
  C   C2067     1.0  0.76648  0.46966  0.63484  1.0000
  C   C2068     1.0  0.76427  0.45889  0.65350  1.0000
  C   C2069     1.0  0.78717  0.45255  0.66475  1.0000
  C   C2070     1.0  0.81232  0.45648  0.65576  1.0000
  P   P67       1.0  0.78457  0.43848  0.68843  1.0000
  C   C2071     1.0  0.75443  0.44055  0.70800  1.0000
  C   C2072     1.0  0.78838  0.42383  0.67072  1.0000
  C   C2073     1.0  0.76630  0.41695  0.66526  1.0000
  C   C2074     1.0  0.76973  0.40595  0.65062  1.0000
  C   C2075     1.0  0.79505  0.40197  0.64083  1.0000
  C   C2076     1.0  0.81693  0.40906  0.64547  1.0000
  C   C2077     1.0  0.81361  0.42001  0.66015  1.0000
  C   C2078     1.0  0.74245  0.42928  0.72012  1.0000
  C   C2079     1.0  0.72042  0.43099  0.73687  1.0000
  C   C2080     1.0  0.71059  0.44393  0.74211  1.0000
  C   C2081     1.0  0.72287  0.45518  0.73076  1.0000
  C   C2082     1.0  0.74475  0.45351  0.71387  1.0000
  C   C2083     1.0  0.81062  0.43837  0.71067  1.0000
  C   C2084     1.0  0.81461  0.45022  0.72176  1.0000
  C   C2085     1.0  0.83450  0.45036  0.73917  1.0000
  C   C2086     1.0  0.85015  0.43860  0.74614  1.0000
  C   C2087     1.0  0.84576  0.42663  0.73582  1.0000
  C   C2088     1.0  0.82595  0.42647  0.71826  1.0000
  H   H1635     1.0  0.94648  0.47621  0.56695  1.0000
  C   C2089     1.0  0.94177  0.43567  0.48201  1.0000
  H   H1636     1.0  0.51259  0.41308  0.89427  1.0000
  H   H1637     1.0  0.74471  0.45561  0.65925  1.0000
  H   H1638     1.0  0.83031  0.45149  0.66359  1.0000
  H   H1639     1.0  0.74640  0.42022  0.67172  1.0000
  H   H1640     1.0  0.75270  0.40062  0.64646  1.0000
  H   H1641     1.0  0.79777  0.39351  0.62932  1.0000
  H   H1642     1.0  0.83647  0.40611  0.63741  1.0000
  H   H1643     1.0  0.83073  0.42557  0.66308  1.0000
  H   H1644     1.0  0.75028  0.41919  0.71698  1.0000
  H   H1645     1.0  0.71108  0.42227  0.74601  1.0000
  H   H1646     1.0  0.69363  0.44526  0.75520  1.0000
  H   H1647     1.0  0.71562  0.46522  0.73529  1.0000
  H   H1648     1.0  0.75437  0.46239  0.70586  1.0000
  H   H1649     1.0  0.80252  0.45943  0.71683  1.0000
  H   H1650     1.0  0.83802  0.45969  0.74693  1.0000
  H   H1651     1.0  0.86595  0.43884  0.75921  1.0000
  H   H1652     1.0  0.85808  0.41754  0.74107  1.0000
  H   H1653     1.0  0.82291  0.41709  0.71061  1.0000
  H   H1654     1.0  0.73187  0.38373  0.87624  1.0000
  H   H1655     1.0  0.53596  0.28751  0.74793  1.0000
  H   H1656     1.0  0.64113  0.45120  0.95845  1.0000
  C   C2090     1.0  0.52525  0.26264  0.72132  1.0000
  C   C2091     1.0  0.53081  0.43753  0.84883  1.0000
  C   C2092     1.0  0.55337  0.43065  0.83862  1.0000
  C   C2093     1.0  0.56124  0.41759  0.84858  1.0000
  C   C2094     1.0  0.54636  0.41134  0.86859  1.0000
  H   H1657     1.0  0.53193  0.48495  0.81829  1.0000
  C   C2095     1.0  0.58551  0.46842  0.92389  1.0000
  H   H1658     1.0  0.93400  0.28253  0.62316  1.0000
  C   C2096     1.0  0.99439  0.42132  0.52644  1.0000
  C   C2097     1.0  0.99284  0.41467  0.50459  1.0000
  H   H1659     1.0  0.56508  0.43561  0.82335  1.0000
  H   H1660     1.0  0.57904  0.41239  0.84102  1.0000
  H   H1661     1.0  0.55251  0.40123  0.87644  1.0000
  S   S286      1.0  0.83407  0.47911  0.68872  1.0000
  H   H1662     1.0  0.91487  0.35858  0.60809  1.0000
  H   H1663     1.0  0.74098  0.43363  0.89908  1.0000
  H   H1664     1.0  0.55134  0.45031  0.97337  1.0000
  C   C2098     1.0  0.84674  0.44886  0.59393  1.0000
  H   H1665     1.0  0.59770  0.45976  0.91813  1.0000
  H   H1666     1.0  0.57039  0.37095  0.80795  1.0000
  H   H1667     1.0  0.70469  0.46803  0.85487  1.0000
  H   H1668     1.0  0.58696  0.33818  0.93814  1.0000
  C   C2099     1.0  0.82181  0.44153  0.56057  1.0000
  H   H1669     1.0  0.95985  0.26065  0.72829  1.0000
  C   C2100     1.0  0.79156  0.47394  0.62688  1.0000
  Fe  Fe143     1.0  0.58967  0.38877  0.95020  1.0000
  C   C2101     1.0  0.72646  0.42234  0.85628  1.0000
  H   H1670     1.0  0.95363  0.35824  0.57784  1.0000
  H   H1671     1.0  0.98280  0.29782  0.71105  1.0000
  H   H1672     1.0  0.69662  0.42322  0.88686  1.0000
  C   C2102     1.0  0.83096  0.45203  0.54390  1.0000
  H   H1673     1.0  0.53944  0.48119  0.87818  1.0000
  H   H1674     1.0  0.82267  0.43179  0.59846  1.0000
  C   C2103     1.0  0.55162  0.35928  0.86778  1.0000
  H   H1675     1.0  0.78274  0.47237  0.48675  1.0000
  P   P68       1.0  0.72301  0.44026  0.84688  1.0000
  C   C2104     1.0  0.90120  0.36796  0.67595  1.0000
  C   C2105     1.0  0.90255  0.35442  0.68555  1.0000
  C   C2106     1.0  0.92693  0.34794  0.69257  1.0000
  C   C2107     1.0  0.94986  0.35509  0.69086  1.0000
  C   C2108     1.0  0.94839  0.36891  0.68265  1.0000
  C   C2109     1.0  0.92405  0.37519  0.67442  1.0000
  P   P69       1.0  0.97740  0.37853  0.68277  1.0000
  C   C2110     1.0  0.96626  0.39547  0.68994  1.0000
  C   C2111     1.0  0.69477  0.24574  0.73284  1.0000
  C   C2112     1.0  0.97933  0.25581  0.72399  1.0000
  H   H1676     1.0  0.95744  0.46529  0.62668  1.0000
  C   C2113     1.0  0.50977  0.34274  0.93300  1.0000
  C   C2114     1.0  0.95908  0.40530  0.67024  1.0000
  C   C2115     1.0  0.94987  0.41832  0.67550  1.0000
  C   C2116     1.0  0.94697  0.42159  0.70047  1.0000
  C   C2117     1.0  0.95388  0.41190  0.72022  1.0000
  C   C2118     1.0  0.96355  0.39889  0.71501  1.0000
  C   C2119     1.0  0.87288  0.24492  0.76228  1.0000
  C   C2120     1.0  0.99874  0.46287  0.55415  1.0000
  H   H1677     1.0  0.99769  0.35389  0.76568  1.0000
  H   H1678     1.0  0.77433  0.48599  0.80256  1.0000
  H   H1679     1.0  0.86825  0.46643  0.58463  1.0000
  H   H1680     1.0  0.55662  0.27375  0.86365  1.0000
  H   H1681     1.0  0.88251  0.37287  0.66949  1.0000
  H   H1682     1.0  0.88490  0.34879  0.68706  1.0000
  H   H1683     1.0  0.92804  0.33732  0.69923  1.0000
  H   H1684     1.0  0.96850  0.34979  0.69636  1.0000
  H   H1685     1.0  0.92250  0.38566  0.66696  1.0000
  C   C2121     1.0  0.75182  0.44378  0.80089  1.0000
  C   C2122     1.0  0.93847  0.44363  0.50231  1.0000
  H   H1686     1.0  0.97641  0.39148  0.54020  1.0000
  H   H1687     1.0  0.96020  0.40290  0.65073  1.0000
  H   H1688     1.0  0.94456  0.42585  0.66019  1.0000
  H   H1689     1.0  0.93908  0.43163  0.70444  1.0000
  H   H1690     1.0  0.95153  0.41447  0.73959  1.0000
  H   H1691     1.0  0.72277  0.47087  0.93208  1.0000
  C   C2123     1.0  0.81445  0.46726  0.63712  1.0000
  C   C2124     1.0  0.75103  0.24970  0.82452  1.0000
  H   H1692     1.0  0.56231  0.31959  0.92525  1.0000
  C   C2125     1.0  0.53379  0.34610  0.83707  1.0000
  H   H1693     1.0  0.67179  0.42746  0.84664  1.0000
  C   C2126     1.0  0.53032  0.24955  0.73263  1.0000
  C   C2127     1.0  0.82962  0.43998  0.58561  1.0000
  H   H1694     1.0  0.95609  0.26737  0.65679  1.0000
  C   C2128     1.0  0.72374  0.25959  0.79043  1.0000
  C   C2129     1.0  0.97799  0.48642  0.70566  1.0000
  H   H1695     1.0  0.70429  0.48128  0.89168  1.0000
  C   C2130     1.0  0.54584  0.35427  0.81749  1.0000
  H   H1696     1.0  0.85236  0.27196  0.79429  1.0000
  C   C2131     1.0  0.53665  0.34874  0.86225  1.0000
  C   C2132     1.0  0.68841  0.25967  0.73027  1.0000
  C   C2133     1.0  0.66199  0.26473  0.73328  1.0000
  H   H1697     1.0  0.65948  0.46713  0.92480  1.0000
  C   C2134     1.0  0.73040  0.39447  0.87062  1.0000
  C   C2135     1.0  0.55279  0.30460  0.88045  1.0000
  C   C2136     1.0  0.87448  0.25604  0.77605  1.0000
  P   P70       1.0  0.51480  0.33230  0.83017  1.0000
  S   S287      1.0  0.89509  0.48592  0.66878  1.0000
  H   H1698     1.0  0.54960  0.31751  0.73239  1.0000
  H   H1699     1.0  0.62795  0.45390  0.79306  1.0000
  C   C2137     1.0  0.66769  0.45927  0.79893  1.0000
  C   C2138     1.0  0.76995  0.24366  0.71079  1.0000
  H   H1700     1.0  0.54401  0.35244  0.79792  1.0000
  H   H1701     1.0  0.94090  0.46343  0.51437  1.0000
  H   H1702     1.0  0.77243  0.44794  0.76483  1.0000
  H   H1703     1.0  0.70395  0.26665  0.72652  1.0000
  H   H1704     1.0  0.65724  0.27554  0.73200  1.0000
  C   C2139     1.0  0.64822  0.43952  0.81962  1.0000
  C   C2140     1.0  0.71060  0.41682  0.87653  1.0000
  H   H1705     1.0  0.51034  0.26780  0.86017  1.0000
  H   H1706     1.0  0.56304  0.32173  0.85555  1.0000
  Fe  Fe144     1.0  0.63926  0.37035  0.95809  1.0000
  H   H1707     1.0  0.83388  0.47069  0.63110  1.0000
  C   C2141     1.0  0.86456  0.24473  0.68496  1.0000
  H   H1708     1.0  0.61743  0.48172  0.91890  1.0000
  S   S288      1.0  0.55080  0.39091  0.93070  1.0000
  C   C2142     1.0  0.98676  0.32138  0.75258  1.0000
  C   C2143     1.0  0.52129  0.31826  0.85371  1.0000
  H   H1709     1.0  0.98275  0.43834  0.60009  1.0000
  H   H1710     1.0  0.80759  0.46221  0.82835  1.0000
  C   C2144     1.0  0.56549  0.33946  0.93665  1.0000
  C   C2145     1.0  0.92887  0.34045  0.63021  1.0000
  C   C2146     1.0  0.94935  0.33030  0.63351  1.0000
  H   H1711     1.0  0.71191  0.25962  0.82990  1.0000
  H   H1712     1.0  0.85291  0.44758  0.61331  1.0000
  H   H1713     1.0  0.52752  0.34257  0.87758  1.0000
  C   C2147     1.0  0.55758  0.31558  0.77202  1.0000
  C   C2148     1.0  0.54888  0.31899  0.79610  1.0000
  C   C2149     1.0  0.98371  0.45336  0.56832  1.0000
  C   C2150     1.0  0.86964  0.47112  0.49967  1.0000
  C   C2151     1.0  0.51125  0.33235  0.77782  1.0000
  C   C2152     1.0  0.64184  0.25588  0.73854  1.0000
  C   C2153     1.0  0.77232  0.44886  0.78497  1.0000
  H   H1714     1.0  0.96842  0.36740  0.73550  1.0000
  H   H1715     1.0  0.77175  0.45330  0.85670  1.0000
  H   H1716     1.0  0.70561  0.26516  0.78406  1.0000
  C   C2154     1.0  0.52379  0.33055  0.92769  1.0000
  C   C2155     1.0  0.82446  0.24741  0.76605  1.0000
  H   H1717     1.0  0.54966  0.45795  0.92840  1.0000
  C   C2156     1.0  0.52362  0.28893  0.76479  1.0000
  C   C2157     1.0  0.79216  0.45691  0.82080  1.0000
  H   H1718     1.0  0.98972  0.34047  0.58302  1.0000
  H   H1719     1.0  0.90790  0.46480  0.55428  1.0000
  H   H1720     1.0  0.80768  0.45990  0.78258  1.0000
  C   C2158     1.0  0.98772  0.28045  0.66019  1.0000
  H   H1721     1.0  0.50851  0.33248  0.73748  1.0000
  H   H1722     1.0  0.73617  0.43886  0.79287  1.0000
  H   H1723     1.0  0.52071  0.42984  0.92575  1.0000
  C   C2159     1.0  0.92965  0.48210  0.55876  1.0000
  H   H1724     1.0  0.51015  0.25666  0.82023  1.0000
  C   C2160     1.0  0.98806  0.38211  0.53791  1.0000
  H   H1725     1.0  0.51366  0.32231  0.92166  1.0000
  H   H1726     1.0  0.56400  0.24916  0.81627  1.0000
  C   C2161     1.0  0.82854  0.48666  0.52985  1.0000
  C   C2162     1.0  0.51988  0.47731  0.88105  1.0000
  H   H1727     1.0  0.53234  0.24786  0.78306  1.0000
  H   H1728     1.0  0.97498  0.40969  0.50217  1.0000
  S   S289      1.0  0.65465  0.48303  0.84753  1.0000
  H   H1729     1.0  0.52596  0.28488  0.82872  1.0000
  C   C2163     1.0  0.98935  0.36556  0.73034  1.0000
  C   C2164     1.0  0.52425  0.35338  0.93935  1.0000
  H   H1730     1.0  0.97225  0.38853  0.48550  1.0000
  C   C2165     1.0  0.77087  0.24569  0.80692  1.0000
  H   H1731     1.0  0.82457  0.48675  0.57058  1.0000
  C   C2166     1.0  0.76120  0.48792  0.78691  1.0000
  C   C2167     1.0  0.64806  0.24195  0.74080  1.0000
  C   C2168     1.0  0.67142  0.48070  0.95057  1.0000
  C   C2169     1.0  0.51792  0.28743  0.81029  1.0000
  C   C2170     1.0  0.56065  0.23945  0.80983  1.0000
  C   C2171     1.0  0.99160  0.30416  0.72334  1.0000
  C   C2172     1.0  0.59670  0.48074  0.92456  1.0000
  P   P71       1.0  0.99896  0.31743  0.62211  1.0000
  S   S290      1.0  0.60329  0.40479  0.97228  1.0000
  H   H1732     1.0  0.75392  0.24749  0.84460  1.0000
  P   P72       1.0  0.79217  0.24251  0.75820  1.0000
  H   H1733     1.0  0.97785  0.42139  0.54030  1.0000
  H   H1734     1.0  0.78907  0.24032  0.81356  1.0000
  H   H1735     1.0  0.52160  0.47761  0.94086  1.0000
  C   C2173     1.0  0.50112  0.30994  0.86321  1.0000
  C   C2174     1.0  0.98126  0.24317  0.71443  1.0000
  C   C2175     1.0  0.50680  0.29905  0.88117  1.0000
  C   C2176     1.0  0.84803  0.24062  0.75724  1.0000
  C   C2177     1.0  0.87700  0.48158  0.48172  1.0000
  H   H1736     1.0  0.98698  0.33135  0.66819  1.0000
  S   S291      1.0  0.80802  0.48743  0.75706  1.0000
  C   C2178     1.0  0.56480  0.24025  0.88226  1.0000
  H   H1737     1.0  0.67940  0.48766  0.93575  1.0000
  H   H1738     1.0  0.75316  0.24455  0.67406  1.0000
  H   H1739     1.0  0.71543  0.24202  0.73126  1.0000
  C   C2179     1.0  0.99822  0.29276  0.65186  1.0000
  C   C2180     1.0  0.54266  0.23864  0.79083  1.0000
  C   C2181     1.0  0.49992  0.42957  0.93190  1.0000
  Fe  Fe145     1.0  0.58565  0.54811  0.05852  1.0000
  S   S292      1.0  0.54675  0.54145  0.07584  1.0000
  Fe  Fe146     1.0  0.64273  0.53718  0.05703  1.0000
  S   S293      1.0  0.65621  0.55465  0.03085  1.0000
  S   S294      1.0  0.66775  0.51888  0.07272  1.0000
  Fe  Fe147     1.0  0.62987  0.56764  0.05595  1.0000
  S   S295      1.0  0.64359  0.58781  0.06578  1.0000
  S   S296      1.0  0.61945  0.55024  0.08353  1.0000
  S   S297      1.0  0.60812  0.53384  0.03405  1.0000
  C   C2182     1.0  0.54516  0.60079  0.05855  1.0000
  C   C2183     1.0  0.71077  0.71325  0.24315  1.0000
  S   S298      1.0  0.95341  0.54087  0.43776  1.0000
  C   C2184     1.0  0.91430  0.49225  0.38835  1.0000
  C   C2185     1.0  0.58670  0.60263  0.03364  1.0000
  S   S299      1.0  0.83949  0.51413  0.45633  1.0000
  Fe  Fe148     1.0  0.86284  0.56259  0.46386  1.0000
  S   S300      1.0  0.83989  0.58228  0.45117  1.0000
  C   C2186     1.0  0.59107  0.56840  0.18748  1.0000
  S   S301      1.0  0.87641  0.54755  0.43625  1.0000
  H   H1740     1.0  0.50083  0.51726  0.98696  1.0000
  Fe  Fe149     1.0  0.59863  0.65391  0.21600  1.0000
  S   S302      1.0  0.60568  0.65420  0.17417  1.0000
  S   S303      1.0  0.55740  0.65848  0.23416  1.0000
  Fe  Fe150     1.0  0.65987  0.65070  0.22536  1.0000
  S   S304      1.0  0.67012  0.65013  0.18368  1.0000
  S   S305      1.0  0.68746  0.65173  0.25845  1.0000
  Fe  Fe151     1.0  0.63885  0.66763  0.17892  1.0000
  S   S306      1.0  0.64211  0.68766  0.15470  1.0000
  Fe  Fe152     1.0  0.63556  0.63671  0.18294  1.0000
  S   S307      1.0  0.62835  0.61626  0.16886  1.0000
  S   S308      1.0  0.62980  0.66842  0.22019  1.0000
  S   S309      1.0  0.62751  0.63614  0.22529  1.0000
  Fe  Fe153     1.0  0.90154  0.66073  0.30314  1.0000
  S   S310      1.0  0.89649  0.65997  0.34521  1.0000
  S   S311      1.0  0.94011  0.66725  0.28299  1.0000
  Fe  Fe154     1.0  0.84289  0.65359  0.29735  1.0000
  S   S312      1.0  0.83452  0.65209  0.33954  1.0000
  S   S313      1.0  0.81473  0.64972  0.26621  1.0000
  Fe  Fe155     1.0  0.85678  0.67109  0.33831  1.0000
  S   S314      1.0  0.84168  0.68929  0.35888  1.0000
  Fe  Fe156     1.0  0.87526  0.64109  0.34254  1.0000
  S   S315      1.0  0.89218  0.62224  0.36573  1.0000
  S   S316      1.0  0.86289  0.67316  0.29615  1.0000
  S   S317      1.0  0.88244  0.64133  0.30036  1.0000
  C   C2187     1.0  0.99470  0.66801  0.28069  1.0000
  H   H1741     1.0  0.59160  0.50663  0.01897  1.0000
  C   C2188     1.0  0.55760  0.63706  0.10257  1.0000
  C   C2189     1.0  0.85730  0.70455  0.35161  1.0000
  C   C2190     1.0  0.88142  0.70481  0.33757  1.0000
  C   C2191     1.0  0.89392  0.71696  0.33243  1.0000
  C   C2192     1.0  0.88190  0.72907  0.34038  1.0000
  C   C2193     1.0  0.85762  0.72888  0.35424  1.0000
  C   C2194     1.0  0.84557  0.71661  0.36017  1.0000
  H   H1742     1.0  0.89051  0.69559  0.33091  1.0000
  H   H1743     1.0  0.91277  0.71703  0.32180  1.0000
  H   H1744     1.0  0.56902  0.61965  0.15955  1.0000
  H   H1745     1.0  0.82713  0.71648  0.37142  1.0000
  C   C2195     1.0  0.64539  0.70262  0.16967  1.0000
  C   C2196     1.0  0.64922  0.70206  0.19560  1.0000
  C   C2197     1.0  0.65145  0.71390  0.20732  1.0000
  C   C2198     1.0  0.64411  0.71532  0.15556  1.0000
  H   H1746     1.0  0.65103  0.69249  0.20669  1.0000
  H   H1747     1.0  0.65436  0.71321  0.22734  1.0000
  H   H1748     1.0  0.51598  0.71609  0.18919  1.0000
  C   C2199     1.0  0.72290  0.65174  0.25978  1.0000
  C   C2200     1.0  0.74004  0.65013  0.23863  1.0000
  C   C2201     1.0  0.76798  0.64963  0.24096  1.0000
  C   C2202     1.0  0.77925  0.65088  0.26435  1.0000
  C   C2203     1.0  0.76210  0.65279  0.28537  1.0000
  C   C2204     1.0  0.73416  0.65321  0.28308  1.0000
  H   H1749     1.0  0.73180  0.64903  0.22056  1.0000
  H   H1750     1.0  0.78098  0.64814  0.22455  1.0000
  H   H1751     1.0  0.77039  0.65360  0.30352  1.0000
  H   H1752     1.0  0.72118  0.65445  0.29960  1.0000
  C   C2205     1.0  0.85436  0.59369  0.42796  1.0000
  C   C2206     1.0  0.88194  0.59328  0.42349  1.0000
  C   C2207     1.0  0.89305  0.60219  0.40452  1.0000
  C   C2208     1.0  0.87683  0.61172  0.38998  1.0000
  C   C2209     1.0  0.84923  0.61229  0.39469  1.0000
  C   C2210     1.0  0.83806  0.60331  0.41368  1.0000
  H   H1753     1.0  0.89469  0.58607  0.43466  1.0000
  H   H1754     1.0  0.91437  0.60171  0.40124  1.0000
  H   H1755     1.0  0.83651  0.61956  0.38361  1.0000
  H   H1756     1.0  0.81670  0.60375  0.41718  1.0000
  C   C2211     1.0  0.84310  0.50961  0.42508  1.0000
  C   C2212     1.0  0.84830  0.51913  0.40479  1.0000
  C   C2213     1.0  0.84983  0.51535  0.37996  1.0000
  C   C2214     1.0  0.84656  0.50199  0.37535  1.0000
  C   C2215     1.0  0.67216  0.49824  0.42755  1.0000
  C   C2216     1.0  0.60555  0.72535  0.27056  1.0000
  H   H1757     1.0  0.85058  0.52945  0.40815  1.0000
  H   H1758     1.0  0.85380  0.52275  0.36432  1.0000
  H   H1759     1.0  0.60542  0.54676  0.13695  1.0000
  H   H1760     1.0  0.78922  0.49839  0.36271  1.0000
  C   C2217     1.0  0.63088  0.60926  0.13913  1.0000
  C   C2218     1.0  0.64508  0.61508  0.11819  1.0000
  C   C2219     1.0  0.64827  0.60850  0.09573  1.0000
  C   C2220     1.0  0.63717  0.59612  0.09385  1.0000
  C   C2221     1.0  0.62213  0.59055  0.11447  1.0000
  C   C2222     1.0  0.61917  0.59705  0.13696  1.0000
  H   H1761     1.0  0.65423  0.62443  0.11950  1.0000
  H   H1762     1.0  0.65988  0.61293  0.07987  1.0000
  H   H1763     1.0  0.61343  0.58105  0.11333  1.0000
  H   H1764     1.0  0.60803  0.59249  0.15290  1.0000
  C   C2223     1.0  0.64829  0.50884  0.09423  1.0000
  C   C2224     1.0  0.65979  0.49720  0.10745  1.0000
  C   C2225     1.0  0.95487  0.61425  0.46232  1.0000
  C   C2226     1.0  0.75772  0.50919  0.40275  1.0000
  C   C2227     1.0  0.60589  0.50472  0.11611  1.0000
  C   C2228     1.0  0.62121  0.51247  0.09841  1.0000
  H   H1765     1.0  0.53908  0.59166  0.99897  1.0000
  C   C2229     1.0  0.97727  0.65183  0.31274  1.0000
  H   H1766     1.0  0.58486  0.50745  0.11886  1.0000
  H   H1767     1.0  0.61191  0.52123  0.08795  1.0000
  H   H1768     1.0  0.94115  0.55144  0.38594  1.0000
  C   C2230     1.0  0.97272  0.66197  0.29308  1.0000
  C   C2231     1.0  0.55138  0.57657  0.10279  1.0000
  H   H1769     1.0  0.96057  0.64709  0.32245  1.0000
  H   H1770     1.0  0.51057  0.65181  0.07465  1.0000
  Fe  Fe157     1.0  0.86080  0.53212  0.46533  1.0000
  H   H1771     1.0  0.96697  0.70868  0.30792  1.0000
  C   C2232     1.0  0.52653  0.65394  0.22381  1.0000
  C   C2233     1.0  0.52492  0.64273  0.21022  1.0000
  C   C2234     1.0  0.82051  0.56166  0.39817  1.0000
  C   C2235     1.0  0.97993  0.61573  0.45001  1.0000
  H   H1772     1.0  0.54293  0.63685  0.20509  1.0000
  H   H1773     1.0  0.96461  0.48917  0.44183  1.0000
  C   C2236     1.0  0.57220  0.60355  0.05655  1.0000
  H   H1774     1.0  0.56929  0.55682  0.11314  1.0000
  C   C2237     1.0  0.94992  0.48969  0.42752  1.0000
  H   H1775     1.0  0.58624  0.59739  0.99533  1.0000
  H   H1776     1.0  0.56596  0.57850  0.08749  1.0000
  H   H1777     1.0  0.82278  0.71913  0.24218  1.0000
  C   C2238     1.0  0.54029  0.61487  0.10441  1.0000
  C   C2239     1.0  0.69299  0.52574  0.21861  1.0000
  C   C2240     1.0  0.56626  0.50589  0.98762  1.0000
  C   C2241     1.0  0.91764  0.50327  0.40195  1.0000
  H   H1778     1.0  0.53910  0.72873  0.28618  1.0000
  H   H1779     1.0  0.93849  0.51070  0.43163  1.0000
  H   H1780     1.0  0.90649  0.51282  0.39726  1.0000
  H   H1781     1.0  0.66361  0.70222  0.28646  1.0000
  H   H1782     1.0  0.67502  0.68097  0.26623  1.0000
  C   C2242     1.0  0.58010  0.53058  0.14686  1.0000
  C   C2243     1.0  0.57198  0.52088  0.16575  1.0000
  C   C2244     1.0  0.58256  0.52014  0.18971  1.0000
  C   C2245     1.0  0.60159  0.52898  0.19471  1.0000
  C   C2246     1.0  0.61057  0.53841  0.17549  1.0000
  C   C2247     1.0  0.59928  0.53932  0.15173  1.0000
  P   P73       1.0  0.63505  0.54992  0.18155  1.0000
  C   C2248     1.0  0.65613  0.54170  0.20586  1.0000
  C   C2249     1.0  0.65523  0.55362  0.15297  1.0000
  C   C2250     1.0  0.66300  0.56674  0.14602  1.0000
  C   C2251     1.0  0.67769  0.56960  0.12344  1.0000
  C   C2252     1.0  0.68488  0.55944  0.10764  1.0000
  C   C2253     1.0  0.67771  0.54632  0.11460  1.0000
  C   C2254     1.0  0.66280  0.54341  0.13703  1.0000
  C   C2255     1.0  0.65045  0.72654  0.19343  1.0000
  C   C2256     1.0  0.57923  0.72167  0.27501  1.0000
  C   C2257     1.0  0.61827  0.56525  0.19173  1.0000
  C   C2258     1.0  0.73203  0.49972  0.11975  1.0000
  H   H1783     1.0  0.92332  0.53952  0.35205  1.0000
  H   H1784     1.0  0.92430  0.62535  0.41105  1.0000
  C   C2259     1.0  0.62000  0.58650  0.21028  1.0000
  C   C2260     1.0  0.63259  0.57437  0.20333  1.0000
  H   H1785     1.0  0.55771  0.51382  0.16170  1.0000
  C   C2261     1.0  0.51165  0.58314  0.12745  1.0000
  C   C2262     1.0  0.79495  0.49583  0.20839  1.0000
  H   H1786     1.0  0.65725  0.57494  0.15744  1.0000
  H   H1787     1.0  0.69539  0.56182  0.08970  1.0000
  H   H1788     1.0  0.68290  0.53851  0.10211  1.0000
  H   H1789     1.0  0.65670  0.53325  0.14151  1.0000
  H   H1790     1.0  0.68299  0.53113  0.18016  1.0000
  C   C2263     1.0  0.56168  0.62189  0.14064  1.0000
  H   H1791     1.0  0.89226  0.64497  0.40465  1.0000
  H   H1792     1.0  0.63136  0.59380  0.21820  1.0000
  H   H1793     1.0  0.65369  0.57231  0.20631  1.0000
  H   H1794     1.0  0.77253  0.73688  0.25328  1.0000
  H   H1795     1.0  0.79165  0.53073  0.43330  1.0000
  C   C2264     1.0  0.83986  0.49627  0.42041  1.0000
  P   P74       1.0  0.52668  0.60188  0.08835  1.0000
  C   C2265     1.0  0.75168  0.53214  0.38307  1.0000
  H   H1796     1.0  0.51081  0.68931  0.34165  1.0000
  H   H1797     1.0  0.73587  0.73249  0.39458  1.0000
  C   C2266     1.0  0.93145  0.63534  0.41035  1.0000
  C   C2267     1.0  0.93555  0.50202  0.42145  1.0000
  C   C2268     1.0  0.95668  0.72341  0.39501  1.0000
  P   P75       1.0  0.75040  0.49169  0.40371  1.0000
  H   H1798     1.0  0.70285  0.51045  0.41136  1.0000
  H   H1799     1.0  0.51284  0.59381  0.03876  1.0000
  H   H1800     1.0  0.50751  0.63687  0.13764  1.0000
  C   C2269     1.0  0.67656  0.50153  0.17227  1.0000
  C   C2270     1.0  0.64971  0.50212  0.18024  1.0000
  H   H1801     1.0  0.68180  0.49217  0.98054  1.0000
  C   C2271     1.0  0.97804  0.59581  0.40706  1.0000
  C   C2272     1.0  0.57462  0.59857  0.01276  1.0000
  C   C2273     1.0  0.73353  0.50247  0.14504  1.0000
  C   C2274     1.0  0.99155  0.50399  0.34563  1.0000
  C   C2275     1.0  0.75319  0.73276  0.35672  1.0000
  C   C2276     1.0  0.73560  0.52336  0.10590  1.0000
  C   C2277     1.0  0.73744  0.52617  0.13099  1.0000
  C   C2278     1.0  0.73635  0.51578  0.15051  1.0000
  H   H1802     1.0  0.98788  0.65203  0.41248  1.0000
  H   H1803     1.0  0.51653  0.70832  0.25209  1.0000
  C   C2279     1.0  0.68668  0.52756  0.24398  1.0000
  H   H1804     1.0  0.70236  0.69241  0.17910  1.0000
  S   S318      1.0  0.84755  0.49757  0.34409  1.0000
  H   H1805     1.0  0.50606  0.65736  0.16201  1.0000
  C   C2280     1.0  0.53485  0.56132  0.13716  1.0000
  H   H1806     1.0  0.54894  0.68197  0.19667  1.0000
  C   C2281     1.0  0.99225  0.56633  0.47570  1.0000
  C   C2282     1.0  0.51846  0.66223  0.14721  1.0000
  H   H1807     1.0  0.68305  0.50915  0.15799  1.0000
  H   H1808     1.0  0.63602  0.50995  0.17180  1.0000
  H   H1809     1.0  0.98882  0.53918  0.37745  1.0000
  H   H1810     1.0  0.77373  0.57602  0.43735  1.0000
  H   H1811     1.0  0.97311  0.57522  0.40030  1.0000
  H   H1812     1.0  0.65759  0.50674  0.42865  1.0000
  C   C2283     1.0  0.64014  0.49213  0.19775  1.0000
  H   H1813     1.0  0.73569  0.53143  0.09076  1.0000
  H   H1814     1.0  0.73911  0.53646  0.13528  1.0000
  H   H1815     1.0  0.73701  0.51819  0.16990  1.0000
  H   H1816     1.0  0.64142  0.71588  0.13541  1.0000
  H   H1817     1.0  0.70947  0.68016  0.23222  1.0000
  C   C2284     1.0  0.68498  0.69002  0.25987  1.0000
  H   H1818     1.0  0.74313  0.53930  0.36855  1.0000
  H   H1819     1.0  0.73435  0.51523  0.36987  1.0000
  C   C2285     1.0  0.77856  0.48852  0.33090  1.0000
  H   H1820     1.0  0.76924  0.67929  0.24308  1.0000
  H   H1821     1.0  0.95074  0.67106  0.34909  1.0000
  H   H1822     1.0  0.99675  0.66856  0.36439  1.0000
  C   C2286     1.0  0.73290  0.51015  0.10031  1.0000
  C   C2287     1.0  0.67785  0.53280  0.19961  1.0000
  H   H1823     1.0  0.53915  0.62947  0.07168  1.0000
  C   C2288     1.0  0.72129  0.72385  0.18239  1.0000
  C   C2289     1.0  0.57119  0.69923  0.18507  1.0000
  C   C2290     1.0  0.81828  0.69862  0.25722  1.0000
  H   H1824     1.0  0.94835  0.71386  0.39312  1.0000
  C   C2291     1.0  0.53703  0.69609  0.31060  1.0000
  C   C2292     1.0  0.95600  0.69025  0.32820  1.0000
  H   H1825     1.0  0.98675  0.51126  0.46893  1.0000
  C   C2293     1.0  0.51560  0.70422  0.27167  1.0000
  C   C2294     1.0  0.80317  0.68744  0.25737  1.0000
  H   H1826     1.0  0.93639  0.69092  0.32043  1.0000
  H   H1827     1.0  0.95212  0.56485  0.46483  1.0000
  C   C2295     1.0  0.62040  0.67084  0.28648  1.0000
  C   C2296     1.0  0.63393  0.67399  0.30724  1.0000
  C   C2297     1.0  0.62813  0.68640  0.31710  1.0000
  C   C2298     1.0  0.60923  0.69580  0.30581  1.0000
  C   C2299     1.0  0.59608  0.69285  0.28444  1.0000
  C   C2300     1.0  0.60132  0.68014  0.27532  1.0000
  P   P76       1.0  0.57104  0.70481  0.27033  1.0000
  C   C2301     1.0  0.57038  0.70312  0.23678  1.0000
  C   C2302     1.0  0.58309  0.71203  0.21889  1.0000
  C   C2303     1.0  0.55811  0.69051  0.20268  1.0000
  C   C2304     1.0  0.55737  0.69255  0.22834  1.0000
  H   H1828     1.0  0.97791  0.55756  0.34395  1.0000
  H   H1829     1.0  0.87092  0.59196  0.34619  1.0000
  C   C2305     1.0  0.59298  0.58955  0.20601  1.0000
  H   H1830     1.0  0.62477  0.66114  0.27895  1.0000
  H   H1831     1.0  0.64884  0.66675  0.31564  1.0000
  H   H1832     1.0  0.63837  0.68875  0.33345  1.0000
  H   H1833     1.0  0.60485  0.70532  0.31385  1.0000
  H   H1834     1.0  0.59078  0.67731  0.25961  1.0000
  C   C2306     1.0  0.76589  0.72797  0.15014  1.0000
  C   C2307     1.0  0.76177  0.48845  0.23997  1.0000
  H   H1835     1.0  0.80196  0.49200  0.24825  1.0000
  H   H1836     1.0  0.87945  0.54684  0.33509  1.0000
  C   C2308     1.0  0.99005  0.67761  0.35293  1.0000
  C   C2309     1.0  0.57159  0.50855  0.01217  1.0000
  C   C2310     1.0  0.54340  0.66600  0.15310  1.0000
  C   C2311     1.0  0.55929  0.67284  0.13461  1.0000
  C   C2312     1.0  0.55001  0.67603  0.11026  1.0000
  H   H1837     1.0  0.59360  0.71680  0.17956  1.0000
  H   H1838     1.0  0.90082  0.49329  0.37284  1.0000
  H   H1839     1.0  0.99233  0.61570  0.32072  1.0000
  H   H1840     1.0  0.72936  0.48965  0.11490  1.0000
  C   C2313     1.0  0.55359  0.56427  0.11760  1.0000
  H   H1841     1.0  0.58236  0.60620  0.07273  1.0000
  C   C2314     1.0  0.97355  0.70026  0.32102  1.0000
  P   P77       1.0  0.98216  0.62255  0.41724  1.0000
  C   C2315     1.0  0.95329  0.60277  0.36119  1.0000
  C   C2316     1.0  0.97842  0.54899  0.45097  1.0000
  C   C2317     1.0  0.98367  0.73219  0.32766  1.0000
  H   H1842     1.0  0.73609  0.65572  0.15133  1.0000
  H   H1843     1.0  0.54667  0.60250  0.13978  1.0000
  C   C2318     1.0  0.77887  0.52734  0.41962  1.0000
  C   C2319     1.0  0.96414  0.67900  0.34429  1.0000
  H   H1844     1.0  0.80837  0.55712  0.43725  1.0000
  H   H1845     1.0  0.57869  0.67580  0.13921  1.0000
  H   H1846     1.0  0.55763  0.58297  0.19107  1.0000
  H   H1847     1.0  0.97834  0.72615  0.34485  1.0000
  C   C2320     1.0  0.94871  0.66141  0.40747  1.0000
  H   H1848     1.0  0.78305  0.72945  0.13739  1.0000
  H   H1849     1.0  0.62103  0.71815  0.26429  1.0000
  C   C2321     1.0  0.91312  0.64649  0.40681  1.0000
  C   C2322     1.0  0.51215  0.69354  0.32214  1.0000
  C   C2323     1.0  0.51853  0.54958  0.06149  1.0000
  H   H1850     1.0  0.57957  0.56172  0.17822  1.0000
  H   H1851     1.0  0.69836  0.52205  0.25869  1.0000
  H   H1852     1.0  0.80846  0.67835  0.26939  1.0000
  C   C2324     1.0  0.54802  0.59538  0.01482  1.0000
  C   C2325     1.0  0.78756  0.49220  0.23363  1.0000
  H   H1853     1.0  0.60764  0.60461  0.03236  1.0000
  C   C2326     1.0  0.99346  0.73607  0.40499  1.0000
  C   C2327     1.0  0.52498  0.67225  0.10432  1.0000
  C   C2328     1.0  0.64983  0.54340  0.23143  1.0000
  H   H1854     1.0  0.57621  0.51258  0.20428  1.0000
  H   H1855     1.0  0.79541  0.70976  0.34322  1.0000
  C   C2329     1.0  0.82768  0.54350  0.29317  1.0000
  C   C2330     1.0  0.81586  0.53260  0.30652  1.0000
  C   C2331     1.0  0.82736  0.55488  0.33169  1.0000
  C   C2332     1.0  0.83364  0.55455  0.30572  1.0000
  P   P78       1.0  0.83855  0.56820  0.34853  1.0000
  C   C2333     1.0  0.83767  0.58409  0.32897  1.0000
  C   C2334     1.0  0.81693  0.57042  0.37617  1.0000
  C   C2335     1.0  0.81755  0.58727  0.31146  1.0000
  C   C2336     1.0  0.81571  0.59988  0.29746  1.0000
  C   C2337     1.0  0.83380  0.60944  0.30093  1.0000
  C   C2338     1.0  0.85374  0.60638  0.31838  1.0000
  C   C2339     1.0  0.85567  0.59381  0.33240  1.0000
  C   C2340     1.0  0.87180  0.56324  0.35911  1.0000
  C   C2341     1.0  0.88213  0.56986  0.37822  1.0000
  C   C2342     1.0  0.90725  0.56576  0.38749  1.0000
  C   C2343     1.0  0.92210  0.55484  0.37806  1.0000
  C   C2344     1.0  0.91200  0.54813  0.35906  1.0000
  C   C2345     1.0  0.88698  0.55233  0.34953  1.0000
  H   H1856     1.0  0.83279  0.54325  0.27318  1.0000
  H   H1857     1.0  0.81201  0.52385  0.29701  1.0000
  H   H1858     1.0  0.84374  0.56267  0.29528  1.0000
  H   H1859     1.0  0.83589  0.55351  0.39860  1.0000
  H   H1860     1.0  0.80286  0.58016  0.30903  1.0000
  H   H1861     1.0  0.80002  0.60239  0.28417  1.0000
  H   H1862     1.0  0.83215  0.61931  0.29035  1.0000
  H   H1863     1.0  0.87043  0.57805  0.38626  1.0000
  H   H1864     1.0  0.91484  0.57078  0.40260  1.0000
  C   C2346     1.0  0.71685  0.67406  0.16371  1.0000
  H   H1865     1.0  0.86749  0.61387  0.32141  1.0000
  C   C2347     1.0  0.69411  0.49082  0.18168  1.0000
  S   S319      1.0  0.59386  0.56659  0.03289  1.0000
  P   P79       1.0  0.72862  0.48952  0.17059  1.0000
  C   C2348     1.0  0.67862  0.70195  0.27129  1.0000
  C   C2349     1.0  0.76621  0.71695  0.16848  1.0000
  H   H1866     1.0  0.55027  0.66360  0.17211  1.0000
  C   C2350     1.0  0.95865  0.63710  0.41237  1.0000
  H   H1867     1.0  0.56214  0.68158  0.09610  1.0000
  C   C2351     1.0  0.97223  0.56043  0.46397  1.0000
  C   C2352     1.0  0.81551  0.54386  0.34493  1.0000
  H   H1868     1.0  0.79401  0.58814  0.35986  1.0000
  H   H1869     1.0  0.78776  0.68556  0.34736  1.0000
  C   C2353     1.0  0.58326  0.71011  0.19317  1.0000
  H   H1870     1.0  0.58355  0.59915  0.21082  1.0000
  H   H1871     1.0  0.57243  0.69746  0.16525  1.0000
  C   C2354     1.0  0.80973  0.53280  0.33237  1.0000
  H   H1872     1.0  0.54027  0.56226  0.03413  1.0000
  H   H1873     1.0  0.68273  0.57986  0.11773  1.0000
  C   C2355     1.0  0.71902  0.68495  0.17797  1.0000
  C   C2356     1.0  0.79703  0.58105  0.37630  1.0000
  C   C2357     1.0  0.73801  0.66428  0.16207  1.0000
  H   H1874     1.0  0.57184  0.53118  0.12823  1.0000
  H   H1875     1.0  0.94288  0.60557  0.34385  1.0000
  C   C2358     1.0  0.70442  0.68964  0.24025  1.0000
  H   H1876     1.0  0.83544  0.69814  0.26894  1.0000
  H   H1877     1.0  0.98734  0.59289  0.42490  1.0000
  H   H1878     1.0  0.75923  0.67630  0.31742  1.0000
  C   C2359     1.0  0.69149  0.71358  0.26290  1.0000
  H   H1879     1.0  0.97441  0.49942  0.33935  1.0000
  C   C2360     1.0  0.78121  0.58291  0.39819  1.0000
  H   H1880     1.0  0.81155  0.54350  0.36511  1.0000
  H   H1881     1.0  0.76650  0.59138  0.39847  1.0000
  H   H1882     1.0  0.59334  0.72032  0.22447  1.0000
  H   H1883     1.0  0.66013  0.53776  0.27006  1.0000
  C   C2361     1.0  0.77853  0.69218  0.33240  1.0000
  C   C2362     1.0  0.71738  0.70130  0.23165  1.0000
  C   C2363     1.0  0.52090  0.55955  0.04135  1.0000
  C   C2364     1.0  0.54892  0.61218  0.12928  1.0000
  C   C2365     1.0  0.78513  0.57421  0.42006  1.0000
  C   C2366     1.0  0.80467  0.56355  0.41999  1.0000
  C   C2367     1.0  0.78292  0.70592  0.32992  1.0000
  C   C2368     1.0  0.76248  0.68696  0.31554  1.0000
  Fe  Fe158     1.0  0.61913  0.55231  0.00987  1.0000
  H   H1884     1.0  0.78254  0.67740  0.19722  1.0000
  C   C2369     1.0  0.55945  0.73130  0.28252  1.0000
  H   H1885     1.0  0.80142  0.52414  0.34289  1.0000
  C   C2370     1.0  0.98270  0.72371  0.40293  1.0000
  C   C2371     1.0  0.50285  0.66135  0.23066  1.0000
  C   C2372     1.0  0.64658  0.72727  0.16739  1.0000
  C   C2373     1.0  0.53896  0.70140  0.28523  1.0000
  C   C2374     1.0  0.64440  0.48947  0.12529  1.0000
  H   H1886     1.0  0.95765  0.62333  0.36782  1.0000
  H   H1887     1.0  0.95537  0.67153  0.40612  1.0000
  C   C2375     1.0  0.82962  0.72594  0.29429  1.0000
  H   H1888     1.0  0.54721  0.68563  0.24172  1.0000
  C   C2376     1.0  0.96150  0.61287  0.37501  1.0000
  P   P80       1.0  0.74454  0.70058  0.20834  1.0000
  C   C2377     1.0  0.77395  0.51369  0.42055  1.0000
  C   C2378     1.0  0.76395  0.67655  0.18830  1.0000
  H   H1889     1.0  0.77801  0.65798  0.17296  1.0000
  C   C2379     1.0  0.77525  0.49198  0.35578  1.0000
  H   H1890     1.0  0.57676  0.64158  0.13589  1.0000
  H   H1891     1.0  0.69862  0.67321  0.15406  1.0000
  H   H1892     1.0  0.55469  0.69382  0.32150  1.0000
  C   C2380     1.0  0.78104  0.68798  0.24227  1.0000
  C   C2381     1.0  0.78898  0.71103  0.22703  1.0000
  H   H1893     1.0  0.60952  0.52824  0.21339  1.0000
  H   H1894     1.0  0.70948  0.51875  0.21368  1.0000
  C   C2382     1.0  0.96713  0.65026  0.41104  1.0000
  C   C2383     1.0  0.75102  0.73652  0.38146  1.0000
  C   C2384     1.0  0.75087  0.69546  0.29612  1.0000
  H   H1895     1.0  0.73862  0.69132  0.28297  1.0000
  C   C2385     1.0  0.66515  0.53641  0.25038  1.0000
  C   C2386     1.0  0.76158  0.66555  0.17427  1.0000
  C   C2387     1.0  0.74242  0.68618  0.19067  1.0000
  C   C2388     1.0  0.57848  0.58048  0.19475  1.0000
  C   C2389     1.0  0.77131  0.71456  0.31048  1.0000
  H   H1896     1.0  0.78318  0.50677  0.43500  1.0000
  P   P81       1.0  0.77624  0.73242  0.30808  1.0000
  C   C2390     1.0  0.74405  0.71497  0.18508  1.0000
  C   C2391     1.0  0.74678  0.51851  0.38389  1.0000
  H   H1897     1.0  0.72071  0.72229  0.23702  1.0000
  H   H1898     1.0  0.83570  0.48891  0.43604  1.0000
  C   C2392     1.0  0.53022  0.58604  0.10748  1.0000
  C   C2393     1.0  0.75551  0.70917  0.29340  1.0000
  H   H1899     1.0  0.79507  0.49216  0.31898  1.0000
  C   C2394     1.0  0.77408  0.69969  0.22659  1.0000
  H   H1900     1.0  0.61912  0.49237  0.20325  1.0000
  C   C2395     1.0  0.97350  0.60949  0.39830  1.0000
  H   H1901     1.0  0.97716  0.50349  0.38440  1.0000
  H   H1902     1.0  0.78347  0.72039  0.21600  1.0000
  C   C2396     1.0  0.54478  0.62739  0.09115  1.0000
  H   H1903     1.0  0.90746  0.66814  0.40221  1.0000
  H   H1904     1.0  0.63283  0.54995  0.23681  1.0000
  C   C2397     1.0  0.56614  0.63428  0.12726  1.0000
  H   H1905     1.0  0.70363  0.72217  0.19412  1.0000
  H   H1906     1.0  0.68054  0.49418  0.10391  1.0000
  C   C2398     1.0  0.84229  0.49239  0.39565  1.0000
  C   C2399     1.0  0.54054  0.50873  0.97836  1.0000
  H   H1907     1.0  0.82689  0.71579  0.30257  1.0000
  H   H1908     1.0  0.77113  0.54714  0.40043  1.0000
  H   H1909     1.0  0.78367  0.70993  0.16970  1.0000
  H   H1910     1.0  0.63518  0.52687  0.98128  1.0000
  H   H1911     1.0  0.56164  0.64658  0.09212  1.0000
  H   H1912     1.0  0.50347  0.69266  0.19115  1.0000
  C   C2400     1.0  0.92172  0.65952  0.40535  1.0000
  H   H1913     1.0  0.93672  0.61778  0.45297  1.0000
  H   H1914     1.0  0.74675  0.71550  0.27805  1.0000
  C   C2401     1.0  0.53328  0.59650  0.03758  1.0000
  H   H1915     1.0  0.68636  0.72291  0.27145  1.0000
  C   C2402     1.0  0.97003  0.58573  0.39308  1.0000
  C   C2403     1.0  0.81114  0.71043  0.24211  1.0000
  C   C2404     1.0  0.76756  0.53656  0.40103  1.0000
  Fe  Fe159     1.0  0.91371  0.54473  0.45799  1.0000
  H   H1916     1.0  0.95048  0.58146  0.35978  1.0000
  C   C2405     1.0  0.95741  0.58922  0.37027  1.0000
  H   H1917     1.0  0.73058  0.50809  0.08088  1.0000
  C   C2406     1.0  0.61755  0.49341  0.13002  1.0000
  H   H1918     1.0  0.81506  0.49861  0.20346  1.0000
  H   H1919     1.0  0.99529  0.55775  0.29061  1.0000
  C   C2407     1.0  0.52049  0.51456  0.99396  1.0000
  H   H1920     1.0  0.99464  0.71436  0.40717  1.0000
  C   C2408     1.0  0.50942  0.66490  0.12257  1.0000
  H   H1921     1.0  0.99134  0.67572  0.26527  1.0000
  H   H1922     1.0  0.51768  0.67529  0.08567  1.0000
  H   H1923     1.0  0.73959  0.72582  0.35093  1.0000
  H   H1924     1.0  0.53624  0.55158  0.14805  1.0000
  C   C2409     1.0  0.99310  0.50624  0.37102  1.0000
  C   C2410     1.0  0.72097  0.73487  0.16414  1.0000
  C   C2411     1.0  0.69792  0.50029  0.41765  1.0000
  H   H1925     1.0  0.50386  0.66993  0.24148  1.0000
  C   C2412     1.0  0.80865  0.73600  0.29425  1.0000
  C   C2413     1.0  0.55147  0.51428  0.02758  1.0000
  H   H1926     1.0  0.78305  0.49787  0.16991  1.0000
  C   C2414     1.0  0.75078  0.49151  0.19564  1.0000
  H   H1927     1.0  0.87103  0.72126  0.28445  1.0000
  H   H1928     1.0  0.55583  0.51676  0.04635  1.0000
  C   C2415     1.0  0.85478  0.72901  0.28408  1.0000
  C   C2416     1.0  0.51396  0.57080  0.14219  1.0000
  C   C2417     1.0  0.77668  0.49546  0.18946  1.0000
  C   C2418     1.0  0.52596  0.51730  0.01848  1.0000
  H   H1929     1.0  0.64639  0.73691  0.15627  1.0000
  C   C2419     1.0  0.99645  0.55730  0.35358  1.0000
  H   H1930     1.0  0.92156  0.73522  0.38214  1.0000
  C   C2420     1.0  0.94153  0.73546  0.38887  1.0000
  H   H1931     1.0  0.50159  0.73140  0.25946  1.0000
  H   H1932     1.0  0.52139  0.73733  0.16223  1.0000
  C   C2421     1.0  0.71690  0.48933  0.41620  1.0000
  C   C2422     1.0  0.74330  0.73697  0.14804  1.0000
  H   H1933     1.0  0.51073  0.52209  0.03038  1.0000
  H   H1934     1.0  0.50204  0.64861  0.03033  1.0000
  C   C2423     1.0  0.49985  0.63871  0.20437  1.0000
  H   H1935     1.0  0.49994  0.57376  0.01491  1.0000
  H   H1936     1.0  0.84843  0.73812  0.36078  1.0000
  C   C2424     1.0  0.77298  0.73781  0.33966  1.0000
  Fe  Fe160     1.0  0.63207  0.50048  0.86474  1.0000
  S   S320      1.0  0.62704  0.51287  0.82738  1.0000
  S   S321      1.0  0.64696  0.50484  0.90261  1.0000
  H   H1937     1.0  0.78377  0.50203  0.56991  1.0000
  S   S322      1.0  0.89932  0.52804  0.48506  1.0000
  C   C2425     1.0  0.99097  0.53287  0.52575  1.0000
  S   S323      1.0  0.54644  0.51293  0.82056  1.0000
  C   C2426     1.0  0.79874  0.58213  0.75563  1.0000
  C   C2427     1.0  0.75636  0.52479  0.80808  1.0000
  H   H1938     1.0  0.78684  0.50488  0.48867  1.0000
  C   C2428     1.0  0.77600  0.53037  0.76607  1.0000
  C   C2429     1.0  0.90801  0.50380  0.54513  1.0000
  S   S324      1.0  0.89444  0.54276  0.55039  1.0000
  Fe  Fe161     1.0  0.85411  0.49625  0.66748  1.0000
  S   S325      1.0  0.85777  0.50691  0.70250  1.0000
  S   S326      1.0  0.83476  0.50323  0.63055  1.0000
  H   H1939     1.0  0.53273  0.59516  0.94752  1.0000
  Fe  Fe162     1.0  0.58832  0.50253  0.82586  1.0000
  C   C2430     1.0  0.80580  0.54318  0.69389  1.0000
  S   S327      1.0  0.93564  0.50571  0.71298  1.0000
  C   C2431     1.0  0.98702  0.50220  0.50736  1.0000
  C   C2432     1.0  0.54811  0.51896  0.89943  1.0000
  C   C2433     1.0  0.87749  0.53189  0.57261  1.0000
  C   C2434     1.0  0.88776  0.52864  0.59671  1.0000
  C   C2435     1.0  0.87507  0.51971  0.61460  1.0000
  C   C2436     1.0  0.85166  0.51424  0.60861  1.0000
  C   C2437     1.0  0.84117  0.51768  0.58470  1.0000
  C   C2438     1.0  0.85421  0.52633  0.56659  1.0000
  H   H1940     1.0  0.90553  0.53305  0.60158  1.0000
  H   H1941     1.0  0.88317  0.51723  0.63310  1.0000
  H   H1942     1.0  0.82280  0.51374  0.58026  1.0000
  H   H1943     1.0  0.84604  0.52885  0.54814  1.0000
  C   C2439     1.0  0.51543  0.50513  0.82259  1.0000
  S   S328      1.0  0.84389  0.54724  0.49168  1.0000
  C   C2440     1.0  0.94921  0.49940  0.61450  1.0000
  H   H1944     1.0  0.56237  0.55113  0.87972  1.0000
  C   C2441     1.0  0.96618  0.53389  0.53861  1.0000
  H   H1945     1.0  0.96834  0.50747  0.51279  1.0000
  C   C2442     1.0  0.63530  0.51838  0.92036  1.0000
  C   C2443     1.0  0.62399  0.53053  0.90898  1.0000
  C   C2444     1.0  0.61742  0.54147  0.92360  1.0000
  C   C2445     1.0  0.62144  0.54024  0.94974  1.0000
  H   H1946     1.0  0.90409  0.50855  0.76479  1.0000
  C   C2446     1.0  0.63897  0.51712  0.94654  1.0000
  H   H1947     1.0  0.62118  0.53166  0.88882  1.0000
  H   H1948     1.0  0.60953  0.55099  0.91456  1.0000
  H   H1949     1.0  0.98392  0.51868  0.71851  1.0000
  H   H1950     1.0  0.64763  0.50780  0.95551  1.0000
  C   C2447     1.0  0.54372  0.52021  0.92544  1.0000
  H   H1951     1.0  0.71124  0.52275  0.76321  1.0000
  C   C2448     1.0  0.79996  0.53340  0.71375  1.0000
  H   H1952     1.0  0.85773  0.54248  0.73017  1.0000
  P   P82       1.0  0.53372  0.50594  0.94619  1.0000
  H   H1953     1.0  0.55442  0.55352  0.92563  1.0000
  C   C2449     1.0  0.77979  0.57675  0.74180  1.0000
  C   C2450     1.0  0.75479  0.49168  0.74209  1.0000
  C   C2451     1.0  0.73236  0.52258  0.79749  1.0000
  C   C2452     1.0  0.83530  0.52828  0.75427  1.0000
  C   C2453     1.0  0.78248  0.50434  0.52929  1.0000
  C   C2454     1.0  0.63191  0.52794  0.96121  1.0000
  Fe  Fe163     1.0  0.88398  0.54441  0.50916  1.0000
  H   H1954     1.0  0.58252  0.50197  0.97585  1.0000
  C   C2455     1.0  0.54555  0.53282  0.93469  1.0000
  S   S329      1.0  0.90153  0.56098  0.48350  1.0000
  H   H1955     1.0  0.79711  0.52530  0.64380  1.0000
  H   H1956     1.0  0.54654  0.50939  0.89175  1.0000
  H   H1957     1.0  0.79630  0.53079  0.80098  1.0000
  C   C2456     1.0  0.81920  0.57367  0.76669  1.0000
  H   H1958     1.0  0.53375  0.58283  0.90913  1.0000
  C   C2457     1.0  0.79364  0.52060  0.70808  1.0000
  H   H1959     1.0  0.93348  0.50727  0.61096  1.0000
  H   H1960     1.0  0.81930  0.51158  0.77769  1.0000
  H   H1961     1.0  0.97433  0.59728  0.51775  1.0000
  H   H1962     1.0  0.83367  0.57782  0.77770  1.0000
  H   H1963     1.0  0.76373  0.58327  0.73350  1.0000
  C   C2458     1.0  0.78139  0.56294  0.73887  1.0000
  C   C2459     1.0  0.97580  0.50260  0.61563  1.0000
  S   S330      1.0  0.61373  0.55429  0.96738  1.0000
  P   P83       1.0  0.80336  0.53660  0.74624  1.0000
  S   S331      1.0  0.68030  0.49530  0.77705  1.0000
  C   C2460     1.0  0.82085  0.55985  0.76380  1.0000
  H   H1964     1.0  0.83649  0.55344  0.77298  1.0000
  P   P84       1.0  0.98405  0.51999  0.61143  1.0000
  H   H1965     1.0  0.90831  0.51467  0.54222  1.0000
  C   C2461     1.0  0.99737  0.50432  0.48258  1.0000
  C   C2462     1.0  0.80218  0.55444  0.74950  1.0000
  H   H1966     1.0  0.91486  0.52904  0.67776  1.0000
  C   C2463     1.0  0.79465  0.50064  0.50658  1.0000
  H   H1967     1.0  0.76271  0.49257  0.72280  1.0000
  H   H1968     1.0  0.81190  0.55293  0.69768  1.0000
  C   C2464     1.0  0.77800  0.52885  0.79247  1.0000
  H   H1969     1.0  0.87573  0.49194  0.48647  1.0000
  H   H1970     1.0  0.94693  0.50112  0.56047  1.0000
  H   H1971     1.0  0.74899  0.53006  0.73548  1.0000
  C   C2465     1.0  0.79232  0.51774  0.68294  1.0000
  H   H1972     1.0  0.54237  0.53411  0.95462  1.0000
  H   H1973     1.0  0.76505  0.51138  0.52906  1.0000
  Fe  Fe164     1.0  0.89812  0.49516  0.70535  1.0000
  C   C2466     1.0  0.55465  0.53011  0.88302  1.0000
  H   H1974     1.0  0.79741  0.59282  0.75798  1.0000
  H   H1975     1.0  0.75812  0.52338  0.82840  1.0000
  C   C2467     1.0  0.80448  0.54029  0.66875  1.0000
  C   C2468     1.0  0.72689  0.49331  0.74711  1.0000
  H   H1976     1.0  0.80925  0.54778  0.65343  1.0000
  H   H1977     1.0  0.58997  0.50161  0.93065  1.0000
  C   C2469     1.0  0.85870  0.53334  0.74288  1.0000
  Fe  Fe165     1.0  0.64794  0.49475  0.80993  1.0000
  H   H1978     1.0  0.90141  0.53004  0.73768  1.0000
  H   H1979     1.0  0.79038  0.51273  0.72313  1.0000
  H   H1980     1.0  0.78796  0.50776  0.67862  1.0000
  C   C2470     1.0  0.79763  0.52761  0.66329  1.0000
  H   H1981     1.0  0.96375  0.54826  0.60110  1.0000
  H   H1982     1.0  0.55844  0.52900  0.86303  1.0000
  C   C2471     1.0  0.86178  0.50904  0.77362  1.0000
  C   C2472     1.0  0.83703  0.51604  0.76959  1.0000
  H   H1983     1.0  0.93346  0.60649  0.49597  1.0000
  C   C2473     1.0  0.97588  0.60257  0.49903  1.0000
  C   C2474     1.0  0.98978  0.50842  0.71461  1.0000
  C   C2475     1.0  0.88344  0.52635  0.74704  1.0000
  C   C2476     1.0  0.55669  0.54259  0.89240  1.0000
  C   C2477     1.0  0.79307  0.49910  0.55228  1.0000
  H   H1984     1.0  0.86903  0.50370  0.53070  1.0000
  H   H1985     1.0  0.90347  0.55257  0.66006  1.0000
  H   H1986     1.0  0.71561  0.51929  0.80948  1.0000
  C   C2478     1.0  0.72992  0.52451  0.77133  1.0000
  C   C2479     1.0  0.95873  0.53040  0.62691  1.0000
  C   C2480     1.0  0.55209  0.54394  0.91820  1.0000
  C   C2481     1.0  0.55373  0.49112  0.93761  1.0000
  C   C2482     1.0  0.81737  0.49171  0.50683  1.0000
  H   H1987     1.0  0.92824  0.56213  0.62187  1.0000
  C   C2483     1.0  0.88569  0.49751  0.53874  1.0000
  C   C2484     1.0  0.96382  0.52956  0.56438  1.0000
  C   C2485     1.0  0.94527  0.52523  0.64904  1.0000
  C   C2486     1.0  0.92536  0.53320  0.66087  1.0000
  C   C2487     1.0  0.91908  0.54646  0.65100  1.0000
  C   C2488     1.0  0.93305  0.55183  0.62950  1.0000
  C   C2489     1.0  0.95302  0.54389  0.61763  1.0000
  C   C2490     1.0  0.96996  0.49968  0.71060  1.0000
  C   C2491     1.0  0.98639  0.52437  0.57760  1.0000
  H   H1988     1.0  0.86282  0.49938  0.78481  1.0000
  C   C2492     1.0  0.75155  0.52847  0.75565  1.0000
  C   C2493     1.0  0.92989  0.49613  0.55525  1.0000
  H   H1989     1.0  0.95008  0.51504  0.65727  1.0000
  H   H1990     1.0  0.76635  0.55887  0.72840  1.0000
  C   C2494     1.0  0.95289  0.60775  0.48676  1.0000
  C   C2495     1.0  0.58091  0.49206  0.93110  1.0000
  C   C2496     1.0  0.88497  0.51418  0.76234  1.0000
  C   C2497     1.0  0.71580  0.49229  0.77206  1.0000
  H   H1991     1.0  0.94448  0.53058  0.57400  1.0000
  H   H1992     1.0  0.94884  0.53833  0.52871  1.0000
  C   C2498     1.0  0.51384  0.49131  0.82074  1.0000
  H   H1993     1.0  0.99287  0.53657  0.50594  1.0000
  S   S332      1.0  0.59263  0.49164  0.86418  1.0000
  C   C2499     1.0  0.81618  0.49041  0.55259  1.0000
  C   C2500     1.0  0.99569  0.49213  0.61974  1.0000
  H   H1994     1.0  0.71376  0.49557  0.73150  1.0000
  H   H1995     1.0  0.72534  0.48860  0.81122  1.0000
  H   H1996     1.0  0.99369  0.49284  0.54479  1.0000
  C   C2501     1.0  0.51701  0.58865  0.94479  1.0000
  C   C2502     1.0  0.51762  0.58165  0.92320  1.0000
  Fe  Fe166     1.0  0.83992  0.48878  0.72401  1.0000
  C   C2503     1.0  0.73327  0.48938  0.79193  1.0000
  H   H1997     1.0  0.98725  0.57501  0.48612  1.0000
  H   H1998     1.0  0.82607  0.48897  0.48893  1.0000
  C   C2504     1.0  0.77231  0.48914  0.76199  1.0000
  Fe  Fe167     1.0  0.63993  0.79254  0.18309  1.0000
  S   S333      1.0  0.62744  0.80014  0.22075  1.0000
  S   S334      1.0  0.64030  0.80531  0.14526  1.0000
  Fe  Fe168     1.0  0.64770  0.76309  0.20475  1.0000
  S   S335      1.0  0.63617  0.76914  0.24340  1.0000
  C   C2505     1.0  0.52336  0.74267  0.20061  1.0000
  Fe  Fe169     1.0  0.60264  0.78209  0.22560  1.0000
  S   S336      1.0  0.56299  0.77819  0.24637  1.0000
  Fe  Fe170     1.0  0.66224  0.78630  0.23525  1.0000
  S   S337      1.0  0.68824  0.78968  0.26809  1.0000
  S   S338      1.0  0.61292  0.77523  0.18723  1.0000
  S   S339      1.0  0.67601  0.77964  0.19739  1.0000
  Fe  Fe171     1.0  0.88118  0.76562  0.33365  1.0000
  S   S340      1.0  0.88433  0.77822  0.29641  1.0000
  Fe  Fe172     1.0  0.86219  0.79033  0.36172  1.0000
  S   S341      1.0  0.86278  0.80411  0.32603  1.0000
  S   S342      1.0  0.85683  0.79809  0.40079  1.0000
  Fe  Fe173     1.0  0.84403  0.78762  0.30815  1.0000
  S   S343      1.0  0.81442  0.79102  0.27608  1.0000
  Fe  Fe174     1.0  0.90264  0.79335  0.31779  1.0000
  S   S344      1.0  0.93739  0.80672  0.31024  1.0000
  S   S345      1.0  0.84030  0.77439  0.34479  1.0000
  S   S346      1.0  0.90248  0.78008  0.35400  1.0000
  Fe  Fe175     1.0  0.64138  0.90316  0.04573  1.0000
  S   S347      1.0  0.59804  0.90977  0.04789  1.0000
  S   S348      1.0  0.66736  0.91442  0.01571  1.0000
  Fe  Fe176     1.0  0.63610  0.88295  0.09338  1.0000
  S   S349      1.0  0.59238  0.88855  0.09853  1.0000
  S   S350      1.0  0.65373  0.86842  0.12513  1.0000
  Fe  Fe177     1.0  0.59186  0.88787  0.05640  1.0000
  S   S351      1.0  0.55961  0.87919  0.03635  1.0000
  Fe  Fe178     1.0  0.60300  0.90999  0.08956  1.0000
  S   S352      1.0  0.58311  0.92822  0.10701  1.0000
  S   S353      1.0  0.63506  0.88088  0.05149  1.0000
  S   S354      1.0  0.64695  0.90467  0.08726  1.0000
  S   S355      1.0  0.89984  0.91474  0.41891  1.0000
  H   H1999     1.0  0.87118  0.89232  0.39885  1.0000
  H   H2000     1.0  0.76790  0.94682  0.34684  1.0000
  S   S356      1.0  0.64027  0.95237  0.19499  1.0000
  C   C2506     1.0  0.53203  0.95402  0.17870  1.0000
  C   C2507     1.0  0.96850  0.77808  0.39674  1.0000
  S   S357      1.0  0.83063  0.97011  0.42221  1.0000
  C   C2508     1.0  0.57272  0.80348  0.12908  1.0000
  H   H2001     1.0  0.79154  0.89987  0.34665  1.0000
  H   H2002     1.0  0.58118  0.81273  0.12155  1.0000
  H   H2003     1.0  0.69190  0.79234  0.12081  1.0000
  H   H2004     1.0  0.84262  0.91320  0.40109  1.0000
  C   C2509     1.0  0.88132  0.93024  0.42067  1.0000
  C   C2510     1.0  0.86415  0.93259  0.44147  1.0000
  C   C2511     1.0  0.84942  0.94506  0.44226  1.0000
  C   C2512     1.0  0.85117  0.95505  0.42197  1.0000
  C   C2513     1.0  0.86878  0.95274  0.40149  1.0000
  C   C2514     1.0  0.88388  0.94039  0.40087  1.0000
  H   H2005     1.0  0.86229  0.92484  0.45698  1.0000
  H   H2006     1.0  0.83646  0.94692  0.45852  1.0000
  H   H2007     1.0  0.87085  0.96044  0.38608  1.0000
  H   H2008     1.0  0.89737  0.93868  0.38488  1.0000
  C   C2515     1.0  0.59901  0.93467  0.13171  1.0000
  C   C2516     1.0  0.58976  0.94725  0.13957  1.0000
  C   C2517     1.0  0.60211  0.95272  0.15906  1.0000
  C   C2518     1.0  0.62363  0.94556  0.17108  1.0000
  C   C2519     1.0  0.63263  0.93288  0.16344  1.0000
  C   C2520     1.0  0.62051  0.92748  0.14367  1.0000
  H   H2009     1.0  0.57295  0.95278  0.13060  1.0000
  H   H2010     1.0  0.59478  0.96242  0.16492  1.0000
  H   H2011     1.0  0.64930  0.92728  0.17258  1.0000
  H   H2012     1.0  0.62771  0.91774  0.13783  1.0000
  C   C2521     1.0  0.85635  0.81546  0.40596  1.0000
  C   C2522     1.0  0.85270  0.82567  0.38627  1.0000
  C   C2523     1.0  0.85014  0.83931  0.39142  1.0000
  H   H2013     1.0  0.79382  0.86906  0.38974  1.0000
  H   H2014     1.0  0.78636  0.96469  0.31734  1.0000
  C   C2524     1.0  0.85828  0.81912  0.43070  1.0000
  H   H2015     1.0  0.85083  0.82304  0.36722  1.0000
  C   C2525     1.0  0.92058  0.98806  0.44490  1.0000
  C   C2526     1.0  0.52561  0.93364  0.98990  1.0000
  H   H2016     1.0  0.86101  0.81133  0.44611  1.0000
  C   C2527     1.0  0.64176  0.82307  0.14056  1.0000
  C   C2528     1.0  0.64032  0.82942  0.11586  1.0000
  C   C2529     1.0  0.64279  0.84340  0.11099  1.0000
  C   C2530     1.0  0.64685  0.85119  0.13081  1.0000
  C   C2531     1.0  0.64777  0.84489  0.15559  1.0000
  C   C2532     1.0  0.64511  0.83091  0.16050  1.0000
  H   H2017     1.0  0.63772  0.82346  0.10030  1.0000
  H   H2018     1.0  0.64231  0.84808  0.09179  1.0000
  H   H2019     1.0  0.65098  0.85083  0.17100  1.0000
  H   H2020     1.0  0.64621  0.82616  0.17959  1.0000
  C   C2533     1.0  0.72366  0.78845  0.26981  1.0000
  C   C2534     1.0  0.73512  0.78690  0.29368  1.0000
  C   C2535     1.0  0.76299  0.78680  0.29592  1.0000
  C   C2536     1.0  0.77967  0.78889  0.27436  1.0000
  C   C2537     1.0  0.76829  0.78996  0.25048  1.0000
  C   C2538     1.0  0.74053  0.78960  0.24820  1.0000
  H   H2021     1.0  0.72234  0.78580  0.31056  1.0000
  H   H2022     1.0  0.77151  0.78532  0.31431  1.0000
  H   H2023     1.0  0.78101  0.79120  0.23361  1.0000
  H   H2024     1.0  0.73214  0.79053  0.22976  1.0000
  H   H2025     1.0  0.72335  0.91935  0.31568  1.0000
  H   H2026     1.0  0.76014  0.98286  0.35048  1.0000
  S   S358      1.0  0.84250  0.85998  0.42228  1.0000
  C   C2539     1.0  0.85581  0.83278  0.43584  1.0000
  C   C2540     1.0  0.52780  0.89257  0.06985  1.0000
  C   C2541     1.0  0.52873  0.88435  0.04999  1.0000
  P   P85       1.0  0.79312  0.92328  0.37670  1.0000
  H   H2027     1.0  0.54573  0.89629  0.07590  1.0000
  C   C2542     1.0  0.85108  0.84295  0.41627  1.0000
  C   C2543     1.0  0.97078  0.80025  0.30548  1.0000
  C   C2544     1.0  0.91073  0.98118  0.46727  1.0000
  C   C2545     1.0  0.75370  0.92096  0.34231  1.0000
  H   H2028     1.0  0.91085  0.94979  0.44675  1.0000
  C   C2546     1.0  0.54221  0.92167  0.99093  1.0000
  H   H2029     1.0  0.96161  0.78638  0.27910  1.0000
  C   C2547     1.0  0.66160  0.98298  0.08943  1.0000
  C   C2548     1.0  0.53111  0.78656  0.24163  1.0000
  C   C2549     1.0  0.89958  0.84225  0.31812  1.0000
  C   C2550     1.0  0.76863  0.74530  0.38939  1.0000
  H   H2030     1.0  0.53291  0.79734  0.27459  1.0000
  H   H2031     1.0  0.86063  0.87519  0.37076  1.0000
  C   C2551     1.0  0.63636  0.97511  0.30390  1.0000
  C   C2552     1.0  0.57027  0.84977  0.11311  1.0000
  H   H2032     1.0  0.80566  0.81539  0.30933  1.0000
  H   H2033     1.0  0.97647  0.81005  0.42801  1.0000
  H   H2034     1.0  0.78056  0.78509  0.36188  1.0000
  C   C2553     1.0  0.72788  0.91901  0.33548  1.0000
  H   H2035     1.0  0.68799  0.91493  0.34893  1.0000
  C   C2554     1.0  0.55298  0.77905  0.14892  1.0000
  C   C2555     1.0  0.57995  0.97966  0.09967  1.0000
  H   H2036     1.0  0.92819  0.84298  0.45669  1.0000
  H   H2037     1.0  0.78741  0.83050  0.39044  1.0000
  C   C2556     1.0  0.57762  0.94429  0.01755  1.0000
  H   H2038     1.0  0.92842  0.82993  0.37257  1.0000
  H   H2039     1.0  0.59403  0.97097  0.09847  1.0000
  C   C2557     1.0  0.81329  0.74918  0.28412  1.0000
  C   C2558     1.0  0.70276  0.96032  0.28728  1.0000
  C   C2559     1.0  0.95229  0.74784  0.39072  1.0000
  C   C2560     1.0  0.64952  0.95596  0.09488  1.0000
  C   C2561     1.0  0.69638  0.95674  0.99694  1.0000
  H   H2040     1.0  0.98463  0.90238  0.44681  1.0000
  C   C2562     1.0  0.54948  0.80359  0.14471  1.0000
  C   C2563     1.0  0.51257  0.96429  0.17214  1.0000
  H   H2041     1.0  0.51386  0.92022  0.04221  1.0000
  C   C2564     1.0  0.70925  0.75469  0.28288  1.0000
  C   C2565     1.0  0.71280  0.75490  0.25664  1.0000
  C   C2566     1.0  0.51985  0.83962  0.11437  1.0000
  C   C2567     1.0  0.51711  0.98671  0.22307  1.0000
  C   C2568     1.0  0.74112  0.82988  0.32050  1.0000
  H   H2042     1.0  0.71414  0.77086  0.13906  1.0000
  C   C2569     1.0  0.54325  0.82321  0.18324  1.0000
  C   C2570     1.0  0.58577  0.79124  0.12325  1.0000
  C   C2571     1.0  0.64978  0.96309  0.07092  1.0000
  H   H2043     1.0  0.79757  0.75720  0.28435  1.0000
  H   H2044     1.0  0.84220  0.76253  0.26730  1.0000
  C   C2572     1.0  0.99646  0.74798  0.28313  1.0000
  C   C2573     1.0  0.79718  0.83662  0.31435  1.0000
  C   C2574     1.0  0.68938  0.96317  0.26457  1.0000
  H   H2045     1.0  0.54617  0.93342  0.17471  1.0000
  C   C2575     1.0  0.52115  0.97659  0.98294  1.0000
  S   S359      1.0  0.65850  0.74051  0.20922  1.0000
  C   C2576     1.0  0.57591  0.77904  0.13309  1.0000
  C   C2577     1.0  0.78838  0.94124  0.41415  1.0000
  H   H2046     1.0  0.64512  0.94465  0.01601  1.0000
  H   H2047     1.0  0.85693  0.97825  0.47129  1.0000
  H   H2048     1.0  0.69795  0.76018  0.24452  1.0000
  S   S360      1.0  0.85325  0.98150  0.35129  1.0000
  C   C2578     1.0  0.98429  0.89060  0.37334  1.0000
  C   C2579     1.0  0.70843  0.95584  0.36466  1.0000
  C   C2580     1.0  0.51504  0.89279  0.15064  1.0000
  C   C2581     1.0  0.55073  0.85597  0.09733  1.0000
  H   H2049     1.0  0.56143  0.94115  0.03033  1.0000
  H   H2050     1.0  0.92794  0.96215  0.40735  1.0000
  C   C2582     1.0  0.52137  0.96349  0.99517  1.0000
  H   H2051     1.0  0.73838  0.74877  0.22568  1.0000
  C   C2583     1.0  0.53089  0.94135  0.16981  1.0000
  H   H2052     1.0  0.99087  0.97590  0.40782  1.0000
  C   C2584     1.0  0.70794  0.91655  0.35416  1.0000
  C   C2585     1.0  0.68609  0.96405  0.01682  1.0000
  P   P86       1.0  0.96603  0.85141  0.36946  1.0000
  H   H2053     1.0  0.85634  0.83541  0.45509  1.0000
  C   C2586     1.0  0.75493  0.74182  0.26174  1.0000
  C   C2587     1.0  0.75142  0.74146  0.28818  1.0000
  C   C2588     1.0  0.78176  0.79506  0.36803  1.0000
  H   H2054     1.0  0.54799  0.95587  0.19067  1.0000
  C   C2589     1.0  0.78977  0.92092  0.45417  1.0000
  H   H2055     1.0  0.70901  0.94758  0.00089  1.0000
  C   C2590     1.0  0.90498  0.83380  0.33997  1.0000
  H   H2056     1.0  0.54240  0.93042  0.07054  1.0000
  C   C2591     1.0  0.92464  0.83670  0.35588  1.0000
  H   H2057     1.0  0.94486  0.86540  0.32304  1.0000
  C   C2592     1.0  0.62018  0.95165  0.98493  1.0000
  Fe  Fe179     1.0  0.86028  0.87153  0.45196  1.0000
  P   P87       1.0  0.76965  0.83400  0.33695  1.0000
  Fe  Fe180     1.0  0.83962  0.98596  0.39040  1.0000
  H   H2058     1.0  0.80229  0.75702  0.37882  1.0000
  H   H2059     1.0  0.61700  0.93606  0.36666  1.0000
  Fe  Fe181     1.0  0.88762  0.89815  0.44779  1.0000
  H   H2060     1.0  0.99135  0.96149  0.46891  1.0000
  H   H2061     1.0  0.52235  0.79105  0.16738  1.0000
  C   C2593     1.0  0.73953  0.91811  0.38656  1.0000
  H   H2062     1.0  0.84079  0.81904  0.27649  1.0000
  C   C2594     1.0  0.79165  0.92769  0.40897  1.0000
  C   C2595     1.0  0.75212  0.87148  0.38139  1.0000
  C   C2596     1.0  0.65524  0.91910  0.98507  1.0000
  C   C2597     1.0  0.66899  0.97567  0.01192  1.0000
  H   H2063     1.0  0.49995  0.83620  0.11493  1.0000
  C   C2598     1.0  0.62488  0.94644  0.00975  1.0000
  S   S361      1.0  0.84542  0.89316  0.45617  1.0000
  H   H2064     1.0  0.98666  0.81364  0.32957  1.0000
  H   H2065     1.0  0.78880  0.94927  0.39903  1.0000
  H   H2066     1.0  0.80855  0.98190  0.47588  1.0000
  H   H2067     1.0  0.84707  0.84709  0.37610  1.0000
  H   H2068     1.0  0.60721  0.93913  0.04560  1.0000
  H   H2069     1.0  0.94390  0.77026  0.42849  1.0000
  C   C2599     1.0  0.93020  0.79999  0.39364  1.0000
  C   C2600     1.0  0.74256  0.95290  0.26322  1.0000
  H   H2070     1.0  0.64595  0.95501  0.35792  1.0000
  H   H2071     1.0  0.95413  0.80798  0.36203  1.0000
  C   C2601     1.0  0.66097  0.97619  0.31478  1.0000
  C   C2602     1.0  0.55296  0.81301  0.20115  1.0000
  C   C2603     1.0  0.56187  0.81629  0.22418  1.0000
  C   C2604     1.0  0.56144  0.82975  0.22942  1.0000
  C   C2605     1.0  0.55186  0.83997  0.21169  1.0000
  C   C2606     1.0  0.54252  0.83671  0.18882  1.0000
  H   H2072     1.0  0.55387  0.80252  0.19745  1.0000
  H   H2073     1.0  0.56929  0.80835  0.23792  1.0000
  H   H2074     1.0  0.56863  0.83222  0.24719  1.0000
  H   H2075     1.0  0.55172  0.85042  0.21564  1.0000
  H   H2076     1.0  0.79467  0.90699  0.42575  1.0000
  C   C2607     1.0  0.77578  0.80649  0.35147  1.0000
  H   H2077     1.0  0.57991  0.75158  0.22590  1.0000
  C   C2608     1.0  0.78554  0.82079  0.38367  1.0000
  H   H2078     1.0  0.92085  0.87053  0.37947  1.0000
  H   H2079     1.0  0.82108  0.87921  0.34421  1.0000
  H   H2080     1.0  0.58643  0.76960  0.12894  1.0000
  C   C2609     1.0  0.66135  0.97584  0.11333  1.0000
  C   C2610     1.0  0.63117  0.93616  0.35067  1.0000
  C   C2611     1.0  0.68742  0.84527  0.21260  1.0000
  C   C2612     1.0  0.67332  0.83604  0.22833  1.0000
  C   C2613     1.0  0.67896  0.82222  0.22689  1.0000
  C   C2614     1.0  0.69826  0.81761  0.20939  1.0000
  C   C2615     1.0  0.71233  0.82682  0.19334  1.0000
  C   C2616     1.0  0.70708  0.84070  0.19538  1.0000
  P   P88       1.0  0.73925  0.82090  0.17266  1.0000
  C   C2617     1.0  0.76970  0.81853  0.18987  1.0000
  C   C2618     1.0  0.73134  0.80499  0.16203  1.0000
  C   C2619     1.0  0.71272  0.80468  0.14326  1.0000
  C   C2620     1.0  0.70676  0.79242  0.13492  1.0000
  C   C2621     1.0  0.71920  0.78034  0.14529  1.0000
  C   C2622     1.0  0.73735  0.78048  0.16434  1.0000
  C   C2623     1.0  0.74322  0.79273  0.17286  1.0000
  C   C2624     1.0  0.77043  0.82260  0.21441  1.0000
  C   C2625     1.0  0.79345  0.81988  0.22827  1.0000
  C   C2626     1.0  0.81597  0.81315  0.21774  1.0000
  C   C2627     1.0  0.81556  0.80921  0.19324  1.0000
  C   C2628     1.0  0.79253  0.81186  0.17936  1.0000
  C   C2629     1.0  0.74220  0.83313  0.14539  1.0000
  C   C2630     1.0  0.71912  0.83923  0.13409  1.0000
  C   C2631     1.0  0.72096  0.84888  0.11340  1.0000
  C   C2632     1.0  0.74589  0.85255  0.10373  1.0000
  C   C2633     1.0  0.76901  0.84659  0.11481  1.0000
  C   C2634     1.0  0.76722  0.83694  0.13560  1.0000
  H   H2081     1.0  0.68299  0.85600  0.21356  1.0000
  H   H2082     1.0  0.65805  0.83957  0.24164  1.0000
  H   H2083     1.0  0.66845  0.81506  0.23945  1.0000
  H   H2084     1.0  0.70223  0.80686  0.20854  1.0000
  H   H2085     1.0  0.71804  0.84803  0.18362  1.0000
  H   H2086     1.0  0.70224  0.81381  0.13526  1.0000
  H   H2087     1.0  0.74644  0.77109  0.17290  1.0000
  H   H2088     1.0  0.75677  0.79251  0.18811  1.0000
  H   H2089     1.0  0.75314  0.82758  0.22323  1.0000
  H   H2090     1.0  0.79353  0.82252  0.24755  1.0000
  H   H2091     1.0  0.83346  0.81065  0.22888  1.0000
  H   H2092     1.0  0.83295  0.80384  0.18525  1.0000
  H   H2093     1.0  0.79230  0.80846  0.16061  1.0000
  H   H2094     1.0  0.69957  0.83667  0.14141  1.0000
  H   H2095     1.0  0.70295  0.85362  0.10503  1.0000
  H   H2096     1.0  0.74720  0.86010  0.08774  1.0000
  H   H2097     1.0  0.78833  0.84951  0.10735  1.0000
  H   H2098     1.0  0.78541  0.83265  0.14395  1.0000
  C   C2635     1.0  0.95945  0.89704  0.37899  1.0000
  H   H2099     1.0  0.56558  0.98391  0.00825  1.0000
  H   H2100     1.0  0.61964  0.90839  0.99113  1.0000
  H   H2101     1.0  0.71152  0.87111  0.37056  1.0000
  H   H2102     1.0  0.49982  0.84044  0.23498  1.0000
  H   H2103     1.0  0.72104  0.82632  0.26120  1.0000
  H   H2104     1.0  0.82145  0.97095  0.22046  1.0000
  H   H2105     1.0  0.98506  0.86707  0.42473  1.0000
  C   C2636     1.0  0.92715  0.98114  0.42352  1.0000
  H   H2106     1.0  0.68189  0.81551  0.33279  1.0000
  C   C2637     1.0  0.64772  0.94683  0.34578  1.0000
  C   C2638     1.0  0.69834  0.81996  0.32200  1.0000
  H   H2107     1.0  0.88472  0.83972  0.30561  1.0000
  C   C2639     1.0  0.99144  0.80593  0.31684  1.0000
  H   H2108     1.0  0.79518  0.78768  0.40503  1.0000
  H   H2109     1.0  0.75804  0.83460  0.28265  1.0000
  H   H2110     1.0  0.72868  0.98566  0.24663  1.0000
  C   C2640     1.0  0.50931  0.98754  0.99495  1.0000
  C   C2641     1.0  0.73668  0.85511  0.35545  1.0000
  C   C2642     1.0  0.96191  0.84169  0.39969  1.0000
  C   C2643     1.0  0.97324  0.82838  0.40316  1.0000
  C   C2644     1.0  0.96817  0.82039  0.42566  1.0000
  H   H2111     1.0  0.54408  0.89995  0.99588  1.0000
  C   C2645     1.0  0.94075  0.83887  0.44171  1.0000
  C   C2646     1.0  0.94573  0.84687  0.41922  1.0000
  H   H2112     1.0  0.90994  0.78945  0.42509  1.0000
  H   H2113     1.0  0.79282  0.85846  0.31257  1.0000
  C   C2647     1.0  0.71936  0.82451  0.33443  1.0000
  H   H2114     1.0  0.52260  0.94279  0.10512  1.0000
  C   C2648     1.0  0.50350  0.89628  0.08176  1.0000
  C   C2649     1.0  0.78523  0.94457  0.43913  1.0000
  C   C2650     1.0  0.95231  0.79982  0.37676  1.0000
  C   C2651     1.0  0.77790  0.81947  0.35897  1.0000
  H   H2115     1.0  0.51024  0.92923  0.14694  1.0000
  S   S362      1.0  0.89851  0.74402  0.33306  1.0000
  C   C2652     1.0  0.60546  0.98467  0.02057  1.0000
  C   C2653     1.0  0.72644  0.95796  0.38299  1.0000
  H   H2116     1.0  0.58024  0.83383  0.14166  1.0000
  H   H2117     1.0  0.74351  0.91769  0.40646  1.0000
  H   H2118     1.0  0.71902  0.82349  0.35492  1.0000
  H   H2119     1.0  0.70315  0.74164  0.16237  1.0000
  C   C2654     1.0  0.96779  0.88563  0.46876  1.0000
  H   H2120     1.0  0.87920  0.74463  0.26760  1.0000
  H   H2121     1.0  0.75855  0.96963  0.39228  1.0000
  H   H2122     1.0  0.93663  0.85700  0.41717  1.0000
  C   C2655     1.0  0.80640  0.93687  0.35611  1.0000
  C   C2656     1.0  0.83407  0.93764  0.35247  1.0000
  C   C2657     1.0  0.84432  0.94787  0.33585  1.0000
  C   C2658     1.0  0.82706  0.95741  0.32281  1.0000
  C   C2659     1.0  0.79956  0.95696  0.32686  1.0000
  C   C2660     1.0  0.78924  0.94680  0.34359  1.0000
  C   C2661     1.0  0.81464  0.90811  0.37423  1.0000
  C   C2662     1.0  0.80892  0.89846  0.35801  1.0000
  C   C2663     1.0  0.82568  0.88672  0.35646  1.0000
  C   C2664     1.0  0.84808  0.88448  0.37123  1.0000
  C   C2665     1.0  0.85402  0.89409  0.38718  1.0000
  C   C2666     1.0  0.83754  0.90589  0.38857  1.0000
  H   H2123     1.0  0.76902  0.92275  0.32763  1.0000
  H   H2124     1.0  0.84784  0.93050  0.36262  1.0000
  H   H2125     1.0  0.86569  0.94858  0.33347  1.0000
  H   H2126     1.0  0.83498  0.96547  0.31018  1.0000
  H   H2127     1.0  0.80629  0.75057  0.33528  1.0000
  C   C2667     1.0  0.72846  0.74802  0.29864  1.0000
  H   H2128     1.0  0.76954  0.80522  0.33272  1.0000
  H   H2129     1.0  0.60405  0.79128  0.11164  1.0000
  H   H2130     1.0  0.61902  0.91775  0.33801  1.0000
  S   S363      1.0  0.90175  0.87700  0.44097  1.0000
  H   H2131     1.0  0.50088  0.86045  0.14557  1.0000
  C   C2668     1.0  0.69892  0.82069  0.29562  1.0000
  H   H2132     1.0  0.63215  0.74133  0.26935  1.0000
  C   C2669     1.0  0.54007  0.74695  0.21830  1.0000
  H   H2133     1.0  0.78341  0.95507  0.44301  1.0000
  C   C2670     1.0  0.70240  0.96073  0.24148  1.0000
  H   H2134     1.0  0.85257  0.84222  0.26155  1.0000
  C   C2671     1.0  0.53985  0.79125  0.15475  1.0000
  H   H2135     1.0  0.76324  0.94905  0.26265  1.0000
  C   C2672     1.0  0.81063  0.82561  0.30354  1.0000
  H   H2136     1.0  0.82851  0.86188  0.27981  1.0000
  C   C2673     1.0  0.83709  0.84070  0.27619  1.0000
  C   C2674     1.0  0.77791  0.86538  0.37970  1.0000
  H   H2137     1.0  0.73909  0.95404  0.22276  1.0000
  H   H2138     1.0  0.95298  0.74784  0.33394  1.0000
  C   C2675     1.0  0.75969  0.92068  0.36793  1.0000
  H   H2139     1.0  0.98858  0.78910  0.36517  1.0000
  C   C2676     1.0  0.82359  0.85175  0.28655  1.0000
  C   C2677     1.0  0.83054  0.82765  0.28464  1.0000
  C   C2678     1.0  0.74561  0.97534  0.35455  1.0000
  H   H2140     1.0  0.80326  0.84970  0.36441  1.0000
  H   H2141     1.0  0.74809  0.88004  0.39245  1.0000
  S   S364      1.0  0.61908  0.98354  0.23417  1.0000
  H   H2142     1.0  0.68015  0.93687  0.29214  1.0000
  H   H2143     1.0  0.65056  0.91833  0.30069  1.0000
  C   C2679     1.0  0.66589  0.94714  0.32492  1.0000
  C   C2680     1.0  0.71376  0.91610  0.37966  1.0000
  C   C2681     1.0  0.72903  0.95573  0.24076  1.0000
  C   C2682     1.0  0.56479  0.83842  0.12940  1.0000
  H   H2144     1.0  0.58968  0.85384  0.11273  1.0000
  C   C2683     1.0  0.79056  0.74667  0.34778  1.0000
  H   H2145     1.0  0.98232  0.97804  0.35955  1.0000
  C   C2684     1.0  0.70863  0.96366  0.34124  1.0000
  C   C2685     1.0  0.78318  0.85430  0.36558  1.0000
  H   H2146     1.0  0.53508  0.84477  0.17537  1.0000
  H   H2147     1.0  0.99565  0.84496  0.44777  1.0000
  H   H2148     1.0  0.69173  0.96271  0.22411  1.0000
  C   C2686     1.0  0.80352  0.84974  0.30535  1.0000
  C   C2687     1.0  0.66694  0.93673  0.30879  1.0000
  H   H2149     1.0  0.94042  0.75700  0.38492  1.0000
  C   C2688     1.0  0.65011  0.92616  0.31356  1.0000
  C   C2689     1.0  0.72937  0.95496  0.28643  1.0000
  H   H2150     1.0  0.74002  0.95237  0.30361  1.0000
  H   H2151     1.0  0.53721  0.87574  0.13611  1.0000
  C   C2690     1.0  0.63229  0.92585  0.33452  1.0000
  C   C2691     1.0  0.76255  0.84887  0.35382  1.0000
  H   H2152     1.0  0.79052  0.98059  0.18732  1.0000
  H   H2153     1.0  0.72041  0.85129  0.34634  1.0000
  H   H2154     1.0  0.66884  0.96716  0.26449  1.0000
  C   C2692     1.0  0.79222  0.91754  0.42919  1.0000
  H   H2155     1.0  0.98212  0.84126  0.31984  1.0000
  H   H2156     1.0  0.69831  0.91418  0.39416  1.0000
  H   H2157     1.0  0.53242  0.74960  0.23664  1.0000
  C   C2693     1.0  0.73155  0.86641  0.36913  1.0000
  P   P89       1.0  0.68496  0.96173  0.31737  1.0000
  C   C2694     1.0  0.96374  0.86933  0.37272  1.0000
  C   C2695     1.0  0.65573  0.96229  0.11599  1.0000
  Fe  Fe182     1.0  0.63413  0.97483  0.19814  1.0000
  C   C2696     1.0  0.74140  0.83073  0.29394  1.0000
  C   C2697     1.0  0.79597  0.98674  0.20175  1.0000
  C   C2698     1.0  0.63119  0.91475  0.97787  1.0000
  H   H2158     1.0  0.59680  0.75832  0.28250  1.0000
  C   C2699     1.0  0.52047  0.79487  0.25987  1.0000
  C   C2700     1.0  0.57290  0.94899  0.99231  1.0000
  H   H2159     1.0  0.79808  0.81042  0.41898  1.0000
  C   C2701     1.0  0.79133  0.80934  0.40024  1.0000
  C   C2702     1.0  0.72040  0.82609  0.28161  1.0000
  H   H2160     1.0  0.68299  0.81679  0.28606  1.0000
  H   H2161     1.0  0.51041  0.85594  0.08580  1.0000
  H   H2162     1.0  0.91485  0.80819  0.39194  1.0000
  C   C2703     1.0  0.51434  0.78298  0.22329  1.0000
  P   P90       1.0  0.53236  0.81920  0.15308  1.0000
  H   H2163     1.0  0.94868  0.88749  0.46026  1.0000
  C   C2704     1.0  0.53957  0.83317  0.13011  1.0000
  C   C2705     1.0  0.78969  0.79649  0.39238  1.0000
  C   C2706     1.0  0.93364  0.85662  0.32806  1.0000
  C   C2707     1.0  0.73567  0.74851  0.24605  1.0000
  H   H2164     1.0  0.72536  0.74814  0.31887  1.0000
  C   C2708     1.0  0.97536  0.75227  0.29913  1.0000
  C   C2709     1.0  0.83860  0.75225  0.27440  1.0000
  H   H2165     1.0  0.50299  0.90257  0.09730  1.0000
  C   C2710     1.0  0.66365  0.98030  0.98675  1.0000
  C   C2711     1.0  0.92738  0.78936  0.41233  1.0000
  C   C2712     1.0  0.94650  0.77847  0.41398  1.0000
  C   C2713     1.0  0.65675  0.97652  0.06791  1.0000
  C   C2714     1.0  0.53117  0.90917  0.99476  1.0000
  H   H2166     1.0  0.79108  0.91308  0.46975  1.0000
  H   H2167     1.0  0.63167  0.96577  0.29684  1.0000
  C   C2715     1.0  0.91378  0.85372  0.31223  1.0000
  H   H2168     1.0  0.69169  0.96063  0.03589  1.0000
  H   H2169     1.0  0.69448  0.94816  0.36895  1.0000
  C   C2716     1.0  0.98822  0.89407  0.46108  1.0000
  C   C2717     1.0  0.59207  0.74804  0.28073  1.0000
  C   C2718     1.0  0.56713  0.74826  0.21218  1.0000
  P   P91       1.0  0.53951  0.94963  0.98112  1.0000
  C   C2719     1.0  0.97159  0.78897  0.37839  1.0000
  H   H2170     1.0  0.65599  0.95676  0.13448  1.0000
  C   C2720     1.0  0.50503  0.88022  0.04136  1.0000
  H   H2171     1.0  0.54565  0.76962  0.15707  1.0000
  H   H2172     1.0  0.72612  0.95201  0.40113  1.0000
  C   C2721     1.0  0.55285  0.97857  0.09623  1.0000
  C   C2722     1.0  0.93672  0.88976  0.38089  1.0000
  C   C2723     1.0  0.50984  0.96153  0.01966  1.0000
  C   C2724     1.0  0.95170  0.82559  0.44480  1.0000
  H   H2173     1.0  0.64458  0.95809  0.05484  1.0000
  C   C2725     1.0  0.98646  0.87681  0.37010  1.0000
  C   C2726     1.0  0.52091  0.93184  0.07282  1.0000
  H   H2174     1.0  0.95768  0.90767  0.38199  1.0000
  H   H2175     1.0  0.55515  0.86474  0.08473  1.0000
  H   H2176     1.0  0.53091  0.89951  0.14609  1.0000
  C   C2727     1.0  0.85937  0.74218  0.27446  1.0000
  C   C2728     1.0  0.93877  0.87599  0.37770  1.0000
  H   H2177     1.0  0.99051  0.76654  0.34506  1.0000
  H   H2178     1.0  0.64444  0.94553  0.09716  1.0000
  C   C2729     1.0  0.97821  0.74823  0.39922  1.0000
  H   H2179     1.0  0.51333  0.97407  0.17917  1.0000
  H   H2180     1.0  0.61226  0.97521  0.01329  1.0000
  H   H2181     1.0  0.89448  0.82474  0.34428  1.0000
  H   H2182     1.0  0.74294  0.74543  0.13369  1.0000
  C   C2730     1.0  0.57771  0.74546  0.18836  1.0000
  H   H2183     1.0  0.66536  0.98086  0.12986  1.0000
  C   C2731     1.0  0.72780  0.97317  0.33620  1.0000
  C   C2732     1.0  0.74479  0.96783  0.37804  1.0000
  C   C2733     1.0  0.91415  0.96041  0.44647  1.0000
  H   H2184     1.0  0.54601  0.96898  0.09222  1.0000
  H   H2185     1.0  0.56368  0.92192  0.98846  1.0000
  H   H2186     1.0  0.96385  0.76168  0.29432  1.0000
  C   C2734     1.0  0.60353  0.94312  0.02628  1.0000
  H   H2187     1.0  0.90976  0.86021  0.29515  1.0000
  H   H2188     1.0  0.55048  0.75203  0.29031  1.0000
  H   H2189     1.0  0.52219  0.77620  0.20964  1.0000
  C   C2735     1.0  0.93934  0.84806  0.34992  1.0000
  H   H2190     1.0  0.91751  0.89482  0.38515  1.0000
  C   C2736     1.0  0.56586  0.74447  0.28519  1.0000
  C   C2737     1.0  0.81342  0.98132  0.22034  1.0000
  C   C2738     1.0  0.51057  0.93903  0.15402  1.0000
  C   C2739     1.0  0.52554  0.85094  0.09796  1.0000
  C   C2740     1.0  0.92382  0.96735  0.42426  1.0000
  C   C2741     1.0  0.97728  0.79053  0.28853  1.0000
  H   H2191     1.0  0.98657  0.98645  0.46580  1.0000
  C   C2742     1.0  0.51860  0.87937  0.14503  1.0000
  H   H2192     1.0  0.72862  0.97904  0.31808  1.0000
  C   C2743     1.0  0.78610  0.93443  0.45914  1.0000
  H   H2193     1.0  0.53440  0.98031  0.22897  1.0000
  C   C2744     1.0  0.99777  0.84591  0.35522  1.0000
  P   P92       1.0  0.99319  0.76406  0.40017  1.0000
  H   H2194     1.0  0.77336  0.98245  0.26502  1.0000
  C   C2745     1.0  0.50944  0.93864  0.09284  1.0000
  H   H2195     1.0  0.69178  0.75998  0.29093  1.0000
  C   C2746     1.0  0.96919  0.74444  0.32149  1.0000
  H   H2196     1.0  0.59878  0.74633  0.18388  1.0000
  H   H2197     1.0  0.94719  0.81932  0.46194  1.0000
  C   C2747     1.0  0.98369  0.98786  0.34932  1.0000
  H   H2198     1.0  0.98530  0.82401  0.38820  1.0000
  C   C2748     1.0  0.78837  0.75037  0.37256  1.0000
  H   H2199     1.0  0.93384  0.98657  0.40599  1.0000
  H   H2200     1.0  0.83357  0.98508  0.25367  1.0000
  H   H2201     1.0  0.76716  0.74809  0.40865  1.0000
  C   C2749     1.0  0.61191  0.73849  0.27340  1.0000
  H   H2202     1.0  0.51045  0.95159  0.02972  1.0000
  H   H2203     1.0  0.50575  0.87388  0.02591  1.0000
  C   C2750     1.0  0.90757  0.96728  0.46789  1.0000
  C   C2751     1.0  0.53404  0.74028  0.17641  1.0000
  C   C2752     1.0  0.56112  0.74159  0.17039  1.0000
  C   C2753     1.0  0.50477  0.92624  0.05658  1.0000
  H   H2204     1.0  0.98914  0.74886  0.45051  1.0000
  P   P93       1.0  0.65709  0.98576  0.03705  1.0000
  C   C2754     1.0  0.61776  0.98620  0.30138  1.0000
  H   H2205     1.0  0.59913  0.98539  0.29237  1.0000
  H   H2206     1.0  0.56934  0.73952  0.15184  1.0000
  C   C2755     1.0  0.50353  0.90850  0.99702  1.0000
  H   H2207     1.0  0.95828  0.94140  0.46833  1.0000
  S   S365      1.0  0.67003  0.98707  0.19351  1.0000
  Fe  Fe183     1.0  0.59308  0.95300  0.82845  1.0000
  S   S366      1.0  0.59644  0.95974  0.86693  1.0000
  S   S367      1.0  0.55306  0.94479  0.81952  1.0000
  Fe  Fe184     1.0  0.65559  0.95465  0.81709  1.0000
  S   S368      1.0  0.66144  0.96089  0.85637  1.0000
  S   S369      1.0  0.68790  0.95439  0.78380  1.0000
  Fe  Fe185     1.0  0.63250  0.94525  0.87091  1.0000
  S   S370      1.0  0.62598  0.92948  0.90431  1.0000
  Fe  Fe186     1.0  0.62436  0.97452  0.84919  1.0000
  S   S371      1.0  0.62895  0.93807  0.83232  1.0000
  S   S372      1.0  0.61896  0.96897  0.80980  1.0000
  Fe  Fe187     1.0  0.89484  0.95155  0.67994  1.0000
  S   S373      1.0  0.88566  0.94949  0.63966  1.0000
  S   S374      1.0  0.93632  0.95895  0.68644  1.0000
  Fe  Fe188     1.0  0.83541  0.94637  0.69891  1.0000
  S   S375      1.0  0.82355  0.94355  0.65928  1.0000
  S   S376      1.0  0.80837  0.94426  0.73604  1.0000
  Fe  Fe189     1.0  0.86302  0.93172  0.65431  1.0000
  S   S377      1.0  0.87344  0.91262  0.63434  1.0000
  Fe  Fe190     1.0  0.84748  0.96146  0.64747  1.0000
  S   S378      1.0  0.87387  0.93305  0.69485  1.0000
  S   S379      1.0  0.85752  0.96507  0.68690  1.0000
  H   H2208     1.0  0.66947  0.85207  0.78429  1.0000
  C   C2756     1.0  0.53844  0.95089  0.94711  1.0000
  H   H2209     1.0  0.57610  0.91362  0.88408  1.0000
  C   C2757     1.0  0.98603  0.89942  0.68001  1.0000
  H   H2210     1.0  0.69912  0.86009  0.81489  1.0000
  C   C2758     1.0  0.66882  0.90528  0.84137  1.0000
  H   H2211     1.0  0.53185  0.94931  0.87481  1.0000
  H   H2212     1.0  0.68884  0.93055  0.97285  1.0000
  S   S380      1.0  0.83255  0.90065  0.52672  1.0000
  C   C2759     1.0  0.94281  0.93316  0.60695  1.0000
  C   C2760     1.0  0.86236  0.90991  0.60393  1.0000
  C   C2761     1.0  0.87462  0.89923  0.59119  1.0000
  C   C2762     1.0  0.86636  0.89657  0.56724  1.0000
  C   C2763     1.0  0.84485  0.90422  0.55615  1.0000
  C   C2764     1.0  0.83217  0.91474  0.56913  1.0000
  C   C2765     1.0  0.84120  0.91775  0.59261  1.0000
  H   H2213     1.0  0.89042  0.89286  0.60004  1.0000
  H   H2214     1.0  0.87608  0.88832  0.55774  1.0000
  H   H2215     1.0  0.81543  0.92069  0.56086  1.0000
  H   H2216     1.0  0.83139  0.92595  0.60219  1.0000
  C   C2766     1.0  0.72172  0.95180  0.77094  1.0000
  C   C2767     1.0  0.72688  0.95384  0.74455  1.0000
  C   C2768     1.0  0.75303  0.95187  0.73357  1.0000
  C   C2769     1.0  0.77474  0.94765  0.74873  1.0000
  C   C2770     1.0  0.76956  0.94562  0.77512  1.0000
  C   C2771     1.0  0.74349  0.94772  0.78611  1.0000
  H   H2217     1.0  0.71049  0.95698  0.73241  1.0000
  H   H2218     1.0  0.75629  0.95346  0.71329  1.0000
  H   H2219     1.0  0.78592  0.94239  0.78724  1.0000
  H   H2220     1.0  0.74029  0.94618  0.80638  1.0000
  C   C2772     1.0  0.63726  0.92641  0.93558  1.0000
  C   C2773     1.0  0.62245  0.91826  0.95321  1.0000
  C   C2774     1.0  0.93744  0.96829  0.56702  1.0000
  H   H2221     1.0  0.73486  0.90907  0.79723  1.0000
  C   C2775     1.0  0.94803  0.96541  0.54325  1.0000
  C   C2776     1.0  0.66100  0.93108  0.94292  1.0000
  H   H2222     1.0  0.60426  0.91447  0.94767  1.0000
  C   C2777     1.0  0.68196  0.91230  0.82088  1.0000
  H   H2223     1.0  0.77299  0.91487  0.76852  1.0000
  H   H2224     1.0  0.67273  0.93723  0.92948  1.0000
  S   S381      1.0  0.86802  0.86740  0.49369  1.0000
  C   C2778     1.0  0.51884  0.95090  0.82329  1.0000
  C   C2779     1.0  0.69047  0.96124  0.97200  1.0000
  H   H2225     1.0  0.54361  0.98077  0.89555  1.0000
  H   H2226     1.0  0.52611  0.97186  0.82289  1.0000
  H   H2227     1.0  0.83617  0.94904  0.53727  1.0000
  C   C2780     1.0  0.73157  0.91164  0.77734  1.0000
  H   H2228     1.0  0.70281  0.88448  0.81692  1.0000
  P   P94       1.0  0.67758  0.90831  0.78897  1.0000
  H   H2229     1.0  0.66685  0.93440  0.75929  1.0000
  C   C2781     1.0  0.91403  0.98081  0.52304  1.0000
  C   C2782     1.0  0.97031  0.95230  0.68905  1.0000
  C   C2783     1.0  0.57092  0.98399  0.92382  1.0000
  H   H2230     1.0  0.98386  0.95314  0.76076  1.0000
  H   H2231     1.0  0.90650  0.97929  0.58732  1.0000
  H   H2232     1.0  0.94540  0.96953  0.50320  1.0000
  H   H2233     1.0  0.93344  0.87837  0.53697  1.0000
  H   H2234     1.0  0.94416  0.98676  0.67570  1.0000
  C   C2784     1.0  0.67063  0.90904  0.86590  1.0000
  C   C2785     1.0  0.64804  0.93048  0.76576  1.0000
  C   C2786     1.0  0.65819  0.88593  0.77023  1.0000
  H   H2235     1.0  0.95344  0.80873  0.51823  1.0000
  H   H2236     1.0  0.94094  0.86803  0.58042  1.0000
  C   C2787     1.0  0.51380  0.95670  0.90889  1.0000
  H   H2237     1.0  0.96520  0.95834  0.54178  1.0000
  C   C2788     1.0  0.53552  0.91581  0.87221  1.0000
  P   P95       1.0  0.94029  0.92508  0.55813  1.0000
  H   H2238     1.0  0.58386  0.97518  0.92005  1.0000
  C   C2789     1.0  0.51106  0.96462  0.82400  1.0000
  C   C2790     1.0  0.93666  0.88468  0.55184  1.0000
  H   H2239     1.0  0.94813  0.88255  0.61460  1.0000
  C   C2791     1.0  0.97027  0.90270  0.65907  1.0000
  C   C2792     1.0  0.70584  0.91215  0.76798  1.0000
  C   C2793     1.0  0.69626  0.92334  0.82527  1.0000
  H   H2240     1.0  0.86182  0.95742  0.57055  1.0000
  C   C2794     1.0  0.72440  0.91803  0.72566  1.0000
  H   H2241     1.0  0.65992  0.90387  0.88164  1.0000
  C   C2795     1.0  0.68536  0.91988  0.87012  1.0000
  C   C2796     1.0  0.55771  0.94355  0.93306  1.0000
  H   H2242     1.0  0.89927  0.91915  0.52397  1.0000
  H   H2243     1.0  0.68612  0.92297  0.88907  1.0000
  H   H2244     1.0  0.62140  0.90398  0.80063  1.0000
  H   H2245     1.0  0.70891  0.93570  0.85290  1.0000
  C   C2797     1.0  0.68757  0.86730  0.80252  1.0000
  C   C2798     1.0  0.68951  0.88112  0.80372  1.0000
  H   H2246     1.0  0.90614  0.94713  0.58019  1.0000
  C   C2799     1.0  0.94449  0.90104  0.59022  1.0000
  H   H2247     1.0  0.94633  0.96350  0.58407  1.0000
  H   H2248     1.0  0.57092  0.93798  0.89625  1.0000
  S   S382      1.0  0.89877  0.89610  0.48824  1.0000
  C   C2800     1.0  0.55560  0.94337  0.90705  1.0000
  H   H2249     1.0  0.54114  0.91833  0.85247  1.0000
  C   C2801     1.0  0.53360  0.94982  0.89495  1.0000
  H   H2250     1.0  0.57426  0.93775  0.94207  1.0000
  H   H2251     1.0  0.63673  0.95400  0.97200  1.0000
  H   H2252     1.0  0.70536  0.92931  0.80966  1.0000
  H   H2253     1.0  0.95562  0.83363  0.51477  1.0000
  H   H2254     1.0  0.64708  0.89301  0.75727  1.0000
  C   C2802     1.0  0.70256  0.91496  0.74187  1.0000
  H   H2255     1.0  0.65657  0.89716  0.83838  1.0000
  C   C2803     1.0  0.93650  0.97168  0.52137  1.0000
  C   C2804     1.0  0.94328  0.90669  0.66261  1.0000
  C   C2805     1.0  0.97483  0.90014  0.70446  1.0000
  C   C2806     1.0  0.94003  0.90701  0.56565  1.0000
  H   H2256     1.0  0.66987  0.97661  0.94755  1.0000
  H   H2257     1.0  0.62556  0.94847  0.75118  1.0000
  C   C2807     1.0  0.95120  0.93528  0.50792  1.0000
  C   C2808     1.0  0.54801  0.91054  0.91558  1.0000
  H   H2258     1.0  0.89925  0.96184  0.48468  1.0000
  H   H2259     1.0  0.59121  0.95744  0.95715  1.0000
  H   H2260     1.0  0.99466  0.84400  0.49434  1.0000
  C   C2809     1.0  0.50121  0.91217  0.90541  1.0000
  C   C2810     1.0  0.98159  0.93721  0.57937  1.0000
  H   H2261     1.0  0.56331  0.90881  0.92942  1.0000
  C   C2811     1.0  0.94503  0.88703  0.59552  1.0000
  Fe  Fe191     1.0  0.85741  0.88967  0.49690  1.0000
  H   H2262     1.0  0.99068  0.79436  0.50038  1.0000
  C   C2812     1.0  0.64720  0.91780  0.77948  1.0000
  C   C2813     1.0  0.69815  0.92704  0.84980  1.0000
  C   C2814     1.0  0.59423  0.95328  0.97639  1.0000
  C   C2815     1.0  0.87034  0.94919  0.56010  1.0000
  C   C2816     1.0  0.50861  0.91523  0.87981  1.0000
  H   H2263     1.0  0.95354  0.88293  0.82371  1.0000
  H   H2264     1.0  0.96238  0.93138  0.69148  1.0000
  H   H2265     1.0  0.99199  0.91272  0.54299  1.0000
  C   C2817     1.0  0.54812  0.98724  0.90982  1.0000
  H   H2266     1.0  0.92318  0.92937  0.61053  1.0000
  H   H2267     1.0  0.51595  0.90814  0.94318  1.0000
  H   H2268     1.0  0.58192  0.94047  0.76759  1.0000
  H   H2269     1.0  0.94476  0.93904  0.64482  1.0000
  H   H2270     1.0  0.96160  0.85810  0.76165  1.0000
  S   S383      1.0  0.83390  0.97745  0.61721  1.0000
  C   C2818     1.0  0.62456  0.93853  0.76115  1.0000
  H   H2271     1.0  0.58002  0.91828  0.79217  1.0000
  C   C2819     1.0  0.95501  0.93854  0.62648  1.0000
  C   C2820     1.0  0.93646  0.89864  0.54644  1.0000
  H   H2272     1.0  0.76656  0.92078  0.72287  1.0000
  C   C2821     1.0  0.75336  0.91470  0.76108  1.0000
  C   C2822     1.0  0.65630  0.87209  0.76906  1.0000
  C   C2823     1.0  0.67448  0.89052  0.78786  1.0000
  C   C2824     1.0  0.55523  0.91317  0.89000  1.0000
  H   H2273     1.0  0.64362  0.86860  0.75547  1.0000
  C   C2825     1.0  0.51634  0.95745  0.93481  1.0000
  C   C2826     1.0  0.52113  0.91022  0.92331  1.0000
  H   H2274     1.0  0.50434  0.93111  0.82348  1.0000
  C   C2827     1.0  0.99373  0.94256  0.59897  1.0000
  C   C2828     1.0  0.95592  0.93248  0.58313  1.0000
  C   C2829     1.0  0.62247  0.91340  0.78892  1.0000
  C   C2830     1.0  0.89558  0.94317  0.56572  1.0000
  C   C2831     1.0  0.67090  0.86278  0.78526  1.0000
  H   H2275     1.0  0.93395  0.90284  0.52714  1.0000
  H   H2276     1.0  0.72167  0.92063  0.70566  1.0000
  H   H2277     1.0  0.68310  0.91496  0.73404  1.0000
  C   C2832     1.0  0.60004  0.93403  0.77039  1.0000
  C   C2833     1.0  0.59899  0.92147  0.78423  1.0000
  C   C2834     1.0  0.74975  0.91800  0.73530  1.0000
  C   C2835     1.0  0.90660  0.93229  0.55278  1.0000
  H   H2278     1.0  0.93244  0.94126  0.50885  1.0000
  C   C2836     1.0  0.85579  0.90088  0.72899  1.0000
  C   C2837     1.0  0.84226  0.91017  0.74396  1.0000
  C   C2838     1.0  0.85656  0.91770  0.75879  1.0000
  C   C2839     1.0  0.88442  0.91628  0.75810  1.0000
  C   C2840     1.0  0.89822  0.90764  0.74180  1.0000
  C   C2841     1.0  0.88366  0.89945  0.72824  1.0000
  P   P96       1.0  0.93426  0.90619  0.73978  1.0000
  C   C2842     1.0  0.94892  0.92103  0.74833  1.0000
  C   C2843     1.0  0.94423  0.89178  0.76104  1.0000
  C   C2844     1.0  0.94527  0.89307  0.78703  1.0000
  C   C2845     1.0  0.95262  0.88187  0.80368  1.0000
  C   C2846     1.0  0.95866  0.86928  0.79453  1.0000
  C   C2847     1.0  0.95716  0.86788  0.76872  1.0000
  C   C2848     1.0  0.94982  0.87907  0.75202  1.0000
  C   C2849     1.0  0.98475  0.91936  0.52707  1.0000
  H   H2279     1.0  0.94758  0.90706  0.60536  1.0000
  H   H2280     1.0  0.66154  0.98817  0.88672  1.0000
  C   C2850     1.0  0.94842  0.94539  0.74825  1.0000
  C   C2851     1.0  0.93620  0.93390  0.74295  1.0000
  C   C2852     1.0  0.94770  0.90415  0.70815  1.0000
  H   H2281     1.0  0.96433  0.86060  0.80745  1.0000
  H   H2282     1.0  0.50067  0.96278  0.94523  1.0000
  C   C2853     1.0  0.97191  0.82726  0.50722  1.0000
  C   C2854     1.0  0.90332  0.98350  0.54707  1.0000
  Fe  Fe192     1.0  0.90870  0.87434  0.48232  1.0000
  H   H2283     1.0  0.84469  0.89503  0.71749  1.0000
  H   H2284     1.0  0.82073  0.91169  0.74384  1.0000
  H   H2285     1.0  0.84596  0.92495  0.77026  1.0000
  H   H2286     1.0  0.89502  0.92217  0.76988  1.0000
  H   H2287     1.0  0.89378  0.89223  0.71647  1.0000
  H   H2288     1.0  0.94037  0.90274  0.79440  1.0000
  C   C2855     1.0  0.93212  0.90755  0.68697  1.0000
  S   S384      1.0  0.94707  0.86378  0.49551  1.0000
  H   H2289     1.0  0.93082  0.90933  0.64657  1.0000
  H   H2290     1.0  0.88306  0.98228  0.63985  1.0000
  H   H2291     1.0  0.98541  0.91017  0.76116  1.0000
  C   C2856     1.0  0.97237  0.87468  0.48683  1.0000
  C   C2857     1.0  0.89166  0.92755  0.53418  1.0000
  H   H2292     1.0  0.93871  0.95530  0.74346  1.0000
  H   H2293     1.0  0.91732  0.93519  0.73377  1.0000
  H   H2294     1.0  0.91145  0.91109  0.68893  1.0000
  H   H2295     1.0  0.94838  0.87776  0.73214  1.0000
  C   C2858     1.0  0.85589  0.94450  0.54134  1.0000
  H   H2296     1.0  0.69849  0.95558  0.95661  1.0000
  C   C2859     1.0  0.96592  0.93549  0.48491  1.0000
  H   H2297     1.0  0.85508  0.92979  0.51428  1.0000
  C   C2860     1.0  0.94092  0.87886  0.57635  1.0000
  C   C2861     1.0  0.97755  0.93845  0.69175  1.0000
  H   H2298     1.0  0.97909  0.90231  0.64016  1.0000
  C   C2862     1.0  0.96034  0.92700  0.52908  1.0000
  C   C2863     1.0  0.97070  0.81327  0.50909  1.0000
  C   C2864     1.0  0.86659  0.93371  0.52835  1.0000
  C   C2865     1.0  0.91498  0.97723  0.56889  1.0000
  C   C2866     1.0  0.97458  0.91990  0.75801  1.0000
  H   H2299     1.0  0.98546  0.97202  0.68739  1.0000
  C   C2867     1.0  0.67008  0.92729  0.96749  1.0000
  C   C2868     1.0  0.97390  0.94418  0.75789  1.0000
  H   H2300     1.0  0.99245  0.93680  0.56144  1.0000
  C   C2869     1.0  0.98044  0.94323  0.62251  1.0000
  H   H2301     1.0  0.98991  0.94730  0.63776  1.0000
  C   C2870     1.0  0.67425  0.97306  0.96691  1.0000
  C   C2871     1.0  0.99413  0.83316  0.49549  1.0000
  H   H2302     1.0  0.78465  0.93704  0.47851  1.0000
  C   C2872     1.0  0.84873  0.98538  0.48417  1.0000
  C   C2873     1.0  0.99061  0.96129  0.68939  1.0000
  H   H2303     1.0  0.53073  0.97840  0.96441  1.0000
  H   H2304     1.0  0.98750  0.89789  0.72043  1.0000
  C   C2874     1.0  0.82102  0.98743  0.48672  1.0000
  C   C2875     1.0  0.99011  0.92775  0.48307  1.0000
  C   C2876     1.0  0.99165  0.80521  0.49899  1.0000
  C   C2877     1.0  0.98701  0.93144  0.76269  1.0000
  C   C2878     1.0  0.99550  0.98091  0.48216  1.0000
  C   C2879     1.0  0.99725  0.87244  0.49773  1.0000
  C   C2880     1.0  0.99814  0.96684  0.48396  1.0000
