data_image0
_chemical_formula_structural       FeSFeSCHSC2HFeS2FeS2FeC3SC2HC2SCHCHC4SH3C8H4C6HCHCHCH3CPH2C2HC2H2CSCSC3FeHCHC4H3C2HCH2C4HCHCPHCH4CFeC2HC4H7CHCH2C3H2CH2C3H2C3HCH2CH2PHC2HCHSH3C3H2FeC2H3C2SC2HCH3C7H2CHCH2CHC2HC2H3C3HC2H2C3H3PHCHC2HSFeS2FeH2CS2FeS2FeCFeHS2CH5SHCH2CHC10H4C2HC3HCHCHC2PHSHC2HCHFeCSCHC2H2C5HC3HC3HCH4CH2FeHC3HC5HC2H2C7HCH3CHC10SH2CPHCH2CH3CH5C2HC3PC2HCHFeC3H4C2HCH3CH3C3HC2HCHCHC4HC3HC2HCHCHCHC2H3CHSCH2CH2CPH4CH4C4H2CHSFeS2FeSFeHSH4CHFeS3FeS2HC2SC2HFeS2FeHFe2SCH4SH2CHC6H4CH2CSC2H2CH3C7H5C2HC2H2C3H2SC6H2C6HCH2C6H2C6PC4FeC4H2C7H6CH4C3H6C2H4SC2H2C2HC3HCHSH3CHC2FeHSH3CPC3H4C13H2C4H3FeH2C2PC9H6C8PC3HC12H8CH8FeHSC3S2H2CHC2HCHCHSHCH3CH7C3HC3HC2SCH4CHCSCH3C4HC7H3CHCHCHCHCH2CH2C2H3PC4HPHC3HPH2C3HC2H2C3HSC5H3C4H2C7H2CH3CHCHSC2HCFeC2HPCHCHCPCHCHCHC3H2CH3C4HCHCHC2H2C3SC5HCHCH4C2HC2H2CFeHS3HCSHS2H2FeHC2FeS2FeSCFeSFe2SHFe2S2FeSFeS3FeS2CFeS2C2SHFeC3H3CH2C6H2C2HC9H4C6H3C6H4CHSH2CSH4C2H2CH2C8H4S3CH2CH3CPCH3FeH2CHC6HC5HCHFeC2H3C6PC18H16CH3CH2SC7PC5SC12H7C3H10SCHC2H3CHC6HSHC2H7C6PC3HC2HC2SC6H2CH3C4HC2H8C4HCPHC2HC2H2CH2CH3FeC6SHCHFeHSH3CHCH4CH2CHC2H4C6H2CH4C2SHCHPCHC4HC2HC10HC3HFeHC2H3CHC3H4CH2C5H2C2FeC2H2PSHSHCHCHSC2PC2SH4C2HC3FeCHCFeS2FeSHSHSHCH3C3HC6H4C6H3C5H4CHC2HCHC2SH7PHC2HCH2FeH2CH2C3H2SH3FeC5H4C4H3CH2C4SCHCHC6HSHC3H2FeC2H2CHCHC3H2CHC4HCH5CH4C2HCHC4SC4HCHFeCH2CHCPCSHC2H2CFeCHC3SC2H5C3FeHSC2FeSCS2FeHSCS2C4HC2HC6H4C4H2CHCHCHC13H2C2H6CH2SH3C2H2CHCH10C2SC5H2C4H4CHCP3H2CPC2H3C5HCH3C4HC2SCHCHC5HCHC3SHPHC3H5C4HCH4C2HCHC2H4CH2C2H2CHC6H2C2H2CHCH2CH2C2H4CH2C2HSH4C3SC3SCSHCPHC2HFeS2FeHFeCS2CSCHSCSHFeS2FeSFeS3CHSFeSFeS2Fe2CSFeS2FeSFeS3C3H2C7H4C6H3C2HCHC3H2C3H3C6H4C2HCH4C6H2FeCH2PC2H2CHSC6H5C8H7SHC4PC16PH14C4H4C2H3CHC4H2C2HC2HC3H2C2HC2HC2HCHCH2CH2C5PC4H2C4HC7H4CH2CFeHCHC5H9C3SCHCH4CHCS2C2HC2SC6H2CH2C2HCSCH4CH3CHCHC4FeCH2C2HCHCPC5H2PH3CH3CHPFeH2CHCHC2H2SC2H5CHCHCHC3HC4HC2HC2PCSHCH2CHCHCHS2C2H3C2HC4HC3H2CH2CHC3H3CHCHCHC2SC5FeCHCFeHC4FeH3SCHC3SCHFeS2FeS2FeSFeCS2HC2HCPCFeS2FeCSHFeS3FeSH2C3HSCFeS2FeH2CHC2HSH2FeS2C2HCSCHCSCPCH2C2PCH2C6H3C5HCH3C7H4C5H3C8H3C6HCH2CH3C2H2CHC7H2C2H2CH2SC2HCHCHC4H2C2HC8PC17H13SCH2C2HC3PC4H2C6H2CH8CHCSC4PC9HC5HC2HCH7CHCH2CH3SCHCSC6PC10H3CH10CH2C6PC18H16SCH2C3H11CHC2SC2HCH2C3H3CH2CH2C2H2CHCHC2HCH3SC2H2C2HC4SHCHCH2C4H3CHCH7C7HC2H5C3HCHCHC2HFe3CFeSCSFeSCFeH2FeS2FeS2FeSFeHS2HCHC5H2C3H2C2H2C7H3C6HCHC6H7C6H3CHCHCH5SH2C2H6CH2C2HFeC3HCPCPC7HC2HSCHC2HC5HPC4H3CHCHCH3C2H2CHCSCHCH4C2HC3HCHCH4CH2PC3SHC2HC2H2C3HC4SFeS2CHFeC2SFeS2CHFeHS2PCHCS2FeCH4CH4C6H4C2HC3HCH2C2HCH4C2HCH2CH2FeHCH3CHCHCHC6HPC3HC6HCSCH3FeCHC2HC2H2C2HC2SCH2CHCH2C3H4C2H2C3H5CHCHC2H4C3HC2PC2HCHC5HCHC2PHC2HFeHC2HCSC3HC2HC3PCFeCHCHC2HCHC2H2C2H2C2H2CH4SFeS2FeSFeHSH5C2S3FeS2H2CSC2HFeS2FeHFe2SH4SCHCH2C6H4C2H4CHCSCH2C7H5SCH2CHC5H2CHC4H2C6HCH2C6HFeCH2C6PC2HCHCHC4HCH2FeCH8C2H2CH2CHSHCH3CSCHC9H9C4H2C6PC6HC5HC3H6CH4CSC9PC15H2CH7CH7C2H3C2H2C5H4CHC6HC2H2FeH2CHFeC5PC16H13CHCHCH2C5FeC2SHSHCHC4PC2HC3H2C3HC2HC5SC3P2H2SC3H4CH3C3H2CSC2HC2H4C3HCH7SC2HC2HC2H3C2HC2H3C2HCHC2SCHCH4C2HCHC2FePCHC2HC2SHSCSH4SCH3FeHSCSHC2HS2HC2FeHCFeS2CSHFeSFe2S2Fe2S2FeSFeS3FeS2HFeS2C2H3C7HSC6H2CHFeCH2C6HCHC8HC7H5SFeHC5HSHSH2CH4C6H4S3CFeC6PC4SC12H18CH3CHC6HCFeH6C4H4C3PCH4C2H2C2H2C2H2C2HPC17H4PCH2C3H4CFeHPH2C2HC4HPC9H2CH4C6PC18H16SCH2C6PC3H2CHC7SH9CSH7C9HCFeHCH2C3H2CH3FeCHCH2CHC2HSCSC4H3CHC2H2CHCHC3FeHSCH3C2H3CFeHC3FeHCFeCH3CSHSHSC2HC3H2CHC2H3CHCH7C2H2C2H4CHFeHCSFeS2FeSH2CSC3SPHC9H4C5HC2H3CSHC2H2C3H2C4HCH3C3HCHSC4H2C2H2C2HCHCHC2H2CH2CSC2HC3HCHC2HC3H2CH3FeCHC6PC3H2CHCHC6HCH6C3HSC3H4SH4CH3C2HCH2CH3C3HC2HC3H2SHSCH2CH4SHCHC2H4C3SCHFeSCS2CPSH2SFeH3C10H4CHC4HCHCHC2H2C8H4C3HFeH3CH4SHCHCHCHC4H3C9FeH2C3PH2FeCH3CH3CHCH2CH3CHC2H2C2SHC2H3C3HCHCFeH3CH3C4H2CHFePCH2C2HSHCHCPC2HC7H4C5H5SC3HCH3CFeS2FeCFeCS2H2CHSHSFe2S2FeCFeS3HCSFeSFeS2Fe2HSFeS2FeSFeS3C3FeC8H4C6H4C7SH2CHSCHC6H4PC2HC2H2CHCHC3H3CH2SC2HCSC7H4C6PC18H11SH11SC4PC10HC2HC5HCH8CH8C2H2C4PC12H11C6HC6PC2HCH2C12HCSH2CHCH10C6PC5HC6HCH8SH2CHC2HC2H3C2FeH2CHCPHSCHC2HC3HC5HCH2C2H2CHC3H2SCHCH2C2HSH3C2H5CHCHSH2CHC3H2C2HC2HC5HCHCHCH2CHCHC3SHCHCHCH2CH3C2H2CH6PCHC2H2CSCH2CSHFeCHSH3SFe2S2FeSCHSH2C2H2C2FeS2FeS2Fe2S3FeH3CFeH2SHFeS3H2C2H3SHCFeS2HC2HC3HCPSHCHCHCH2C7H4C6H3C7H4C6H4C6H3C7HC2H2CHSCSC2S2C6HCH3C5H5C2H2C3HCHCHCH2C6PC7H2CHC3HC3HCH11SHCH2C2PC3H2C13H3C3H4CH7C4HCH2FeH2CHC6PC3HC10H12SH7CH2FeCHPC2H2SC7S2C2H3CH4C2HC2HC6PC18H4CHPHSHC2PCH3C4H4CHC3S2HC3H2SHC4H2C3H5C2HC3HCH3C2HFeHCH3CH2SC5HCHC4SCHC2H2CH2C3HCH2CH2C2HC2H2FeC2
_chemical_formula_sum              "Fe192 S384 C2880 H2304 P96"
_cell_length_a       47.3111
_cell_length_b       48.2839
_cell_length_c       45.426
_cell_angle_alpha    85.9553
_cell_angle_beta     87.9135
_cell_angle_gamma    86.4107

_space_group_name_H-M_alt    "P 1"
_space_group_IT_number       1

loop_
  _space_group_symop_operation_xyz
  'x, y, z'

loop_
  _atom_site_type_symbol
  _atom_site_label
  _atom_site_symmetry_multiplicity
  _atom_site_fract_x
  _atom_site_fract_y
  _atom_site_fract_z
  _atom_site_occupancy
  Fe  Fe1       1.0  0.22766  0.42352  0.44124  1.0000
  S   S1        1.0  0.19657  0.39240  0.42787  1.0000
  Fe  Fe2       1.0  0.22301  0.43894  0.01865  1.0000
  S   S2        1.0  0.17883  0.42307  0.01370  1.0000
  C   C1        1.0  0.10705  0.17228  0.25588  1.0000
  H   H1        1.0  0.20082  0.43622  0.19898  1.0000
  S   S3        1.0  0.03961  0.33187  0.32129  1.0000
  C   C2        1.0  0.13988  0.46830  0.13787  1.0000
  C   C3        1.0  0.14053  0.19489  0.22210  1.0000
  H   H2        1.0  0.07650  0.26937  0.07484  1.0000
  Fe  Fe3       1.0  0.03222  0.36101  0.42362  1.0000
  S   S4        1.0  0.06117  0.39297  0.43942  1.0000
  S   S5        1.0  0.04710  0.32005  0.40620  1.0000
  Fe  Fe4       1.0  0.05394  0.34911  0.10672  1.0000
  S   S6        1.0  0.04254  0.30834  0.12997  1.0000
  S   S7        1.0  0.09983  0.36067  0.11114  1.0000
  Fe  Fe5       1.0  0.01610  0.30259  0.09070  1.0000
  C   C4        1.0  0.00868  0.22670  0.15154  1.0000
  C   C5        1.0  0.16575  0.40902  0.26008  1.0000
  C   C6        1.0  0.99960  0.33035  0.23034  1.0000
  S   S8        1.0  0.02985  0.34220  0.06625  1.0000
  C   C7        1.0  0.10737  0.31986  0.21783  1.0000
  C   C8        1.0  0.08725  0.19471  0.25084  1.0000
  H   H3        1.0  0.06613  0.46094  0.25848  1.0000
  C   C9        1.0  0.19178  0.34950  0.35565  1.0000
  C   C10       1.0  0.02213  0.97885  0.00037  1.0000
  S   S9        1.0  0.21147  0.04998  0.00474  1.0000
  C   C11       1.0  0.02372  0.21064  0.04494  1.0000
  H   H4        1.0  0.12493  0.40510  0.36960  1.0000
  C   C12       1.0  0.02002  0.25771  0.26108  1.0000
  H   H5        1.0  0.10484  0.35059  0.42163  1.0000
  C   C13       1.0  0.02311  0.33283  0.28665  1.0000
  C   C14       1.0  0.04009  0.33536  0.26066  1.0000
  C   C15       1.0  0.02849  0.33407  0.23264  1.0000
  C   C16       1.0  0.23658  0.06252  0.08998  1.0000
  S   S10       1.0  0.01755  0.37279  0.12880  1.0000
  H   H6        1.0  0.12691  0.34322  0.01711  1.0000
  H   H7        1.0  0.06244  0.33811  0.26230  1.0000
  H   H8        1.0  0.04192  0.33559  0.21287  1.0000
  C   C17       1.0  0.05185  0.37684  0.99944  1.0000
  C   C18       1.0  0.17383  0.36987  0.34135  1.0000
  C   C19       1.0  0.15710  0.40623  0.04143  1.0000
  C   C20       1.0  0.12851  0.40287  0.03568  1.0000
  C   C21       1.0  0.11059  0.38938  0.05691  1.0000
  C   C22       1.0  0.12119  0.37868  0.08399  1.0000
  C   C23       1.0  0.14982  0.38185  0.08967  1.0000
  C   C24       1.0  0.16764  0.39570  0.06863  1.0000
  H   H9        1.0  0.12013  0.41097  0.01474  1.0000
  H   H10       1.0  0.08861  0.38716  0.05236  1.0000
  H   H11       1.0  0.15827  0.37362  0.11052  1.0000
  H   H12       1.0  0.18957  0.39809  0.07335  1.0000
  C   C25       1.0  0.09879  0.39246  0.43501  1.0000
  C   C26       1.0  0.11266  0.41632  0.44076  1.0000
  C   C27       1.0  0.14251  0.41663  0.43896  1.0000
  C   C28       1.0  0.15888  0.39313  0.43081  1.0000
  C   C29       1.0  0.14498  0.36950  0.42415  1.0000
  C   C30       1.0  0.11514  0.36908  0.42633  1.0000
  H   H13       1.0  0.11888  0.28836  0.09466  1.0000
  C   C31       1.0  0.09272  0.31519  0.01699  1.0000
  H   H14       1.0  0.15740  0.35125  0.41758  1.0000
  C   C32       1.0  0.08589  0.27648  0.21055  1.0000
  H   H15       1.0  0.20438  0.99661  0.27578  1.0000
  C   C33       1.0  0.22230  0.99955  0.08046  1.0000
  H   H16       1.0  0.00953  0.19952  0.46936  1.0000
  H   H17       1.0  0.21199  0.00167  0.15682  1.0000
  H   H18       1.0  0.05972  0.19470  0.19477  1.0000
  C   C34       1.0  0.17559  0.41227  0.23068  1.0000
  P   P1        1.0  0.06806  0.24603  0.22482  1.0000
  H   H19       1.0  0.10882  0.30775  0.14503  1.0000
  H   H20       1.0  0.24047  0.04339  0.22923  1.0000
  C   C35       1.0  0.12295  0.41432  0.32225  1.0000
  C   C36       1.0  0.01825  0.23975  0.04382  1.0000
  H   H21       1.0  0.02835  0.17352  0.02044  1.0000
  C   C37       1.0  0.16572  0.45381  0.36775  1.0000
  C   C38       1.0  0.11181  0.29553  0.07290  1.0000
  H   H22       1.0  0.02419  0.27937  0.19283  1.0000
  H   H23       1.0  0.14906  0.15503  0.24554  1.0000
  C   C39       1.0  0.00722  0.25300  0.16264  1.0000
  S   S11       1.0  0.22033  0.46990  0.44325  1.0000
  C   C40       1.0  0.18046  0.05404  0.98342  1.0000
  S   S12       1.0  0.00710  0.25776  0.45015  1.0000
  C   C41       1.0  0.17398  0.06801  0.10242  1.0000
  C   C42       1.0  0.01283  0.25381  0.01641  1.0000
  C   C43       1.0  0.19157  0.44837  0.27174  1.0000
  Fe  Fe6       1.0  0.01926  0.33319  0.36771  1.0000
  H   H24       1.0  0.16115  0.19495  0.21090  1.0000
  C   C44       1.0  0.12603  0.31615  0.05636  1.0000
  H   H25       1.0  0.11295  0.33532  0.23240  1.0000
  C   C45       1.0  0.12078  0.21737  0.21703  1.0000
  C   C46       1.0  0.09411  0.21757  0.23166  1.0000
  C   C47       1.0  0.16210  0.06802  0.07456  1.0000
  C   C48       1.0  0.01301  0.23897  0.99063  1.0000
  H   H26       1.0  0.19910  0.46186  0.28742  1.0000
  H   H27       1.0  0.16976  0.39805  0.21480  1.0000
  H   H28       1.0  0.00818  0.27605  0.01511  1.0000
  C   C49       1.0  0.11256  0.32405  0.18741  1.0000
  C   C50       1.0  0.13371  0.17239  0.24158  1.0000
  H   H29       1.0  0.08999  0.29362  0.25295  1.0000
  C   C51       1.0  0.10508  0.30425  0.16864  1.0000
  H   H30       1.0  0.11788  0.02447  0.06866  1.0000
  H   H31       1.0  0.11266  0.42297  0.27621  1.0000
  C   C52       1.0  0.07746  0.40734  0.30150  1.0000
  C   C53       1.0  0.06696  0.39822  0.32940  1.0000
  C   C54       1.0  0.08407  0.39772  0.35384  1.0000
  C   C55       1.0  0.11190  0.40589  0.35037  1.0000
  H   H32       1.0  0.08899  0.46865  0.33147  1.0000
  C   C56       1.0  0.07824  0.29486  0.03403  1.0000
  H   H33       1.0  0.17345  0.01048  0.43309  1.0000
  C   C57       1.0  0.22547  0.02015  0.19487  1.0000
  P   P2        1.0  0.15928  0.42400  0.31839  1.0000
  H   H34       1.0  0.21675  0.42425  0.33962  1.0000
  C   C58       1.0  0.08127  0.46980  0.24260  1.0000
  H   H35       1.0  0.06415  0.40726  0.28259  1.0000
  H   H36       1.0  0.04566  0.39111  0.33201  1.0000
  H   H37       1.0  0.07586  0.39048  0.37544  1.0000
  H   H38       1.0  0.15292  0.43501  0.44377  1.0000
  C   C59       1.0  0.09421  0.29610  0.22941  1.0000
  Fe  Fe7       1.0  0.00814  0.30307  0.42974  1.0000
  C   C60       1.0  0.07564  0.47526  0.37628  1.0000
  C   C61       1.0  0.01871  0.20989  0.99167  1.0000
  H   H39       1.0  0.15283  0.39178  0.26679  1.0000
  C   C62       1.0  0.21855  0.35606  0.36406  1.0000
  C   C63       1.0  0.15941  0.08273  0.12449  1.0000
  C   C64       1.0  0.14382  0.98461  0.01388  1.0000
  C   C65       1.0  0.14179  0.45643  0.11061  1.0000
  H   H40       1.0  0.15810  0.02083  0.03203  1.0000
  H   H41       1.0  0.02875  0.18547  0.15448  1.0000
  H   H42       1.0  0.16276  0.08880  0.00662  1.0000
  H   H43       1.0  0.15316  0.36433  0.33515  1.0000
  H   H44       1.0  0.14977  0.46356  0.06370  1.0000
  H   H45       1.0  0.08777  0.24879  0.28478  1.0000
  H   H46       1.0  0.16759  0.08266  0.14639  1.0000
  C   C66       1.0  0.23299  0.08137  0.06521  1.0000
  H   H47       1.0  0.18468  0.32877  0.36079  1.0000
  C   C67       1.0  0.14791  0.47276  0.08486  1.0000
  H   H48       1.0  0.04410  0.98395  0.99756  1.0000
  H   H49       1.0  0.16838  0.43385  0.38013  1.0000
  C   C68       1.0  0.21501  0.04630  0.14845  1.0000
  C   C69       1.0  0.19318  0.43370  0.22177  1.0000
  C   C70       1.0  0.18247  0.39711  0.33577  1.0000
  H   H50       1.0  0.14396  0.32511  0.06545  1.0000
  H   H51       1.0  0.13989  0.02527  0.39332  1.0000
  C   C71       1.0  0.02401  0.19581  0.01912  1.0000
  H   H52       1.0  0.00507  0.45634  0.17930  1.0000
  H   H53       1.0  0.12647  0.23449  0.20174  1.0000
  C   C72       1.0  0.05105  0.25778  0.31231  1.0000
  C   C73       1.0  0.23293  0.04439  0.20690  1.0000
  C   C74       1.0  0.17259  0.42785  0.28055  1.0000
  H   H54       1.0  0.16136  0.98374  0.99782  1.0000
  H   H55       1.0  0.07239  0.45345  0.38207  1.0000
  C   C75       1.0  0.08791  0.28493  0.06176  1.0000
  C   C76       1.0  0.10521  0.41576  0.29796  1.0000
  C   C77       1.0  0.16073  0.45546  0.33738  1.0000
  H   H56       1.0  0.22783  0.00039  0.20770  1.0000
  C   C78       1.0  0.20965  0.40338  0.34367  1.0000
  H   H57       1.0  0.06658  0.19425  0.26191  1.0000
  H   H58       1.0  0.18591  0.98155  0.32528  1.0000
  C   C79       1.0  0.09182  0.28057  0.18008  1.0000
  H   H59       1.0  0.12199  0.34279  0.17816  1.0000
  H   H60       1.0  0.03047  0.41420  0.01474  1.0000
  P   P3        1.0  0.20665  0.04762  0.10981  1.0000
  H   H61       1.0  0.23207  0.34053  0.37599  1.0000
  C   C80       1.0  0.06495  0.25244  0.28542  1.0000
  C   C81       1.0  0.04504  0.21113  0.18626  1.0000
  H   H62       1.0  0.06306  0.25882  0.33203  1.0000
  C   C82       1.0  0.20144  0.45149  0.24240  1.0000
  H   H63       1.0  0.08089  0.99005  0.07076  1.0000
  S   S13       1.0  0.00626  0.37495  0.38412  1.0000
  H   H64       1.0  0.13875  0.43454  0.10939  1.0000
  H   H65       1.0  0.08577  0.26576  0.16497  1.0000
  H   H66       1.0  0.02779  0.19945  0.06596  1.0000
  C   C83       1.0  0.02496  0.25857  0.18516  1.0000
  C   C84       1.0  0.04395  0.23769  0.19722  1.0000
  C   C85       1.0  0.04960  0.25266  0.25947  1.0000
  H   H67       1.0  0.24053  0.01002  0.07134  1.0000
  H   H68       1.0  0.22259  0.09012  0.14734  1.0000
  Fe  Fe8       1.0  0.00464  0.33178  0.14938  1.0000
  C   C86       1.0  0.20193  0.01311  0.09850  1.0000
  C   C87       1.0  0.11937  0.00780  0.05383  1.0000
  H   H69       1.0  0.13627  0.45499  0.15762  1.0000
  H   H70       1.0  0.21566  0.46767  0.23571  1.0000
  H   H71       1.0  0.10170  0.15480  0.27089  1.0000
  C   C88       1.0  0.22275  0.07057  0.16065  1.0000
  C   C89       1.0  0.14196  0.00586  0.03326  1.0000
  S   S14       1.0  0.01812  0.25715  0.07738  1.0000
  C   C90       1.0  0.14995  0.00447  0.39439  1.0000
  C   C91       1.0  0.17816  0.99898  0.10919  1.0000
  H   H72       1.0  0.05925  0.28689  0.02610  1.0000
  C   C92       1.0  0.16880  0.99620  0.41678  1.0000
  H   H73       1.0  0.16215  0.00915  0.12303  1.0000
  H   H74       1.0  0.17303  0.05678  0.05729  1.0000
  H   H75       1.0  0.01838  0.31981  0.98221  1.0000
  C   C93       1.0  0.02168  0.26290  0.31364  1.0000
  C   C94       1.0  0.09860  0.98835  0.05505  1.0000
  C   C95       1.0  0.14434  0.98602  0.37319  1.0000
  C   C96       1.0  0.23147  0.06963  0.18982  1.0000
  C   C97       1.0  0.21644  0.02103  0.16582  1.0000
  C   C98       1.0  0.04875  0.35031  0.98955  1.0000
  C   C99       1.0  0.07565  0.47161  0.21254  1.0000
  H   H76       1.0  0.10226  0.10929  0.08590  1.0000
  H   H77       1.0  0.99819  0.46247  0.23309  1.0000
  C   C100      1.0  0.00087  0.38449  0.00447  1.0000
  H   H78       1.0  0.10007  0.43466  0.44652  1.0000
  C   C101      1.0  0.13632  0.08279  0.06866  1.0000
  H   H79       1.0  0.12259  0.10910  0.13551  1.0000
  H   H80       1.0  0.00747  0.25840  0.24163  1.0000
  C   C102      1.0  0.13368  0.09762  0.11849  1.0000
  H   H81       1.0  0.08476  0.99964  0.41175  1.0000
  C   C103      1.0  0.02142  0.34071  0.98816  1.0000
  C   C104      1.0  0.02749  0.20573  0.16342  1.0000
  H   H82       1.0  0.12979  0.99268  0.35586  1.0000
  C   C105      1.0  0.00617  0.26261  0.28810  1.0000
  C   C106      1.0  0.12216  0.09769  0.09058  1.0000
  H   H83       1.0  0.21225  0.08730  0.05690  1.0000
  H   H84       1.0  0.11885  0.09533  0.97753  1.0000
  H   H85       1.0  0.07273  0.38419  0.00201  1.0000
  C   C107      1.0  0.11632  0.32627  0.02872  1.0000
  C   C108      1.0  0.02799  0.39392  0.00666  1.0000
  C   C109      1.0  0.15947  0.07503  0.98949  1.0000
  H   H86       1.0  0.12733  0.08275  0.04704  1.0000
  C   C110      1.0  0.99759  0.35785  0.99540  1.0000
  C   C111      1.0  0.22757  0.38292  0.35785  1.0000
  H   H87       1.0  0.11400  0.00903  0.45339  1.0000
  H   H88       1.0  0.05625  0.46411  0.20499  1.0000
  C   C112      1.0  0.09930  0.99268  0.45625  1.0000
  C   C113      1.0  0.08290  0.98732  0.43251  1.0000
  C   C114      1.0  0.00148  0.99376  0.98343  1.0000
  H   H89       1.0  0.01108  0.26804  0.33429  1.0000
  H   H90       1.0  0.11043  0.47834  0.27545  1.0000
  H   H91       1.0  0.23776  0.08834  0.19898  1.0000
  P   P4        1.0  0.07980  0.32811  0.98133  1.0000
  H   H92       1.0  0.09458  0.26736  0.98552  1.0000
  C   C115      1.0  0.16809  0.47800  0.38235  1.0000
  H   H93       1.0  0.17258  0.47645  0.40559  1.0000
  C   C116      1.0  0.19091  0.97921  0.27842  1.0000
  C   C117      1.0  0.13067  0.13722  0.83720  1.0000
  H   H94       1.0  0.08639  0.11715  0.76520  1.0000
  S   S15       1.0  0.21640  0.06772  0.56441  1.0000
  Fe  Fe9       1.0  0.05092  0.09342  0.60794  1.0000
  S   S16       1.0  0.04406  0.13191  0.63321  1.0000
  S   S17       1.0  0.08735  0.06038  0.60714  1.0000
  Fe  Fe10      1.0  0.01317  0.14670  0.59727  1.0000
  H   H95       1.0  0.06090  0.02369  0.65402  1.0000
  H   H96       1.0  0.00290  0.07097  0.76416  1.0000
  C   C118      1.0  0.03584  0.43876  0.56061  1.0000
  S   S18       1.0  0.02265  0.10920  0.57071  1.0000
  S   S19       1.0  0.01576  0.07259  0.63310  1.0000
  Fe  Fe11      1.0  0.06066  0.09598  0.92704  1.0000
  S   S20       1.0  0.05832  0.14006  0.90719  1.0000
  S   S21       1.0  0.10067  0.06630  0.92702  1.0000
  Fe  Fe12      1.0  0.02288  0.14844  0.94075  1.0000
  C   C119      1.0  0.00899  0.09207  0.76519  1.0000
  Fe  Fe13      1.0  0.02479  0.12721  0.87772  1.0000
  H   H97       1.0  0.15412  0.09440  0.50302  1.0000
  S   S22       1.0  0.02727  0.10460  0.96272  1.0000
  S   S23       1.0  0.02912  0.08289  0.89551  1.0000
  C   C120      1.0  0.04632  0.28408  0.91860  1.0000
  H   H98       1.0  0.11805  0.44898  0.76579  1.0000
  H   H99       1.0  0.24014  0.07514  0.93157  1.0000
  H   H100      1.0  0.17892  0.47710  0.52900  1.0000
  H   H101      1.0  0.02796  0.16833  0.76969  1.0000
  H   H102      1.0  0.00888  0.27684  0.51052  1.0000
  S   S24       1.0  0.02674  0.14394  0.82901  1.0000
  H   H103      1.0  0.19897  0.43558  0.89445  1.0000
  C   C121      1.0  0.08084  0.45254  0.65893  1.0000
  H   H104      1.0  0.08789  0.03749  0.50403  1.0000
  H   H105      1.0  0.04675  0.32691  0.92853  1.0000
  C   C122      1.0  0.10955  0.44434  0.65416  1.0000
  H   H106      1.0  0.14333  0.02485  0.69853  1.0000
  C   C123      1.0  0.05194  0.45379  0.57838  1.0000
  C   C124      1.0  0.07765  0.04478  0.80977  1.0000
  C   C125      1.0  0.16762  0.05097  0.50716  1.0000
  C   C126      1.0  0.18223  0.46807  0.62106  1.0000
  C   C127      1.0  0.18031  0.06543  0.57561  1.0000
  C   C128      1.0  0.16872  0.03976  0.58263  1.0000
  C   C129      1.0  0.14017  0.03866  0.59208  1.0000
  C   C130      1.0  0.12276  0.06316  0.59406  1.0000
  C   C131      1.0  0.13410  0.08884  0.58646  1.0000
  C   C132      1.0  0.16284  0.08994  0.57738  1.0000
  H   H107      1.0  0.18178  0.02074  0.58098  1.0000
  H   H108      1.0  0.13158  0.01868  0.59786  1.0000
  H   H109      1.0  0.12087  0.10782  0.58792  1.0000
  H   H110      1.0  0.17158  0.10987  0.57176  1.0000
  C   C133      1.0  0.09653  0.40095  0.63620  1.0000
  C   C134      1.0  0.10096  0.98736  0.91854  1.0000
  H   H111      1.0  0.19996  0.42599  0.62513  1.0000
  C   C135      1.0  0.13073  0.06192  0.94981  1.0000
  C   C136      1.0  0.15165  0.04079  0.94403  1.0000
  C   C137      1.0  0.17619  0.03673  0.96088  1.0000
  H   H112      1.0  0.13590  0.15564  0.84769  1.0000
  C   C138      1.0  0.01472  0.10189  0.79283  1.0000
  H   H113      1.0  0.14892  0.02752  0.92633  1.0000
  C   C139      1.0  0.15583  0.35057  0.94428  1.0000
  H   H114      1.0  0.19607  0.37496  0.48952  1.0000
  C   C140      1.0  0.10268  0.12958  0.83808  1.0000
  C   C141      1.0  0.19225  0.00242  0.64728  1.0000
  P   P5        1.0  0.11870  0.98331  0.51369  1.0000
  H   H115      1.0  0.10259  0.38100  0.62758  1.0000
  S   S25       1.0  0.01144  0.19257  0.57892  1.0000
  H   H116      1.0  0.01319  0.01967  0.79934  1.0000
  C   C142      1.0  0.14450  0.35623  0.53979  1.0000
  C   C143      1.0  0.20568  0.02721  0.64092  1.0000
  H   H117      1.0  0.09566  0.04693  0.85278  1.0000
  C   C144      1.0  0.17370  0.05032  0.67539  1.0000
  H   H118      1.0  0.10315  0.08564  0.50058  1.0000
  Fe  Fe14      1.0  0.24540  0.46436  0.48518  1.0000
  C   C145      1.0  0.19187  0.45266  0.87919  1.0000
  S   S26       1.0  0.99890  0.09716  0.70557  1.0000
  C   C146      1.0  0.18037  0.02302  0.75847  1.0000
  H   H119      1.0  0.16132  0.08587  0.79732  1.0000
  C   C147      1.0  0.12119  0.38800  0.93116  1.0000
  C   C148      1.0  0.05545  0.25661  0.92672  1.0000
  H   H120      1.0  0.08619  0.14227  0.84878  1.0000
  H   H121      1.0  0.01783  0.15095  0.72116  1.0000
  C   C149      1.0  0.14476  0.09767  0.80882  1.0000
  C   C150      1.0  0.13939  0.46502  0.51258  1.0000
  C   C151      1.0  0.13465  0.07890  0.97289  1.0000
  C   C152      1.0  0.06791  0.40921  0.64024  1.0000
  C   C153      1.0  0.17889  0.37710  0.50579  1.0000
  H   H122      1.0  0.05304  0.04027  0.77119  1.0000
  C   C154      1.0  0.05432  0.03665  0.79490  1.0000
  C   C155      1.0  0.07086  0.29997  0.95982  1.0000
  C   C156      1.0  0.06692  0.99372  0.58717  1.0000
  H   H123      1.0  0.00854  0.25014  0.96969  1.0000
  C   C157      1.0  0.11730  0.41844  0.64335  1.0000
  C   C158      1.0  0.18448  0.99985  0.77835  1.0000
  C   C159      1.0  0.15687  0.04163  0.76208  1.0000
  H   H124      1.0  0.01013  0.25076  0.55977  1.0000
  C   C160      1.0  0.01590  0.47687  0.69262  1.0000
  H   H125      1.0  0.13499  0.33787  0.54983  1.0000
  H   H126      1.0  0.09154  0.05414  0.68338  1.0000
  H   H127      1.0  0.02510  0.46035  0.70732  1.0000
  H   H128      1.0  0.19979  0.98430  0.63588  1.0000
  C   C161      1.0  0.08461  0.99923  0.56241  1.0000
  H   H129      1.0  0.12594  0.45786  0.65916  1.0000
  H   H130      1.0  0.16601  0.06908  0.68559  1.0000
  Fe  Fe15      1.0  0.24640  0.02912  0.56326  1.0000
  H   H131      1.0  0.08033  0.10404  0.67353  1.0000
  C   C162      1.0  0.15928  0.47262  0.84250  1.0000
  C   C163      1.0  0.13451  0.33538  0.95861  1.0000
  C   C164      1.0  0.09564  0.10600  0.82451  1.0000
  H   H132      1.0  0.05559  0.02610  0.88036  1.0000
  C   C165      1.0  0.19611  0.05126  0.65450  1.0000
  C   C166      1.0  0.22519  0.09176  0.82686  1.0000
  C   C167      1.0  0.14747  0.07327  0.50397  1.0000
  C   C168      1.0  0.05394  0.98183  0.67115  1.0000
  C   C169      1.0  0.07817  0.04040  0.84068  1.0000
  H   H133      1.0  0.10605  0.44689  0.71373  1.0000
  C   C170      1.0  0.09638  0.05678  0.73023  1.0000
  C   C171      1.0  0.10454  0.46540  0.75524  1.0000
  H   H134      1.0  0.05570  0.01082  0.59772  1.0000
  H   H135      1.0  0.11608  0.40852  0.92079  1.0000
  C   C172      1.0  0.08815  0.10299  0.74771  1.0000
  C   C173      1.0  0.00923  0.25437  0.51207  1.0000
  C   C174      1.0  0.15169  0.12131  0.82255  1.0000
  C   C175      1.0  0.13669  0.03663  0.78503  1.0000
  C   C176      1.0  0.21641  0.00242  0.90630  1.0000
  C   C177      1.0  0.20797  0.02161  0.88323  1.0000
  C   C178      1.0  0.18271  0.01798  0.86904  1.0000
  H   H136      1.0  0.20317  0.98588  0.77619  1.0000
  C   C179      1.0  0.20931  0.07855  0.89707  1.0000
  H   H137      1.0  0.03775  0.44074  0.65427  1.0000
  H   H138      1.0  0.17425  0.33304  0.51244  1.0000
  H   H139      1.0  0.17527  0.00697  0.51309  1.0000
  C   C180      1.0  0.09778  0.46440  0.72559  1.0000
  H   H140      1.0  0.15448  0.05998  0.74701  1.0000
  C   C181      1.0  0.18255  0.09030  0.88902  1.0000
  C   C182      1.0  0.16811  0.10978  0.90632  1.0000
  C   C183      1.0  0.18023  0.11758  0.93184  1.0000
  C   C184      1.0  0.20645  0.10534  0.94048  1.0000
  C   C185      1.0  0.01053  0.21015  0.54280  1.0000
  C   C186      1.0  0.11879  0.06830  0.50272  1.0000
  C   C187      1.0  0.05419  0.30573  0.93491  1.0000
  C   C188      1.0  0.09983  0.37284  0.94547  1.0000
  C   C189      1.0  0.12118  0.46839  0.48873  1.0000
  C   C190      1.0  0.16866  0.45022  0.86162  1.0000
  S   S27       1.0  0.23357  0.98514  0.56804  1.0000
  H   H141      1.0  0.01309  0.43852  0.56434  1.0000
  H   H142      1.0  0.15766  0.43114  0.86317  1.0000
  C   C191      1.0  0.09083  0.06753  0.70150  1.0000
  P   P6        1.0  0.10660  0.06110  0.78972  1.0000
  H   H143      1.0  0.17483  0.03335  0.85235  1.0000
  C   C192      1.0  0.16437  0.99449  0.80096  1.0000
  H   H144      1.0  0.07660  0.13548  0.71456  1.0000
  H   H145      1.0  0.12491  0.00805  0.82161  1.0000
  C   C193      1.0  0.09578  0.07458  0.75346  1.0000
  H   H146      1.0  0.17243  0.08378  0.86991  1.0000
  H   H147      1.0  0.14698  0.11797  0.90066  1.0000
  H   H148      1.0  0.16864  0.13205  0.94571  1.0000
  C   C194      1.0  0.11658  0.08990  0.80963  1.0000
  H   H149      1.0  0.00730  0.01052  0.96760  1.0000
  H   H150      1.0  0.01419  0.01262  0.85398  1.0000
  H   H151      1.0  0.10144  0.03469  0.73424  1.0000
  H   H152      1.0  0.07827  0.38174  0.94533  1.0000
  H   H153      1.0  0.03661  0.41305  0.52356  1.0000
  C   C195      1.0  0.00942  0.21086  0.48903  1.0000
  C   C196      1.0  0.07296  0.25083  0.95076  1.0000
  H   H154      1.0  0.17831  0.42158  0.50254  1.0000
  C   C197      1.0  0.16864  0.40358  0.51319  1.0000
  C   C198      1.0  0.14593  0.40656  0.53373  1.0000
  C   C199      1.0  0.13436  0.38267  0.54750  1.0000
  P   P7        1.0  0.13257  0.44064  0.54356  1.0000
  C   C200      1.0  0.09471  0.44001  0.55044  1.0000
  C   C201      1.0  0.15100  0.45089  0.57490  1.0000
  H   H155      1.0  0.17750  0.47800  0.78569  1.0000
  C   C202      1.0  0.18515  0.44048  0.61351  1.0000
  H   H156      1.0  0.08696  0.02067  0.55485  1.0000
  Fe  Fe16      1.0  0.00716  0.11151  0.65675  1.0000
  C   C203      1.0  0.16970  0.43188  0.59044  1.0000
  C   C204      1.0  0.07832  0.42504  0.53260  1.0000
  C   C205      1.0  0.08097  0.27243  0.96706  1.0000
  H   H157      1.0  0.04854  0.23965  0.91482  1.0000
  H   H158      1.0  0.07954  0.22943  0.95728  1.0000
  H   H159      1.0  0.23473  0.00554  0.91889  1.0000
  H   H160      1.0  0.18986  0.05484  0.50855  1.0000
  C   C206      1.0  0.22768  0.09999  0.79675  1.0000
  C   C207      1.0  0.13023  0.01847  0.50941  1.0000
  H   H161      1.0  0.22283  0.02800  0.62447  1.0000
  C   C208      1.0  0.03162  0.02488  0.81080  1.0000
  H   H162      1.0  0.19187  0.02021  0.95657  1.0000
  H   H163      1.0  0.09340  0.46579  0.58756  1.0000
  H   H164      1.0  0.08810  0.41395  0.51453  1.0000
  C   C209      1.0  0.16664  0.35346  0.51880  1.0000
  H   H165      1.0  0.13946  0.41186  0.64064  1.0000
  H   H166      1.0  0.11724  0.38448  0.56385  1.0000
  H   H167      1.0  0.09852  0.00949  0.91254  1.0000
  C   C210      1.0  0.10028  0.00026  0.66301  1.0000
  C   C211      1.0  0.02121  0.12958  0.79472  1.0000
  C   C212      1.0  0.01728  0.13706  0.74090  1.0000
  H   H168      1.0  0.17279  0.41057  0.58456  1.0000
  C   C213      1.0  0.06005  0.43484  0.65164  1.0000
  C   C214      1.0  0.04904  0.42445  0.53768  1.0000
  H   H169      1.0  0.11669  0.99342  0.96101  1.0000
  C   C215      1.0  0.20582  0.47737  0.87740  1.0000
  H   H170      1.0  0.22308  0.10752  0.84277  1.0000
  C   C216      1.0  0.03215  0.02091  0.84155  1.0000
  H   H171      1.0  0.17328  0.12753  0.82167  1.0000
  C   C217      1.0  0.08429  0.09589  0.69585  1.0000
  C   C218      1.0  0.05551  0.02849  0.85643  1.0000
  C   C219      1.0  0.02291  0.14690  0.76852  1.0000
  C   C220      1.0  0.08259  0.11357  0.71893  1.0000
  H   H172      1.0  0.14073  0.47078  0.82966  1.0000
  C   C221      1.0  0.16926  0.00146  0.66770  1.0000
  C   C222      1.0  0.16704  0.99475  0.87701  1.0000
  C   C223      1.0  0.15911  0.02368  0.51001  1.0000
  H   H173      1.0  0.22685  0.12191  0.78958  1.0000
  C   C224      1.0  0.11022  0.04100  0.50500  1.0000
  C   C225      1.0  0.14038  0.01266  0.80414  1.0000
  H   H174      1.0  0.07364  0.10086  0.82499  1.0000
  C   C226      1.0  0.20116  0.97894  0.91369  1.0000
  H   H175      1.0  0.20574  0.07069  0.64824  1.0000
  C   C227      1.0  0.08129  0.45429  0.57344  1.0000
  H   H176      1.0  0.19557  0.02675  0.74042  1.0000
  C   C228      1.0  0.16065  0.02537  0.68235  1.0000
  H   H177      1.0  0.05177  0.39573  0.63450  1.0000
  C   C229      1.0  0.01020  0.19595  0.51699  1.0000
  C   C230      1.0  0.00991  0.10965  0.73909  1.0000
  H   H178      1.0  0.03270  0.28849  0.89997  1.0000
  H   H179      1.0  0.23798  0.03624  0.76939  1.0000
  H   H180      1.0  0.17759  0.34211  0.94413  1.0000
  C   C231      1.0  0.22620  0.06341  0.83628  1.0000
  H   H181      1.0  0.23179  0.02158  0.82229  1.0000
  S   S28       1.0  0.01953  0.19258  0.95797  1.0000
  C   C232      1.0  0.07074  0.00387  0.66224  1.0000
  H   H182      1.0  0.21508  0.11011  0.96120  1.0000
  H   H183      1.0  0.03107  0.98473  0.67017  1.0000
  C   C233      1.0  0.00895  0.24018  0.48625  1.0000
  H   H184      1.0  0.11278  0.01724  0.65451  1.0000
  H   H185      1.0  0.14723  0.99219  0.86674  1.0000
  C   C234      1.0  0.14924  0.37702  0.93088  1.0000
  P   P8        1.0  0.22702  0.05265  0.87502  1.0000
  H   H186      1.0  0.01329  0.08831  0.81274  1.0000
  H   H187      1.0  0.16589  0.38910  0.92054  1.0000
  H   H188      1.0  0.10173  0.45785  0.48926  1.0000
  H   H189      1.0  0.23751  0.00456  0.70095  1.0000
  C   C235      1.0  0.22074  0.08554  0.92346  1.0000
  H   H190      1.0  0.18167  0.47070  0.73277  1.0000
  H   H191      1.0  0.04161  0.46523  0.59586  1.0000
  H   H192      1.0  0.19457  0.47489  0.63857  1.0000
  H   H193      1.0  0.14000  0.31507  0.96928  1.0000
  C   C236      1.0  0.10652  0.34682  0.96021  1.0000
  C   C237      1.0  0.23204  0.07998  0.77599  1.0000
  C   C238      1.0  0.00991  0.23946  0.54005  1.0000
  C   C239      1.0  0.23041  0.04347  0.81532  1.0000
  H   H194      1.0  0.23451  0.08636  0.75272  1.0000
  H   H195      1.0  0.01074  0.17347  0.51855  1.0000
  C   C240      1.0  0.23376  0.05175  0.78534  1.0000
  H   H196      1.0  0.00654  0.81829  0.13518  1.0000
  S   S29       1.0  0.02250  0.79116  0.28729  1.0000
  Fe  Fe17      1.0  0.04098  0.73200  0.34586  1.0000
  S   S30       1.0  0.06790  0.73881  0.30470  1.0000
  S   S31       1.0  0.05256  0.69168  0.37158  1.0000
  Fe  Fe18      1.0  0.06233  0.78444  0.31330  1.0000
  S   S32       1.0  0.09415  0.81901  0.31111  1.0000
  Fe  Fe19      1.0  0.02632  0.74473  0.28178  1.0000
  H   H197      1.0  0.14255  0.91368  0.43359  1.0000
  S   S33       1.0  0.03765  0.77678  0.35647  1.0000
  H   H198      1.0  0.10038  0.81335  0.19781  1.0000
  H   H199      1.0  0.09196  0.83721  0.14393  1.0000
  H   H200      1.0  0.12640  0.86711  0.30649  1.0000
  H   H201      1.0  0.17413  0.65846  0.03761  1.0000
  C   C241      1.0  0.09647  0.93448  0.32107  1.0000
  H   H202      1.0  0.23610  0.96117  0.06153  1.0000
  Fe  Fe20      1.0  0.22182  0.62833  0.18653  1.0000
  S   S34       1.0  0.22436  0.83672  0.27659  1.0000
  S   S35       1.0  0.18617  0.62573  0.22051  1.0000
  S   S36       1.0  0.21130  0.57584  0.28020  1.0000
  Fe  Fe21      1.0  0.19019  0.67139  0.22507  1.0000
  S   S37       1.0  0.15905  0.70697  0.23872  1.0000
  S   S38       1.0  0.22227  0.66148  0.26009  1.0000
  H   H203      1.0  0.12584  0.88062  0.36001  1.0000
  C   C242      1.0  0.15895  0.84409  0.43593  1.0000
  C   C243      1.0  0.09017  0.51175  0.34082  1.0000
  S   S39       1.0  0.04685  0.76957  0.18606  1.0000
  C   C244      1.0  0.01077  0.81089  0.08926  1.0000
  C   C245      1.0  0.07461  0.52311  0.39041  1.0000
  H   H204      1.0  0.14479  0.94683  0.46972  1.0000
  Fe  Fe22      1.0  0.05232  0.62803  0.11286  1.0000
  S   S40       1.0  0.05968  0.58181  0.12026  1.0000
  S   S41       1.0  0.06960  0.65305  0.14737  1.0000
  Fe  Fe23      1.0  0.02964  0.62354  0.05107  1.0000
  H   H205      1.0  0.16942  0.60510  0.42459  1.0000
  Fe  Fe24      1.0  0.01691  0.58115  0.10026  1.0000
  Fe  Fe25      1.0  0.07731  0.58334  0.07379  1.0000
  S   S42       1.0  0.07288  0.62953  0.06748  1.0000
  C   C246      1.0  0.11226  0.88217  0.43959  1.0000
  H   H206      1.0  0.18999  0.79035  0.27146  1.0000
  H   H207      1.0  0.07250  0.90609  0.08164  1.0000
  H   H208      1.0  0.15207  0.53521  0.11383  1.0000
  H   H209      1.0  0.10886  0.92839  0.39468  1.0000
  S   S43       1.0  0.11817  0.56182  0.05762  1.0000
  H   H210      1.0  0.17771  0.87432  0.29548  1.0000
  H   H211      1.0  0.12423  0.89557  0.21499  1.0000
  C   C247      1.0  0.22977  0.56968  0.13626  1.0000
  H   H212      1.0  0.02326  0.72484  0.41592  1.0000
  C   C248      1.0  0.14944  0.57882  0.06311  1.0000
  C   C249      1.0  0.14927  0.60027  0.08219  1.0000
  C   C250      1.0  0.17384  0.61468  0.08493  1.0000
  C   C251      1.0  0.19905  0.60768  0.06917  1.0000
  C   C252      1.0  0.19924  0.58591  0.05023  1.0000
  C   C253      1.0  0.17465  0.57130  0.04757  1.0000
  H   H213      1.0  0.13009  0.60620  0.09446  1.0000
  H   H214      1.0  0.17307  0.63171  0.09881  1.0000
  H   H215      1.0  0.21816  0.58084  0.03715  1.0000
  H   H216      1.0  0.17492  0.55467  0.03285  1.0000
  C   C254      1.0  0.18521  0.96463  0.25398  1.0000
  H   H217      1.0  0.06163  0.85991  0.10477  1.0000
  H   H218      1.0  0.01002  0.56637  0.43941  1.0000
  C   C255      1.0  0.06221  0.94964  0.46200  1.0000
  S   S44       1.0  0.02213  0.87335  0.40925  1.0000
  C   C256      1.0  0.02393  0.85541  0.35297  1.0000
  C   C257      1.0  0.15916  0.93224  0.28582  1.0000
  H   H219      1.0  0.04630  0.85073  0.35630  1.0000
  H   H220      1.0  0.02699  0.84607  0.30716  1.0000
  C   C258      1.0  0.18087  0.87207  0.20911  1.0000
  H   H221      1.0  0.02257  0.55169  0.15873  1.0000
  H   H222      1.0  0.17733  0.82969  0.43474  1.0000
  H   H223      1.0  0.22889  0.49348  0.34778  1.0000
  C   C259      1.0  0.23738  0.83812  0.07300  1.0000
  C   C260      1.0  0.07750  0.75179  0.20163  1.0000
  C   C261      1.0  0.08571  0.75537  0.23030  1.0000
  C   C262      1.0  0.11091  0.74175  0.24108  1.0000
  C   C263      1.0  0.12798  0.72408  0.22360  1.0000
  C   C264      1.0  0.12014  0.72092  0.19480  1.0000
  C   C265      1.0  0.09500  0.73452  0.18395  1.0000
  H   H224      1.0  0.07250  0.76833  0.24426  1.0000
  H   H225      1.0  0.11700  0.74455  0.26331  1.0000
  H   H226      1.0  0.13335  0.70780  0.18109  1.0000
  H   H227      1.0  0.08859  0.73091  0.16203  1.0000
  H   H228      1.0  0.22124  0.81295  0.19838  1.0000
  C   C266      1.0  0.02497  0.56697  0.24130  1.0000
  C   C267      1.0  0.17653  0.95102  0.39682  1.0000
  H   H229      1.0  0.16884  0.52258  0.37773  1.0000
  C   C268      1.0  0.22810  0.53222  0.10254  1.0000
  C   C269      1.0  0.21566  0.55593  0.11534  1.0000
  H   H230      1.0  0.21697  0.52243  0.08607  1.0000
  H   H231      1.0  0.19500  0.56387  0.10859  1.0000
  C   C270      1.0  0.15176  0.50104  0.08635  1.0000
  C   C271      1.0  0.23256  0.55512  0.30576  1.0000
  C   C272      1.0  0.22360  0.52875  0.31579  1.0000
  H   H232      1.0  0.16916  0.86215  0.22745  1.0000
  H   H233      1.0  0.20601  0.52068  0.30542  1.0000
  S   S45       1.0  0.00725  0.83579  0.20952  1.0000
  C   C273      1.0  0.02460  0.69748  0.22248  1.0000
  C   C274      1.0  0.00847  0.68562  0.20184  1.0000
  C   C275      1.0  0.02171  0.66971  0.17987  1.0000
  C   C276      1.0  0.05124  0.66604  0.17839  1.0000
  C   C277      1.0  0.06703  0.67556  0.20078  1.0000
  C   C278      1.0  0.05374  0.69124  0.22282  1.0000
  H   H234      1.0  0.08986  0.67240  0.20005  1.0000
  H   H235      1.0  0.06624  0.70000  0.23890  1.0000
  C   C279      1.0  0.05119  0.68859  0.41019  1.0000
  C   C280      1.0  0.03507  0.70742  0.42686  1.0000
  C   C281      1.0  0.14909  0.51320  0.11345  1.0000
  C   C282      1.0  0.18823  0.63919  0.99794  1.0000
  C   C283      1.0  0.06590  0.66240  0.45521  1.0000
  C   C284      1.0  0.06644  0.66607  0.42435  1.0000
  H   H236      1.0  0.18547  0.80646  0.01218  1.0000
  C   C285      1.0  0.15009  0.59442  0.42342  1.0000
  H   H237      1.0  0.15655  0.74275  0.45723  1.0000
  H   H238      1.0  0.07919  0.65187  0.41129  1.0000
  C   C286      1.0  0.12943  0.82398  0.29724  1.0000
  C   C287      1.0  0.14739  0.80259  0.28640  1.0000
  C   C288      1.0  0.17620  0.80706  0.27944  1.0000
  C   C289      1.0  0.18745  0.83279  0.28335  1.0000
  C   C290      1.0  0.16920  0.85455  0.29250  1.0000
  C   C291      1.0  0.14030  0.85026  0.29896  1.0000
  H   H239      1.0  0.13932  0.78242  0.28408  1.0000
  H   H240      1.0  0.21633  0.72480  0.99138  1.0000
  C   C292      1.0  0.18943  0.67800  0.11856  1.0000
  C   C293      1.0  0.17046  0.66734  0.13997  1.0000
  C   C294      1.0  0.14155  0.67386  0.13761  1.0000
  C   C295      1.0  0.13153  0.69167  0.11433  1.0000
  C   C296      1.0  0.15048  0.70328  0.09302  1.0000
  C   C297      1.0  0.17958  0.69599  0.09520  1.0000
  P   P9        1.0  0.13711  0.72808  0.06433  1.0000
  C   C298      1.0  0.16481  0.74349  0.04132  1.0000
  C   C299      1.0  0.11363  0.71070  0.04208  1.0000
  C   C300      1.0  0.12086  0.70465  0.01285  1.0000
  C   C301      1.0  0.10256  0.69043  0.99678  1.0000
  Fe  Fe26      1.0  0.99793  0.78075  0.32956  1.0000
  C   C302      1.0  0.06812  0.69096  0.03719  1.0000
  C   C303      1.0  0.08706  0.70362  0.05399  1.0000
  C   C304      1.0  0.16598  0.77258  0.03704  1.0000
  C   C305      1.0  0.23820  0.74545  0.08025  1.0000
  H   H241      1.0  0.11303  0.93039  0.09868  1.0000
  H   H242      1.0  0.06044  0.73832  0.10866  1.0000
  C   C306      1.0  0.18402  0.72649  0.02543  1.0000
  C   C307      1.0  0.11580  0.75534  0.08100  1.0000
  C   C308      1.0  0.11673  0.75908  0.11131  1.0000
  C   C309      1.0  0.09886  0.77944  0.12393  1.0000
  C   C310      1.0  0.08001  0.79603  0.10648  1.0000
  C   C311      1.0  0.08024  0.79353  0.07608  1.0000
  C   C312      1.0  0.09766  0.77298  0.06337  1.0000
  H   H243      1.0  0.21162  0.67102  0.11947  1.0000
  H   H244      1.0  0.17809  0.65301  0.15767  1.0000
  H   H245      1.0  0.12684  0.66534  0.15406  1.0000
  H   H246      1.0  0.10900  0.69680  0.11381  1.0000
  H   H247      1.0  0.19484  0.70361  0.07900  1.0000
  H   H248      1.0  0.14051  0.71031  0.00216  1.0000
  C   C313      1.0  0.13951  0.89165  0.43529  1.0000
  H   H249      1.0  0.10685  0.84064  0.98036  1.0000
  H   H250      1.0  0.04746  0.68588  0.04643  1.0000
  H   H251      1.0  0.08084  0.70776  0.07630  1.0000
  H   H252      1.0  0.15163  0.78649  0.04880  1.0000
  C   C314      1.0  0.09485  0.48360  0.19207  1.0000
  C   C315      1.0  0.09764  0.92863  0.37438  1.0000
  C   C316      1.0  0.23663  0.51327  0.33963  1.0000
  H   H253      1.0  0.18368  0.70411  0.02815  1.0000
  H   H254      1.0  0.13062  0.74600  0.12554  1.0000
  H   H255      1.0  0.09886  0.78171  0.14749  1.0000
  H   H256      1.0  0.06467  0.81020  0.11673  1.0000
  H   H257      1.0  0.06614  0.80682  0.06250  1.0000
  H   H258      1.0  0.09671  0.77061  0.03988  1.0000
  C   C317      1.0  0.01828  0.65673  0.29013  1.0000
  C   C318      1.0  0.15645  0.48172  0.32233  1.0000
  H   H259      1.0  0.04816  0.93267  0.46412  1.0000
  H   H260      1.0  0.12564  0.64303  0.03687  1.0000
  H   H261      1.0  0.01899  0.91172  0.18720  1.0000
  H   H262      1.0  0.24488  0.73116  0.28006  1.0000
  S   S46       1.0  0.21451  0.60194  0.14805  1.0000
  C   C319      1.0  0.20957  0.84442  0.08326  1.0000
  C   C320      1.0  0.18851  0.85362  0.06332  1.0000
  H   H263      1.0  0.14524  0.49851  0.23938  1.0000
  H   H264      1.0  0.03102  0.52219  0.24897  1.0000
  C   C321      1.0  0.16357  0.92486  0.98828  1.0000
  C   C322      1.0  0.16539  0.50397  0.36683  1.0000
  H   H265      1.0  0.21210  0.88533  0.23724  1.0000
  C   C323      1.0  0.19522  0.85644  0.03304  1.0000
  C   C324      1.0  0.10055  0.96683  0.03585  1.0000
  C   C325      1.0  0.04949  0.74638  0.98898  1.0000
  H   H266      1.0  0.24116  0.90632  0.19612  1.0000
  C   C326      1.0  0.07619  0.68361  0.00891  1.0000
  H   H267      1.0  0.02872  0.67542  0.28267  1.0000
  S   S47       1.0  0.00015  0.73526  0.32280  1.0000
  H   H268      1.0  0.02045  0.71704  0.47079  1.0000
  H   H269      1.0  0.20405  0.84135  0.10646  1.0000
  H   H270      1.0  0.16691  0.85782  0.07120  1.0000
  C   C327      1.0  0.24105  0.69806  0.31403  1.0000
  H   H271      1.0  0.00734  0.74009  0.00658  1.0000
  C   C328      1.0  0.23716  0.82277  0.18412  1.0000
  C   C329      1.0  0.22292  0.85053  0.02277  1.0000
  Fe  Fe27      1.0  0.00156  0.81435  0.98686  1.0000
  H   H272      1.0  0.03680  0.88914  0.00296  1.0000
  S   S48       1.0  0.00844  0.62733  0.09594  1.0000
  H   H273      1.0  0.06335  0.60060  0.32032  1.0000
  H   H274      1.0  0.15736  0.96039  0.11161  1.0000
  H   H275      1.0  0.09807  0.51838  0.31895  1.0000
  C   C330      1.0  0.12602  0.49088  0.23163  1.0000
  P   P10       1.0  0.12733  0.79725  0.44155  1.0000
  C   C331      1.0  0.09042  0.78902  0.44403  1.0000
  C   C332      1.0  0.13158  0.83433  0.43932  1.0000
  C   C333      1.0  0.10830  0.85365  0.44202  1.0000
  H   H276      1.0  0.06178  0.67289  0.99645  1.0000
  H   H277      1.0  0.07869  0.64572  0.46607  1.0000
  H   H278      1.0  0.19690  0.96324  0.43517  1.0000
  H   H279      1.0  0.03769  0.59260  0.99650  1.0000
  C   C334      1.0  0.07056  0.80236  0.42459  1.0000
  C   C335      1.0  0.04176  0.79755  0.42840  1.0000
  C   C336      1.0  0.01298  0.85266  0.32491  1.0000
  C   C337      1.0  0.02669  0.53415  0.20306  1.0000
  C   C338      1.0  0.13067  0.54773  0.17363  1.0000
  C   C339      1.0  0.14529  0.78433  0.40894  1.0000
  C   C340      1.0  0.13036  0.78162  0.38323  1.0000
  C   C341      1.0  0.14465  0.77318  0.35764  1.0000
  C   C342      1.0  0.17394  0.76755  0.35731  1.0000
  C   C343      1.0  0.18896  0.76961  0.38286  1.0000
  C   C344      1.0  0.17479  0.77827  0.40847  1.0000
  C   C345      1.0  0.11576  0.85404  0.20393  1.0000
  C   C346      1.0  0.02176  0.58897  0.21955  1.0000
  H   H280      1.0  0.08427  0.95200  0.03714  1.0000
  H   H281      1.0  0.22329  0.92094  0.02902  1.0000
  C   C347      1.0  0.16288  0.87261  0.43380  1.0000
  C   C348      1.0  0.09744  0.58446  0.18983  1.0000
  C   C349      1.0  0.09740  0.85701  0.13324  1.0000
  C   C350      1.0  0.07753  0.83307  0.23284  1.0000
  H   H282      1.0  0.07703  0.81711  0.40691  1.0000
  H   H283      1.0  0.10776  0.78616  0.38241  1.0000
  H   H284      1.0  0.13282  0.77113  0.33800  1.0000
  Fe  Fe28      1.0  0.00569  0.78974  0.20576  1.0000
  H   H285      1.0  0.01399  0.52231  0.37587  1.0000
  H   H286      1.0  0.18699  0.78037  0.42779  1.0000
  C   C351      1.0  0.18541  0.78417  0.01656  1.0000
  C   C352      1.0  0.17944  0.51025  0.18680  1.0000
  P   P11       1.0  0.02955  0.57354  0.27939  1.0000
  C   C353      1.0  0.01421  0.60694  0.28933  1.0000
  C   C354      1.0  0.06738  0.57299  0.28473  1.0000
  C   C355      1.0  0.08686  0.55864  0.26623  1.0000
  C   C356      1.0  0.11603  0.56058  0.26897  1.0000
  C   C357      1.0  0.12606  0.57626  0.29059  1.0000
  C   C358      1.0  0.10688  0.58989  0.30960  1.0000
  C   C359      1.0  0.07775  0.58860  0.30642  1.0000
  C   C360      1.0  0.02686  0.63134  0.27868  1.0000
  C   C361      1.0  0.20538  0.88515  0.21478  1.0000
  H   H287      1.0  0.11100  0.62609  0.18221  1.0000
  H   H288      1.0  0.07984  0.54675  0.24895  1.0000
  H   H289      1.0  0.13092  0.55081  0.25363  1.0000
  H   H290      1.0  0.14867  0.57852  0.29200  1.0000
  H   H291      1.0  0.11447  0.60245  0.32610  1.0000
  H   H292      1.0  0.04397  0.63066  0.26222  1.0000
  C   C362      1.0  0.12395  0.60804  0.42979  1.0000
  C   C363      1.0  0.00606  0.62374  0.39230  1.0000
  C   C364      1.0  0.09057  0.65976  0.31418  1.0000
  C   C365      1.0  0.09780  0.65757  0.28433  1.0000
  C   C366      1.0  0.12618  0.65573  0.27504  1.0000
  C   C367      1.0  0.14733  0.65782  0.29528  1.0000
  C   C368      1.0  0.14028  0.66159  0.32504  1.0000
  C   C369      1.0  0.11176  0.66102  0.33464  1.0000
  P   P12       1.0  0.16802  0.66605  0.35051  1.0000
  C   C370      1.0  0.18485  0.63215  0.36068  1.0000
  C   C371      1.0  0.19296  0.68846  0.33106  1.0000
  C   C372      1.0  0.18269  0.71085  0.31217  1.0000
  H   H293      1.0  0.12684  0.71352  0.35400  1.0000
  C   C373      1.0  0.22244  0.68230  0.33186  1.0000
  C   C374      1.0  0.20695  0.62903  0.38066  1.0000
  C   C375      1.0  0.22040  0.60285  0.38728  1.0000
  C   C376      1.0  0.21147  0.57950  0.37489  1.0000
  C   C377      1.0  0.18963  0.58236  0.35494  1.0000
  C   C378      1.0  0.17676  0.60855  0.34747  1.0000
  C   C379      1.0  0.15210  0.68375  0.38161  1.0000
  C   C380      1.0  0.15747  0.67428  0.41102  1.0000
  C   C381      1.0  0.14227  0.68625  0.43444  1.0000
  C   C382      1.0  0.12120  0.70730  0.42879  1.0000
  C   C383      1.0  0.11603  0.71715  0.39978  1.0000
  C   C384      1.0  0.13181  0.70593  0.37635  1.0000
  H   H294      1.0  0.06854  0.66131  0.32138  1.0000
  H   H295      1.0  0.08159  0.65769  0.26822  1.0000
  H   H296      1.0  0.13179  0.65418  0.25183  1.0000
  H   H297      1.0  0.16915  0.65736  0.28748  1.0000
  H   H298      1.0  0.10568  0.66244  0.35769  1.0000
  H   H299      1.0  0.16013  0.71544  0.30993  1.0000
  H   H300      1.0  0.23147  0.66454  0.34468  1.0000
  H   H301      1.0  0.21425  0.64682  0.39076  1.0000
  C   C385      1.0  0.22917  0.49562  0.17910  1.0000
  H   H302      1.0  0.22184  0.55932  0.38052  1.0000
  H   H303      1.0  0.18345  0.56452  0.34427  1.0000
  H   H304      1.0  0.16119  0.61026  0.33071  1.0000
  H   H305      1.0  0.17267  0.65725  0.41624  1.0000
  H   H306      1.0  0.14615  0.67860  0.45701  1.0000
  H   H307      1.0  0.10834  0.71548  0.44681  1.0000
  H   H308      1.0  0.09897  0.73277  0.39531  1.0000
  H   H309      1.0  0.22243  0.80740  0.14484  1.0000
  Fe  Fe29      1.0  0.22119  0.61611  0.25248  1.0000
  H   H310      1.0  0.20008  0.82630  0.36855  1.0000
  S   S49       1.0  0.03517  0.57709  0.05465  1.0000
  C   C386      1.0  0.02395  0.72644  0.13428  1.0000
  C   C387      1.0  0.14124  0.59614  0.16458  1.0000
  C   C388      1.0  0.01355  0.54734  0.30374  1.0000
  S   S50       1.0  0.22267  0.67533  0.18804  1.0000
  S   S51       1.0  0.22684  0.63083  0.06679  1.0000
  H   H311      1.0  0.01892  0.60050  0.17295  1.0000
  H   H312      1.0  0.05122  0.96200  0.41723  1.0000
  C   C389      1.0  0.02751  0.53947  0.23278  1.0000
  H   H313      1.0  0.02088  0.79042  0.09350  1.0000
  C   C390      1.0  0.15361  0.81865  0.16611  1.0000
  C   C391      1.0  0.15773  0.95919  0.37413  1.0000
  H   H314      1.0  0.15923  0.51222  0.44331  1.0000
  C   C392      1.0  0.18073  0.92607  0.01276  1.0000
  H   H315      1.0  0.03812  0.55527  0.34090  1.0000
  C   C393      1.0  0.00636  0.82156  0.06033  1.0000
  H   H316      1.0  0.19411  0.97075  0.23238  1.0000
  S   S52       1.0  0.00738  0.72036  0.24683  1.0000
  H   H317      1.0  0.03480  0.72503  0.15496  1.0000
  C   C394      1.0  0.02173  0.54334  0.33315  1.0000
  H   H318      1.0  0.22173  0.54484  0.22920  1.0000
  H   H319      1.0  0.06410  0.81587  0.23775  1.0000
  H   H320      1.0  0.18498  0.76177  0.33720  1.0000
  C   C395      1.0  0.00197  0.82645  0.11306  1.0000
  H   H321      1.0  0.17198  0.55595  0.41342  1.0000
  H   H322      1.0  0.22832  0.73626  0.06255  1.0000
  H   H323      1.0  0.03803  0.63554  0.35990  1.0000
  H   H324      1.0  0.05686  0.92621  0.30220  1.0000
  H   H325      1.0  0.08949  0.54132  0.19487  1.0000
  H   H326      1.0  0.17720  0.77886  0.10988  1.0000
  H   H327      1.0  0.02032  0.61043  0.22508  1.0000
  C   C396      1.0  0.21574  0.52978  0.21430  1.0000
  C   C397      1.0  0.02317  0.55605  0.18168  1.0000
  C   C398      1.0  0.02098  0.58345  0.18981  1.0000
  H   H328      1.0  0.10730  0.84928  0.04939  1.0000
  C   C399      1.0  0.16114  0.85152  0.36523  1.0000
  C   C400      1.0  0.23479  0.84347  0.46894  1.0000
  C   C401      1.0  0.19527  0.89655  0.35464  1.0000
  H   H329      1.0  0.14225  0.90871  0.13880  1.0000
  C   C402      1.0  0.12658  0.55286  0.41470  1.0000
  C   C403      1.0  0.11569  0.88760  0.02404  1.0000
  S   S53       1.0  0.22500  0.61755  0.45805  1.0000
  C   C404      1.0  0.18725  0.52806  0.20792  1.0000
  H   H330      1.0  0.18819  0.74513  0.15233  1.0000
  H   H331      1.0  0.00935  0.66241  0.16273  1.0000
  H   H332      1.0  0.17163  0.54197  0.21819  1.0000
  H   H333      1.0  0.06997  0.59444  0.37182  1.0000
  C   C405      1.0  0.22181  0.89682  0.19154  1.0000
  H   H334      1.0  0.15451  0.82535  0.11848  1.0000
  C   C406      1.0  0.09853  0.86644  0.03520  1.0000
  S   S54       1.0  0.01135  0.64641  0.01016  1.0000
  C   C407      1.0  0.12083  0.87009  0.14250  1.0000
  H   H335      1.0  0.21162  0.76468  0.38269  1.0000
  H   H336      1.0  0.02651  0.80830  0.41364  1.0000
  H   H337      1.0  0.09410  0.89680  0.44158  1.0000
  C   C408      1.0  0.16800  0.64714  0.01936  1.0000
  C   C409      1.0  0.16566  0.90116  0.35488  1.0000
  C   C410      1.0  0.14869  0.87836  0.36046  1.0000
  C   C411      1.0  0.23669  0.51365  0.19985  1.0000
  H   H338      1.0  0.15206  0.48369  0.29911  1.0000
  C   C412      1.0  0.07385  0.85655  0.24910  1.0000
  C   C413      1.0  0.15890  0.50588  0.33703  1.0000
  C   C414      1.0  0.17238  0.78473  0.13220  1.0000
  C   C415      1.0  0.04194  0.57607  0.40546  1.0000
  C   C416      1.0  0.17869  0.76570  0.15606  1.0000
  C   C417      1.0  0.18200  0.96949  0.41800  1.0000
  C   C418      1.0  0.05876  0.88896  0.00910  1.0000
  H   H339      1.0  0.01010  0.77633  0.45511  1.0000
  H   H340      1.0  0.03033  0.94542  0.03360  1.0000
  H   H341      1.0  0.16592  0.92914  0.23901  1.0000
  C   C419      1.0  0.15147  0.56666  0.41668  1.0000
  H   H342      1.0  0.19486  0.93601  0.08163  1.0000
  C   C420      1.0  0.15956  0.81101  0.13717  1.0000
  H   H343      1.0  0.18410  0.87981  0.43079  1.0000
  C   C421      1.0  0.04938  0.59595  0.38284  1.0000
  H   H344      1.0  0.12777  0.53152  0.40891  1.0000
  C   C422      1.0  0.14868  0.56802  0.16213  1.0000
  H   H345      1.0  0.16903  0.56217  0.15221  1.0000
  C   C423      1.0  0.05850  0.53143  0.45265  1.0000
  H   H346      1.0  0.15530  0.61152  0.15540  1.0000
  H   H347      1.0  0.12297  0.62931  0.43605  1.0000
  C   C424      1.0  0.03152  0.61958  0.37630  1.0000
  H   H348      1.0  0.08952  0.48606  0.16896  1.0000
  H   H349      1.0  0.07911  0.60465  0.43464  1.0000
  C   C425      1.0  0.11180  0.93399  0.34710  1.0000
  C   C426      1.0  0.17259  0.77310  0.18488  1.0000
  H   H350      1.0  0.17737  0.75825  0.20338  1.0000
  H   H351      1.0  0.13753  0.88690  0.03018  1.0000
  H   H352      1.0  0.05931  0.91544  0.39652  1.0000
  P   P13       1.0  0.14071  0.85368  0.17293  1.0000
  C   C427      1.0  0.11611  0.60432  0.17926  1.0000
  C   C428      1.0  0.10026  0.56644  0.42076  1.0000
  C   C429      1.0  0.16036  0.79953  0.18996  1.0000
  C   C430      1.0  0.16942  0.94109  0.25772  1.0000
  H   H353      1.0  0.18724  0.93059  0.39831  1.0000
  P   P14       1.0  0.06811  0.54887  0.41751  1.0000
  H   H354      1.0  0.18443  0.87937  0.13398  1.0000
  C   C431      1.0  0.08095  0.77009  0.46660  1.0000
  C   C432      1.0  0.09915  0.59396  0.42901  1.0000
  C   C433      1.0  0.13303  0.62175  0.99699  1.0000
  H   H355      1.0  0.02917  0.51314  0.19625  1.0000
  P   P15       1.0  0.14994  0.93581  0.34647  1.0000
  H   H356      1.0  0.18728  0.91426  0.47091  1.0000
  H   H357      1.0  0.05682  0.85053  0.03579  1.0000
  C   C434      1.0  0.00635  0.86473  0.37634  1.0000
  C   C435      1.0  0.21412  0.89480  0.16241  1.0000
  C   C436      1.0  0.20139  0.72634  0.29415  1.0000
  H   H358      1.0  0.23033  0.86613  0.36067  1.0000
  C   C437      1.0  0.09833  0.83173  0.21030  1.0000
  C   C438      1.0  0.06950  0.92143  0.37552  1.0000
  H   H359      1.0  0.10608  0.93953  0.29969  1.0000
  H   H360      1.0  0.03377  0.91306  0.35033  1.0000
  C   C439      1.0  0.20072  0.49403  0.17244  1.0000
  C   C440      1.0  0.23764  0.82008  0.15369  1.0000
  C   C441      1.0  0.12588  0.89706  0.13048  1.0000
  H   H361      1.0  0.09059  0.55244  0.35678  1.0000
  S   S55       1.0  0.01887  0.80161  0.03122  1.0000
  C   C442      1.0  0.00767  0.52511  0.35311  1.0000
  C   C443      1.0  0.18961  0.88159  0.15663  1.0000
  C   C444      1.0  0.06416  0.96599  0.43548  1.0000
  C   C445      1.0  0.20404  0.76699  0.00056  1.0000
  C   C446      1.0  0.07008  0.86712  0.02767  1.0000
  H   H362      1.0  0.14755  0.91355  0.28842  1.0000
  H   H363      1.0  0.15630  0.80496  0.21256  1.0000
  H   H364      1.0  0.22804  0.85249  0.99927  1.0000
  C   C447      1.0  0.05500  0.92024  0.34950  1.0000
  C   C448      1.0  0.06824  0.92735  0.32233  1.0000
  C   C449      1.0  0.01601  0.58027  0.42104  1.0000
  C   C450      1.0  0.07591  0.90997  0.99769  1.0000
  H   H365      1.0  0.23862  0.78534  0.05708  1.0000
  H   H366      1.0  0.22766  0.90285  0.14444  1.0000
  C   C451      1.0  0.03382  0.70322  0.45782  1.0000
  C   C452      1.0  0.08560  0.53114  0.36222  1.0000
  C   C453      1.0  0.07044  0.49474  0.39750  1.0000
  C   C454      1.0  0.17221  0.87106  0.18003  1.0000
  C   C455      1.0  0.03851  0.73357  0.10797  1.0000
  C   C456      1.0  0.20758  0.86970  0.36051  1.0000
  C   C457      1.0  0.08008  0.86995  0.11135  1.0000
  H   H367      1.0  0.19306  0.74210  0.27812  1.0000
  H   H368      1.0  0.06673  0.92653  0.98306  1.0000
  C   C458      1.0  0.23055  0.72009  0.29517  1.0000
  H   H369      1.0  0.06362  0.48716  0.41936  1.0000
  H   H370      1.0  0.24477  0.90990  0.45265  1.0000
  H   H371      1.0  0.05792  0.85710  0.26684  1.0000
  C   C459      1.0  0.20301  0.73819  0.00475  1.0000
  H   H372      1.0  0.05507  0.75832  0.00696  1.0000
  C   C460      1.0  0.02266  0.73596  0.98888  1.0000
  H   H373      1.0  0.07765  0.59126  0.20033  1.0000
  S   S56       1.0  0.23660  0.91878  0.27752  1.0000
  C   C461      1.0  0.09095  0.87890  0.24284  1.0000
  C   C462      1.0  0.10464  0.90931  0.00484  1.0000
  H   H374      1.0  0.14784  0.83405  0.36797  1.0000
  C   C463      1.0  0.12336  0.96467  0.01529  1.0000
  Fe  Fe30      1.0  0.00254  0.86885  0.45571  1.0000
  C   C464      1.0  0.19054  0.84717  0.36534  1.0000
  C   C465      1.0  0.23373  0.79363  0.46654  1.0000
  H   H375      1.0  0.01895  0.51764  0.43797  1.0000
  P   P16       1.0  0.12653  0.93692  0.99049  1.0000
  C   C466      1.0  0.16377  0.94736  0.31034  1.0000
  H   H376      1.0  0.08706  0.84703  0.44640  1.0000
  C   C467      1.0  0.14306  0.49692  0.13948  1.0000
  H   H377      1.0  0.21876  0.77596  0.98433  1.0000
  C   C468      1.0  0.02455  0.73514  0.08125  1.0000
  P   P17       1.0  0.14316  0.51153  0.17507  1.0000
  C   C469      1.0  0.05208  0.76600  0.47087  1.0000
  H   H378      1.0  0.08814  0.89688  0.25578  1.0000
  C   C470      1.0  0.14065  0.63806  0.01919  1.0000
  H   H379      1.0  0.23643  0.79644  0.33455  1.0000
  C   C471      1.0  0.08603  0.89617  0.09856  1.0000
  H   H380      1.0  0.20885  0.91367  0.34982  1.0000
  C   C472      1.0  0.20998  0.91980  0.01028  1.0000
  C   C473      1.0  0.19640  0.95766  0.08584  1.0000
  C   C474      1.0  0.10891  0.90975  0.10810  1.0000
  H   H381      1.0  0.15660  0.52611  0.32510  1.0000
  H   H382      1.0  0.17909  0.86258  0.01713  1.0000
  C   C475      1.0  0.24464  0.77329  0.07707  1.0000
  H   H383      1.0  0.15668  0.51367  0.06638  1.0000
  H   H384      1.0  0.17162  0.93228  0.03361  1.0000
  H   H385      1.0  0.03562  0.74152  0.06086  1.0000
  C   C476      1.0  0.03249  0.77956  0.45169  1.0000
  C   C477      1.0  0.11160  0.87784  0.22005  1.0000
  C   C478      1.0  0.10440  0.55622  0.18665  1.0000
  C   C479      1.0  0.01906  0.63080  0.97660  1.0000
  H   H386      1.0  0.23783  0.60056  0.40205  1.0000
  C   C480      1.0  0.12817  0.48538  0.46363  1.0000
  H   H387      1.0  0.11192  0.61415  0.99751  1.0000
  C   C481      1.0  0.03352  0.51705  0.45586  1.0000
  H   H388      1.0  0.20962  0.64519  0.00000  1.0000
  C   C482      1.0  0.12034  0.49306  0.20141  1.0000
  C   C483      1.0  0.18106  0.62220  0.97583  1.0000
  H   H389      1.0  0.99890  0.92877  0.38712  1.0000
  H   H390      1.0  0.16787  0.63337  0.47316  1.0000
  C   C484      1.0  0.24591  0.72904  0.10552  1.0000
  C   C485      1.0  0.01438  0.95730  0.02071  1.0000
  C   C486      1.0  0.18033  0.97058  0.30654  1.0000
  S   S57       1.0  0.22871  0.48511  0.01784  1.0000
  C   C487      1.0  0.08512  0.48381  0.34783  1.0000
  C   C488      1.0  0.21966  0.97183  0.07448  1.0000
  C   C489      1.0  0.99816  0.60393  0.41443  1.0000
  C   C490      1.0  0.03241  0.60420  0.97621  1.0000
  C   C491      1.0  0.04943  0.68082  0.47201  1.0000
  H   H391      1.0  0.24382  0.91067  0.39788  1.0000
  C   C492      1.0  0.14517  0.78291  0.47423  1.0000
  H   H392      1.0  0.19730  0.55794  0.98445  1.0000
  C   C493      1.0  0.24392  0.84140  0.04255  1.0000
  H   H393      1.0  0.24131  0.70740  0.10753  1.0000
  H   H394      1.0  0.19577  0.48118  0.15497  1.0000
  H   H395      1.0  0.22494  0.77409  0.47420  1.0000
  H   H396      1.0  0.24551  0.48427  0.16666  1.0000
  C   C494      1.0  0.10636  0.47952  0.25213  1.0000
  C   C495      1.0  0.17543  0.97134  0.10285  1.0000
  H   H397      1.0  0.11432  0.48753  0.44508  1.0000
  C   C496      1.0  0.15308  0.49947  0.46256  1.0000
  C   C497      1.0  0.22231  0.91203  0.98347  1.0000
  H   H398      1.0  0.09640  0.54091  0.47472  1.0000
  H   H399      1.0  0.24504  0.90733  0.98126  1.0000
  C   C498      1.0  0.15303  0.61405  0.97520  1.0000
  Fe  Fe31      1.0  0.03934  0.67421  0.70438  1.0000
  H   H400      1.0  0.03031  0.84370  0.79636  1.0000
  S   S58       1.0  0.07952  0.64640  0.69328  1.0000
  S   S59       1.0  0.04480  0.55416  0.55380  1.0000
  S   S60       1.0  0.04589  0.71855  0.71211  1.0000
  H   H401      1.0  0.13939  0.58466  0.83190  1.0000
  C   C499      1.0  0.20577  0.55874  0.81304  1.0000
  S   S61       1.0  0.23816  0.85399  0.60283  1.0000
  H   H402      1.0  0.06248  0.82727  0.64017  1.0000
  S   S62       1.0  0.20506  0.60976  0.73742  1.0000
  S   S63       1.0  0.21593  0.81051  0.68078  1.0000
  H   H403      1.0  0.20627  0.95857  0.70434  1.0000
  H   H404      1.0  0.06877  0.52653  0.76965  1.0000
  Fe  Fe32      1.0  0.05007  0.63107  0.52690  1.0000
  H   H405      1.0  0.16403  0.62831  0.82778  1.0000
  C   C500      1.0  0.09347  0.96822  0.89894  1.0000
  C   C501      1.0  0.06673  0.95583  0.67992  1.0000
  Fe  Fe33      1.0  0.00965  0.84665  0.92806  1.0000
  S   S64       1.0  0.04157  0.87253  0.90253  1.0000
  S   S65       1.0  0.02502  0.80400  0.94511  1.0000
  Fe  Fe34      1.0  0.02049  0.87497  0.51935  1.0000
  S   S66       1.0  0.05069  0.88825  0.55263  1.0000
  C   C502      1.0  0.06341  0.96634  0.59799  1.0000
  Fe  Fe35      1.0  0.03681  0.59130  0.58053  1.0000
  S   S67       1.0  0.01402  0.58577  0.62541  1.0000
  Fe  Fe36      1.0  0.08300  0.57588  0.53429  1.0000
  Fe  Fe37      1.0  0.01991  0.57861  0.51840  1.0000
  S   S68       1.0  0.07666  0.61139  0.56375  1.0000
  H   H406      1.0  0.13283  0.56574  0.60339  1.0000
  Fe  Fe38      1.0  0.01792  0.66398  0.80778  1.0000
  Fe  Fe39      1.0  0.08355  0.66958  0.81139  1.0000
  S   S69       1.0  0.09124  0.62306  0.81811  1.0000
  S   S70       1.0  0.12433  0.69394  0.80136  1.0000
  Fe  Fe40      1.0  0.06030  0.61977  0.78233  1.0000
  S   S71       1.0  0.06925  0.58520  0.75103  1.0000
  Fe  Fe41      1.0  0.05319  0.62417  0.84906  1.0000
  S   S72       1.0  0.05031  0.59517  0.89010  1.0000
  S   S73       1.0  0.05424  0.66604  0.77371  1.0000
  S   S74       1.0  0.04672  0.67053  0.84542  1.0000
  Fe  Fe42      1.0  0.21255  0.83666  0.56825  1.0000
  S   S75       1.0  0.20049  0.79958  0.59716  1.0000
  S   S76       1.0  0.18261  0.85912  0.53550  1.0000
  C   C503      1.0  0.01253  0.64554  0.94976  1.0000
  Fe  Fe43      1.0  0.19887  0.83705  0.92319  1.0000
  S   S77       1.0  0.16242  0.84539  0.95525  1.0000
  S   S78       1.0  0.20202  0.80378  0.89123  1.0000
  C   C504      1.0  0.21219  0.80402  0.74170  1.0000
  C   C505      1.0  0.21060  0.81257  0.77080  1.0000
  S   S79       1.0  0.05860  0.59670  0.49642  1.0000
  H   H407      1.0  0.20726  0.79740  0.78870  1.0000
  Fe  Fe44      1.0  0.22517  0.83429  0.86022  1.0000
  C   C506      1.0  0.09403  0.48772  0.77124  1.0000
  C   C507      1.0  0.03540  0.60830  0.92262  1.0000
  C   C508      1.0  0.03991  0.59270  0.94935  1.0000
  H   H408      1.0  0.07058  0.50469  0.61105  1.0000
  H   H409      1.0  0.06926  0.66934  0.94733  1.0000
  H   H410      1.0  0.16345  0.50892  0.60993  1.0000
  C   C509      1.0  0.02113  0.63457  0.92275  1.0000
  H   H411      1.0  0.05096  0.57238  0.94940  1.0000
  H   H412      1.0  0.16823  0.50900  0.69579  1.0000
  C   C510      1.0  0.02999  0.58754  0.65984  1.0000
  C   C511      1.0  0.05834  0.57873  0.66367  1.0000
  C   C512      1.0  0.07006  0.57827  0.69173  1.0000
  C   C513      1.0  0.05397  0.58787  0.71589  1.0000
  C   C514      1.0  0.02574  0.59748  0.71191  1.0000
  C   C515      1.0  0.01364  0.59675  0.68409  1.0000
  H   H413      1.0  0.07113  0.57243  0.64494  1.0000
  H   H414      1.0  0.09205  0.57170  0.69467  1.0000
  C   C516      1.0  0.01684  0.79274  0.56006  1.0000
  C   C517      1.0  0.07683  0.50904  0.75759  1.0000
  H   H415      1.0  0.20512  0.67627  0.72421  1.0000
  C   C518      1.0  0.10167  0.53505  0.60407  1.0000
  C   C519      1.0  0.16591  0.95553  0.53926  1.0000
  C   C520      1.0  0.14998  0.59900  0.49859  1.0000
  C   C521      1.0  0.08702  0.87847  0.54789  1.0000
  C   C522      1.0  0.10002  0.87929  0.51979  1.0000
  C   C523      1.0  0.12940  0.87355  0.51663  1.0000
  C   C524      1.0  0.14582  0.86568  0.54124  1.0000
  C   C525      1.0  0.13276  0.86411  0.56935  1.0000
  C   C526      1.0  0.10355  0.87127  0.57270  1.0000
  H   H416      1.0  0.08753  0.88499  0.50059  1.0000
  H   H417      1.0  0.13957  0.87485  0.49500  1.0000
  H   H418      1.0  0.14521  0.85784  0.58846  1.0000
  H   H419      1.0  0.00600  0.90192  0.75365  1.0000
  C   C527      1.0  0.07529  0.86311  0.91622  1.0000
  C   C528      1.0  0.07797  0.85365  0.94582  1.0000
  C   C529      1.0  0.10487  0.84770  0.95737  1.0000
  C   C530      1.0  0.12920  0.85079  0.93934  1.0000
  C   C531      1.0  0.12663  0.85921  0.90938  1.0000
  C   C532      1.0  0.09962  0.86566  0.89789  1.0000
  H   H420      1.0  0.05931  0.85147  0.96005  1.0000
  H   H421      1.0  0.09361  0.87044  0.59445  1.0000
  H   H422      1.0  0.14543  0.86125  0.89527  1.0000
  C   C533      1.0  0.19972  0.74600  0.82254  1.0000
  C   C534      1.0  0.17726  0.74215  0.84323  1.0000
  C   C535      1.0  0.15356  0.72766  0.83665  1.0000
  C   C536      1.0  0.15235  0.71541  0.80966  1.0000
  C   C537      1.0  0.17466  0.71968  0.78869  1.0000
  C   C538      1.0  0.19810  0.73497  0.79497  1.0000
  H   H423      1.0  0.17806  0.75076  0.86452  1.0000
  H   H424      1.0  0.13632  0.72640  0.85262  1.0000
  H   H425      1.0  0.17388  0.71089  0.76752  1.0000
  H   H426      1.0  0.21514  0.73782  0.77872  1.0000
  C   C539      1.0  0.21245  0.84050  0.77654  1.0000
  H   H427      1.0  0.14673  0.60090  0.95861  1.0000
  S   S80       1.0  0.00984  0.61445  0.54605  1.0000
  H   H428      1.0  0.09928  0.48869  0.79413  1.0000
  H   H429      1.0  0.21742  0.53986  0.80684  1.0000
  C   C540      1.0  0.14285  0.71579  0.93065  1.0000
  S   S81       1.0  0.04887  0.67628  0.51069  1.0000
  H   H430      1.0  0.21611  0.90808  0.51530  1.0000
  H   H431      1.0  0.01022  0.64765  0.60128  1.0000
  H   H432      1.0  0.03380  0.86531  0.84372  1.0000
  H   H433      1.0  0.16058  0.96720  0.55842  1.0000
  C   C541      1.0  0.02100  0.51511  0.65578  1.0000
  C   C542      1.0  0.16095  0.95758  0.71329  1.0000
  H   H434      1.0  0.01745  0.64672  0.90218  1.0000
  H   H435      1.0  0.14067  0.91737  0.58762  1.0000
  C   C543      1.0  0.21700  0.85958  0.75203  1.0000
  H   H436      1.0  0.09035  0.92478  0.89203  1.0000
  H   H437      1.0  0.18209  0.91980  0.78851  1.0000
  C   C544      1.0  0.20482  0.60836  0.81822  1.0000
  C   C545      1.0  0.09687  0.97686  0.48330  1.0000
  C   C546      1.0  0.11367  0.63503  0.70711  1.0000
  C   C547      1.0  0.13220  0.61818  0.68988  1.0000
  C   C548      1.0  0.15994  0.60977  0.69896  1.0000
  C   C549      1.0  0.16963  0.61802  0.72559  1.0000
  C   C550      1.0  0.15113  0.63472  0.74287  1.0000
  C   C551      1.0  0.12339  0.64300  0.73384  1.0000
  H   H438      1.0  0.12508  0.61204  0.66907  1.0000
  H   H439      1.0  0.17394  0.59736  0.68511  1.0000
  H   H440      1.0  0.15825  0.64161  0.76335  1.0000
  H   H441      1.0  0.10984  0.65624  0.74723  1.0000
  S   S82       1.0  0.22009  0.86807  0.89281  1.0000
  S   S83       1.0  0.02333  0.61735  0.81397  1.0000
  S   S84       1.0  0.20895  0.85241  0.81364  1.0000
  C   C552      1.0  0.21660  0.82290  0.71725  1.0000
  H   H442      1.0  0.14909  0.79545  0.92696  1.0000
  H   H443      1.0  0.18711  0.53966  0.52183  1.0000
  C   C553      1.0  0.07020  0.50823  0.72804  1.0000
  H   H444      1.0  0.05377  0.93845  0.68580  1.0000
  H   H445      1.0  0.20333  0.93153  0.66921  1.0000
  H   H446      1.0  0.05718  0.52528  0.71780  1.0000
  C   C554      1.0  0.08048  0.48586  0.71182  1.0000
  P   P18       1.0  0.20749  0.60949  0.94938  1.0000
  C   C555      1.0  0.19611  0.57642  0.93962  1.0000
  H   H447      1.0  0.13565  0.49418  0.56953  1.0000
  H   H448      1.0  0.19009  0.50781  0.48537  1.0000
  H   H449      1.0  0.09765  0.87253  0.87488  1.0000
  Fe  Fe45      1.0  0.00525  0.71919  0.73917  1.0000
  H   H450      1.0  0.01219  0.81658  0.63852  1.0000
  H   H451      1.0  0.00240  0.70879  0.87037  1.0000
  C   C556      1.0  0.18755  0.57292  0.91091  1.0000
  H   H452      1.0  0.21544  0.62761  0.81625  1.0000
  C   C557      1.0  0.20926  0.63318  0.91688  1.0000
  C   C558      1.0  0.01542  0.72066  0.96564  1.0000
  C   C559      1.0  0.09878  0.97727  0.54807  1.0000
  C   C560      1.0  0.17653  0.97499  0.89897  1.0000
  C   C561      1.0  0.18961  0.67260  0.88650  1.0000
  C   C562      1.0  0.18767  0.65387  0.91134  1.0000
  H   H453      1.0  0.03690  0.91384  0.64578  1.0000
  C   C563      1.0  0.09095  0.51122  0.65161  1.0000
  C   C564      1.0  0.15948  0.78770  0.52437  1.0000
  C   C565      1.0  0.17632  0.93156  0.76813  1.0000
  C   C566      1.0  0.14022  0.95244  0.73571  1.0000
  C   C567      1.0  0.17586  0.60863  0.82515  1.0000
  H   H454      1.0  0.02369  0.80943  0.54497  1.0000
  C   C568      1.0  0.19717  0.90953  0.63181  1.0000
  H   H455      1.0  0.18929  0.58927  0.89350  1.0000
  Fe  Fe46      1.0  0.01906  0.72917  0.67329  1.0000
  C   C569      1.0  0.16425  0.47944  0.51119  1.0000
  C   C570      1.0  0.17605  0.91604  0.96174  1.0000
  H   H456      1.0  0.20492  0.81821  0.49346  1.0000
  H   H457      1.0  0.17317  0.68889  0.88245  1.0000
  H   H458      1.0  0.16936  0.65540  0.92614  1.0000
  C   C571      1.0  0.03205  0.82380  0.71985  1.0000
  C   C572      1.0  0.03526  0.79497  0.72496  1.0000
  C   C573      1.0  0.05573  0.78317  0.74421  1.0000
  C   C574      1.0  0.07334  0.80001  0.75793  1.0000
  C   C575      1.0  0.07032  0.82903  0.75291  1.0000
  C   C576      1.0  0.04957  0.84084  0.73367  1.0000
  P   P19       1.0  0.09706  0.84988  0.76555  1.0000
  C   C577      1.0  0.11224  0.83185  0.79805  1.0000
  C   C578      1.0  0.12265  0.85367  0.73522  1.0000
  C   C579      1.0  0.12326  0.83640  0.71145  1.0000
  C   C580      1.0  0.14198  0.84097  0.68731  1.0000
  C   C581      1.0  0.16006  0.86275  0.68660  1.0000
  C   C582      1.0  0.15976  0.87977  0.71024  1.0000
  C   C583      1.0  0.14156  0.87484  0.73471  1.0000
  C   C584      1.0  0.14128  0.82433  0.79885  1.0000
  C   C585      1.0  0.15274  0.81087  0.82439  1.0000
  C   C586      1.0  0.13549  0.80516  0.84927  1.0000
  C   C587      1.0  0.10657  0.81241  0.84864  1.0000
  C   C588      1.0  0.09481  0.82493  0.82288  1.0000
  C   C589      1.0  0.08253  0.88423  0.77417  1.0000
  C   C590      1.0  0.07525  0.90422  0.75125  1.0000
  C   C591      1.0  0.06368  0.93063  0.75768  1.0000
  C   C592      1.0  0.05960  0.93746  0.78696  1.0000
  C   C593      1.0  0.06742  0.91803  0.80986  1.0000
  C   C594      1.0  0.07909  0.89173  0.80354  1.0000
  H   H459      1.0  0.16338  0.50787  0.92171  1.0000
  H   H460      1.0  0.04481  0.75243  0.48929  1.0000
  H   H461      1.0  0.05784  0.76082  0.74875  1.0000
  H   H462      1.0  0.08975  0.79006  0.77179  1.0000
  H   H463      1.0  0.04737  0.86295  0.72857  1.0000
  H   H464      1.0  0.10983  0.81907  0.71151  1.0000
  H   H465      1.0  0.14332  0.82707  0.66954  1.0000
  H   H466      1.0  0.17551  0.86524  0.66855  1.0000
  H   H467      1.0  0.17499  0.89553  0.71034  1.0000
  H   H468      1.0  0.14270  0.88685  0.75369  1.0000
  H   H469      1.0  0.15510  0.82873  0.77989  1.0000
  H   H470      1.0  0.17517  0.80503  0.82527  1.0000
  H   H471      1.0  0.14469  0.79500  0.86890  1.0000
  H   H472      1.0  0.09337  0.80833  0.86820  1.0000
  H   H473      1.0  0.07222  0.82971  0.82262  1.0000
  H   H474      1.0  0.07865  0.89935  0.72843  1.0000
  C   C595      1.0  0.23337  0.65189  0.66699  1.0000
  H   H475      1.0  0.21517  0.90364  0.93888  1.0000
  H   H476      1.0  0.06442  0.92318  0.83268  1.0000
  H   H477      1.0  0.08548  0.87764  0.82188  1.0000
  C   C596      1.0  0.16192  0.58383  0.82693  1.0000
  H   H478      1.0  0.08968  0.74974  0.96695  1.0000
  H   H479      1.0  0.16010  0.80008  0.54331  1.0000
  S   S85       1.0  0.22932  0.76398  0.83300  1.0000
  C   C597      1.0  0.23231  0.63082  0.89672  1.0000
  C   C598      1.0  0.09017  0.77901  0.54543  1.0000
  C   C599      1.0  0.09553  0.80082  0.56247  1.0000
  C   C600      1.0  0.10475  0.79531  0.59126  1.0000
  C   C601      1.0  0.10808  0.76785  0.60319  1.0000
  C   C602      1.0  0.10286  0.74569  0.58610  1.0000
  C   C603      1.0  0.09455  0.75153  0.55681  1.0000
  P   P20       1.0  0.10829  0.70988  0.60022  1.0000
  C   C604      1.0  0.12167  0.70560  0.63729  1.0000
  C   C605      1.0  0.07620  0.69158  0.60135  1.0000
  C   C606      1.0  0.07584  0.66565  0.61718  1.0000
  C   C607      1.0  0.05212  0.65002  0.61712  1.0000
  C   C608      1.0  0.21979  0.58343  0.81237  1.0000
  S   S86       1.0  0.02892  0.84159  0.48784  1.0000
  C   C609      1.0  0.05237  0.70157  0.58532  1.0000
  C   C610      1.0  0.14511  0.68713  0.64410  1.0000
  C   C611      1.0  0.15478  0.68362  0.67291  1.0000
  C   C612      1.0  0.14075  0.69787  0.69535  1.0000
  C   C613      1.0  0.11668  0.71515  0.68915  1.0000
  C   C614      1.0  0.10688  0.71869  0.66035  1.0000
  C   C615      1.0  0.13283  0.69430  0.57405  1.0000
  C   C616      1.0  0.16165  0.69944  0.57423  1.0000
  C   C617      1.0  0.18084  0.68680  0.55453  1.0000
  C   C618      1.0  0.17130  0.67013  0.53345  1.0000
  C   C619      1.0  0.14238  0.66614  0.53219  1.0000
  C   C620      1.0  0.12320  0.67797  0.55251  1.0000
  H   H480      1.0  0.08212  0.78359  0.52360  1.0000
  H   H481      1.0  0.09184  0.82190  0.55336  1.0000
  H   H482      1.0  0.10871  0.81231  0.60453  1.0000
  H   H483      1.0  0.11455  0.76415  0.62568  1.0000
  H   H484      1.0  0.09079  0.73482  0.54298  1.0000
  H   H485      1.0  0.09378  0.65744  0.62992  1.0000
  H   H486      1.0  0.05192  0.63063  0.63036  1.0000
  C   C621      1.0  0.19718  0.93846  0.74677  1.0000
  C   C622      1.0  0.14744  0.77317  0.92761  1.0000
  C   C623      1.0  0.15560  0.53796  0.72842  1.0000
  H   H487      1.0  0.15552  0.67465  0.62763  1.0000
  H   H488      1.0  0.17259  0.66917  0.67812  1.0000
  H   H489      1.0  0.14791  0.69483  0.71782  1.0000
  H   H490      1.0  0.10540  0.72534  0.70690  1.0000
  H   H491      1.0  0.08750  0.73125  0.65615  1.0000
  H   H492      1.0  0.16939  0.71282  0.58993  1.0000
  H   H493      1.0  0.20305  0.69025  0.55563  1.0000
  H   H494      1.0  0.18626  0.66052  0.51802  1.0000
  H   H495      1.0  0.13463  0.65379  0.51561  1.0000
  H   H496      1.0  0.10089  0.67444  0.55116  1.0000
  S   S87       1.0  0.01333  0.68530  0.66387  1.0000
  C   C624      1.0  0.17678  0.55865  0.82080  1.0000
  H   H497      1.0  0.08685  0.62066  0.94836  1.0000
  C   C625      1.0  0.07846  0.95499  0.48583  1.0000
  C   C626      1.0  0.20532  0.90989  0.95941  1.0000
  H   H498      1.0  0.00738  0.49148  0.48488  1.0000
  H   H499      1.0  0.24373  0.68482  0.52966  1.0000
  H   H500      1.0  0.05762  0.56157  0.81023  1.0000
  C   C627      1.0  0.17043  0.75535  0.93642  1.0000
  H   H501      1.0  0.16814  0.54630  0.88275  1.0000
  C   C628      1.0  0.21048  0.72769  0.67867  1.0000
  C   C629      1.0  0.19894  0.73470  0.65090  1.0000
  C   C630      1.0  0.17413  0.75184  0.64841  1.0000
  C   C631      1.0  0.16092  0.76263  0.67348  1.0000
  C   C632      1.0  0.17246  0.75616  0.70114  1.0000
  C   C633      1.0  0.19718  0.73887  0.70373  1.0000
  H   H502      1.0  0.09782  0.53868  0.58082  1.0000
  S   S88       1.0  0.03482  0.76374  0.64276  1.0000
  H   H503      1.0  0.07663  0.94180  0.50599  1.0000
  C   C634      1.0  0.08643  0.51563  0.62128  1.0000
  C   C635      1.0  0.07322  0.55028  0.82409  1.0000
  H   H504      1.0  0.12948  0.51430  0.87604  1.0000
  H   H505      1.0  0.18143  0.72403  0.50182  1.0000
  H   H506      1.0  0.20903  0.72725  0.63102  1.0000
  H   H507      1.0  0.16531  0.75681  0.62694  1.0000
  H   H508      1.0  0.14168  0.77583  0.67156  1.0000
  H   H509      1.0  0.16251  0.76480  0.72060  1.0000
  H   H510      1.0  0.20611  0.73485  0.72527  1.0000
  C   C636      1.0  0.12110  0.64430  0.88577  1.0000
  C   C637      1.0  0.11172  0.62554  0.90813  1.0000
  C   C638      1.0  0.07064  0.51447  0.50247  1.0000
  C   C639      1.0  0.08400  0.66301  0.93013  1.0000
  C   C640      1.0  0.09374  0.68233  0.90815  1.0000
  C   C641      1.0  0.11284  0.67255  0.88622  1.0000
  P   P21       1.0  0.08700  0.71947  0.91206  1.0000
  C   C642      1.0  0.06212  0.72581  0.94251  1.0000
  C   C643      1.0  0.12006  0.73349  0.92046  1.0000
  C   C644      1.0  0.12252  0.76235  0.91915  1.0000
  H   H511      1.0  0.18598  0.71291  0.94503  1.0000
  C   C645      1.0  0.18962  0.95253  0.72005  1.0000
  C   C646      1.0  0.17550  0.54841  0.90463  1.0000
  H   H512      1.0  0.19012  0.76378  0.94182  1.0000
  C   C647      1.0  0.03493  0.71586  0.94235  1.0000
  C   C648      1.0  0.10126  0.54642  0.81366  1.0000
  S   S89       1.0  0.12688  0.55375  0.52902  1.0000
  C   C649      1.0  0.07260  0.73912  0.87986  1.0000
  C   C650      1.0  0.05667  0.76422  0.88341  1.0000
  C   C651      1.0  0.04632  0.78042  0.85897  1.0000
  C   C652      1.0  0.05188  0.77170  0.83059  1.0000
  C   C653      1.0  0.06746  0.74668  0.82673  1.0000
  C   C654      1.0  0.07753  0.73043  0.85125  1.0000
  H   H513      1.0  0.13503  0.63708  0.86821  1.0000
  H   H514      1.0  0.11794  0.60358  0.90779  1.0000
  C   C655      1.0  0.17045  0.49473  0.77017  1.0000
  H   H515      1.0  0.24201  0.58351  0.80602  1.0000
  H   H516      1.0  0.12212  0.68647  0.86973  1.0000
  H   H517      1.0  0.10498  0.77655  0.91247  1.0000
  C   C656      1.0  0.21961  0.85080  0.72275  1.0000
  C   C657      1.0  0.24227  0.60638  0.96518  1.0000
  C   C658      1.0  0.06547  0.54054  0.85267  1.0000
  C   C659      1.0  0.12157  0.55024  0.61684  1.0000
  H   H518      1.0  0.02864  0.70472  0.92398  1.0000
  C   C660      1.0  0.18109  0.92584  0.48985  1.0000
  C   C661      1.0  0.17959  0.90502  0.60885  1.0000
  H   H519      1.0  0.05200  0.77115  0.90511  1.0000
  H   H520      1.0  0.03332  0.79931  0.86217  1.0000
  H   H521      1.0  0.04297  0.78359  0.81168  1.0000
  H   H522      1.0  0.07091  0.73925  0.80482  1.0000
  H   H523      1.0  0.08860  0.71095  0.84747  1.0000
  H   H524      1.0  0.00174  0.66588  0.94990  1.0000
  H   H525      1.0  0.02173  0.78161  0.71429  1.0000
  H   H526      1.0  0.03382  0.52890  0.64201  1.0000
  C   C662      1.0  0.02710  0.50175  0.48225  1.0000
  C   C663      1.0  0.09626  0.95225  0.68104  1.0000
  C   C664      1.0  0.17248  0.52697  0.92664  1.0000
  C   C665      1.0  0.22424  0.68003  0.73536  1.0000
  H   H527      1.0  0.04387  0.80259  0.59422  1.0000
  C   C666      1.0  0.12181  0.53248  0.83169  1.0000
  P   P22       1.0  0.07135  0.48582  0.67363  1.0000
  H   H528      1.0  0.05157  0.72155  0.57315  1.0000
  C   C667      1.0  0.00281  0.88616  0.64445  1.0000
  C   C668      1.0  0.23079  0.63139  0.64712  1.0000
  H   H529      1.0  0.11512  0.52345  0.68761  1.0000
  C   C669      1.0  0.15385  0.92051  0.60590  1.0000
  C   C670      1.0  0.18272  0.55985  0.51053  1.0000
  H   H530      1.0  0.14706  0.56322  0.76484  1.0000
  H   H531      1.0  0.12879  0.60876  0.49938  1.0000
  C   C671      1.0  0.16259  0.94416  0.64997  1.0000
  H   H532      1.0  0.07516  0.92319  0.59274  1.0000
  H   H533      1.0  0.18616  0.89002  0.59288  1.0000
  C   C672      1.0  0.17239  0.76087  0.52533  1.0000
  H   H534      1.0  0.13185  0.93474  0.77989  1.0000
  H   H535      1.0  0.21921  0.93235  0.75052  1.0000
  H   H536      1.0  0.15011  0.55495  0.71243  1.0000
  Fe  Fe47      1.0  0.24408  0.79113  0.91239  1.0000
  C   C673      1.0  0.02869  0.65973  0.60076  1.0000
  C   C674      1.0  0.04564  0.50052  0.50556  1.0000
  C   C675      1.0  0.19682  0.49966  0.85796  1.0000
  C   C676      1.0  0.18874  0.92880  0.65227  1.0000
  C   C677      1.0  0.18081  0.53036  0.95527  1.0000
  C   C678      1.0  0.06910  0.74150  0.96591  1.0000
  S   S90       1.0  0.23494  0.49197  0.52391  1.0000
  H   H537      1.0  0.00473  0.95518  0.55254  1.0000
  C   C679      1.0  0.00090  0.72835  0.82615  1.0000
  H   H538      1.0  0.21756  0.89823  0.63398  1.0000
  Fe  Fe48      1.0  0.23972  0.77855  0.57720  1.0000
  H   H539      1.0  0.00871  0.89152  0.70147  1.0000
  S   S91       1.0  0.23276  0.53124  0.73595  1.0000
  H   H540      1.0  0.09562  0.75885  0.48148  1.0000
  H   H541      1.0  0.17810  0.51398  0.97257  1.0000
  H   H542      1.0  0.21046  0.93003  0.84402  1.0000
  C   C680      1.0  0.02883  0.68550  0.58481  1.0000
  H   H543      1.0  0.01630  0.83269  0.70475  1.0000
  C   C681      1.0  0.22794  0.93765  0.83029  1.0000
  H   H544      1.0  0.14164  0.55784  0.65699  1.0000
  H   H545      1.0  0.20855  0.96396  0.93107  1.0000
  H   H546      1.0  0.21921  0.88110  0.75572  1.0000
  H   H547      1.0  0.22333  0.86567  0.70434  1.0000
  C   C682      1.0  0.24042  0.96191  0.83657  1.0000
  H   H548      1.0  0.13562  0.81933  0.49888  1.0000
  H   H549      1.0  0.23480  0.53556  0.61882  1.0000
  C   C683      1.0  0.17081  0.49679  0.48641  1.0000
  H   H550      1.0  0.10908  0.90830  0.94042  1.0000
  C   C684      1.0  0.04602  0.84391  0.64131  1.0000
  C   C685      1.0  0.14575  0.79863  0.49902  1.0000
  H   H551      1.0  0.00987  0.71047  0.81551  1.0000
  H   H552      1.0  0.10620  0.93254  0.54894  1.0000
  H   H553      1.0  0.10600  0.93191  0.68761  1.0000
  H   H554      1.0  0.22368  0.61126  0.65516  1.0000
  C   C686      1.0  0.16020  0.52069  0.77972  1.0000
  C   C687      1.0  0.02843  0.78876  0.58796  1.0000
  C   C688      1.0  0.16551  0.51204  0.71914  1.0000
  C   C689      1.0  0.23453  0.51573  0.57743  1.0000
  C   C690      1.0  0.07805  0.94445  0.58449  1.0000
  C   C691      1.0  0.09379  0.63509  0.93071  1.0000
  H   H555      1.0  0.22335  0.47944  0.89155  1.0000
  H   H556      1.0  0.18312  0.75253  0.54498  1.0000
  C   C692      1.0  0.14557  0.94036  0.62597  1.0000
  H   H557      1.0  0.01315  0.60512  0.73033  1.0000
  H   H558      1.0  0.05054  0.95784  0.79195  1.0000
  H   H559      1.0  0.08508  0.51355  0.52055  1.0000
  H   H560      1.0  0.22631  0.53435  0.56517  1.0000
  C   C693      1.0  0.09651  0.93975  0.90692  1.0000
  C   C694      1.0  0.22573  0.67275  0.76559  1.0000
  S   S92       1.0  0.23869  0.82271  0.94541  1.0000
  H   H561      1.0  0.12597  0.95271  0.62246  1.0000
  C   C695      1.0  0.11400  0.52383  0.86095  1.0000
  H   H562      1.0  0.10664  0.55480  0.79168  1.0000
  P   P23       1.0  0.15827  0.52730  0.81851  1.0000
  C   C696      1.0  0.10704  0.93043  0.93445  1.0000
  H   H563      1.0  0.20778  0.51865  0.85753  1.0000
  C   C697      1.0  0.17331  0.49757  0.84046  1.0000
  C   C698      1.0  0.03137  0.89258  0.64460  1.0000
  C   C699      1.0  0.19938  0.59974  0.48048  1.0000
  C   C700      1.0  0.03338  0.49299  0.67350  1.0000
  H   H564      1.0  0.08008  0.52157  0.89397  1.0000
  C   C701      1.0  0.05291  0.87142  0.64340  1.0000
  C   C702      1.0  0.01333  0.86415  0.83420  1.0000
  H   H565      1.0  0.04895  0.96200  0.61643  1.0000
  C   C703      1.0  0.11442  0.94949  0.95439  1.0000
  C   C704      1.0  0.17299  0.49045  0.74001  1.0000
  C   C705      1.0  0.15502  0.57228  0.51181  1.0000
  C   C706      1.0  0.21290  0.67056  0.86683  1.0000
  C   C707      1.0  0.11323  0.97480  0.67381  1.0000
  C   C708      1.0  0.08593  0.52770  0.87127  1.0000
  C   C709      1.0  0.11151  0.52605  0.66424  1.0000
  C   C710      1.0  0.23948  0.92192  0.80773  1.0000
  C   C711      1.0  0.09561  0.94986  0.55962  1.0000
  C   C712      1.0  0.15343  0.54245  0.75845  1.0000
  H   H566      1.0  0.01072  0.69314  0.57207  1.0000
  C   C713      1.0  0.07695  0.53011  0.47628  1.0000
  C   C714      1.0  0.14927  0.95910  0.51416  1.0000
  C   C715      1.0  0.18994  0.93718  0.53954  1.0000
  H   H567      1.0  0.07494  0.87625  0.64379  1.0000
  Fe  Fe49      1.0  0.22865  0.81519  0.63102  1.0000
  H   H568      1.0  0.20791  0.66328  0.77706  1.0000
  C   C716      1.0  0.12665  0.54560  0.64693  1.0000
  C   C717      1.0  0.24046  0.49125  0.56263  1.0000
  H   H569      1.0  0.21028  0.78237  0.73829  1.0000
  H   H570      1.0  0.20305  0.93446  0.55868  1.0000
  H   H571      1.0  0.16739  0.97610  0.81591  1.0000
  C   C718      1.0  0.17135  0.74482  0.50102  1.0000
  H   H572      1.0  0.14108  0.69363  0.93317  1.0000
  C   C719      1.0  0.19744  0.92232  0.51492  1.0000
  C   C720      1.0  0.24670  0.69296  0.72003  1.0000
  C   C721      1.0  0.01147  0.85219  0.80740  1.0000
  H   H573      1.0  0.01904  0.55136  0.76983  1.0000
  H   H574      1.0  0.04385  0.54427  0.86088  1.0000
  H   H575      1.0  0.22566  0.56294  0.49267  1.0000
  H   H576      1.0  0.16344  0.91384  0.94277  1.0000
  C   C722      1.0  0.19208  0.55517  0.96186  1.0000
  H   H577      1.0  0.21433  0.68542  0.84781  1.0000
  H   H578      1.0  0.05778  0.94588  0.74006  1.0000
  C   C723      1.0  0.14796  0.93966  0.76307  1.0000
  C   C724      1.0  0.23420  0.64953  0.87185  1.0000
  C   C725      1.0  0.16813  0.72665  0.93802  1.0000
  C   C726      1.0  0.20474  0.57321  0.49439  1.0000
  C   C727      1.0  0.01997  0.76722  0.60783  1.0000
  H   H579      1.0  0.23087  0.90239  0.80374  1.0000
  H   H580      1.0  0.11808  0.95783  0.73229  1.0000
  C   C728      1.0  0.17216  0.61282  0.48361  1.0000
  C   C729      1.0  0.23935  0.51650  0.60791  1.0000
  Fe  Fe50      1.0  0.24041  0.57668  0.72715  1.0000
  C   C730      1.0  0.01767  0.83772  0.64031  1.0000
  C   C731      1.0  0.15706  0.94421  0.48939  1.0000
  H   H581      1.0  0.16457  0.95691  0.90504  1.0000
  H   H582      1.0  0.22855  0.64687  0.69009  1.0000
  P   P24       1.0  0.15141  0.96976  0.67607  1.0000
  S   S93       1.0  0.23930  0.73450  0.56236  1.0000
  H   H583      1.0  0.23256  0.97299  0.85534  1.0000
  S   S94       1.0  0.99926  0.67330  0.73435  1.0000
  H   H584      1.0  0.04034  0.48933  0.52623  1.0000
  C   C732      1.0  0.23696  0.63697  0.61705  1.0000
  H   H585      1.0  0.23488  0.62107  0.60171  1.0000
  C   C733      1.0  0.15744  0.75561  0.47570  1.0000
  H   H586      1.0  0.00225  0.54253  0.72058  1.0000
  S   S95       1.0  0.99754  0.90395  0.48616  1.0000
  C   C734      1.0  0.24153  0.67845  0.65684  1.0000
  C   C735      1.0  0.11136  0.97810  0.94619  1.0000
  P   P25       1.0  0.24290  0.70592  0.68193  1.0000
  C   C736      1.0  0.99967  0.74954  0.59972  1.0000
  C   C737      1.0  0.16434  0.48724  0.60517  1.0000
  S   S96       1.0  0.99776  0.75432  0.77009  1.0000
  H   H587      1.0  0.24574  0.56121  0.97074  1.0000
  H   H588      1.0  0.08508  0.97540  0.87771  1.0000
  H   H589      1.0  0.10889  0.68473  0.97491  1.0000
  H   H590      1.0  0.22666  0.86244  0.47852  1.0000
  C   C738      1.0  0.22252  0.81845  0.47749  1.0000
  C   C739      1.0  0.24542  0.66321  0.60678  1.0000
  H   H591      1.0  0.24675  0.65084  0.96259  1.0000
  C   C740      1.0  0.24748  0.68389  0.62650  1.0000
  C   C741      1.0  0.14868  0.47874  0.58227  1.0000
  C   C742      1.0  0.33407  0.46140  0.34376  1.0000
  Fe  Fe51      1.0  0.29017  0.42433  0.45696  1.0000
  C   C743      1.0  0.47830  0.43634  0.41565  1.0000
  H   H592      1.0  0.32051  0.46802  0.24529  1.0000
  C   C744      1.0  0.46982  0.47386  0.12557  1.0000
  Fe  Fe52      1.0  0.28748  0.42512  0.02031  1.0000
  S   S97       1.0  0.32046  0.38862  0.02574  1.0000
  S   S98       1.0  0.28928  0.02408  0.02428  1.0000
  Fe  Fe53      1.0  0.47809  0.35877  0.38675  1.0000
  S   S99       1.0  0.43500  0.38088  0.37780  1.0000
  H   H593      1.0  0.43549  0.45658  0.19534  1.0000
  S   S100      1.0  0.33270  0.40234  0.46952  1.0000
  H   H594      1.0  0.42427  0.34834  0.12105  1.0000
  S   S101      1.0  0.44950  0.39902  0.05731  1.0000
  H   H595      1.0  0.33686  0.40935  0.40520  1.0000
  C   C745      1.0  0.31387  0.12508  0.46471  1.0000
  H   H596      1.0  0.40019  0.35246  0.21271  1.0000
  H   H597      1.0  0.38736  0.44383  0.32666  1.0000
  H   H598      1.0  0.26756  0.04036  0.11837  1.0000
  C   C746      1.0  0.37811  0.02341  0.42095  1.0000
  C   C747      1.0  0.44637  0.35489  0.25708  1.0000
  C   C748      1.0  0.43907  0.39675  0.16833  1.0000
  H   H599      1.0  0.29828  0.13965  0.45433  1.0000
  C   C749      1.0  0.35583  0.39211  0.03607  1.0000
  C   C750      1.0  0.37207  0.36839  0.04686  1.0000
  C   C751      1.0  0.40057  0.37014  0.05427  1.0000
  C   C752      1.0  0.41330  0.39557  0.05016  1.0000
  C   C753      1.0  0.39698  0.41932  0.03968  1.0000
  C   C754      1.0  0.36835  0.41768  0.03288  1.0000
  H   H600      1.0  0.26918  0.99520  0.15648  1.0000
  H   H601      1.0  0.41266  0.35180  0.06288  1.0000
  H   H602      1.0  0.40655  0.43911  0.03661  1.0000
  H   H603      1.0  0.35605  0.43614  0.02488  1.0000
  C   C755      1.0  0.36155  0.39933  0.44376  1.0000
  C   C756      1.0  0.38882  0.39160  0.45400  1.0000
  C   C757      1.0  0.41166  0.38605  0.43412  1.0000
  C   C758      1.0  0.40748  0.38880  0.40375  1.0000
  C   C759      1.0  0.38060  0.39795  0.39344  1.0000
  C   C760      1.0  0.35767  0.40307  0.41334  1.0000
  H   H604      1.0  0.43236  0.37936  0.44223  1.0000
  H   H605      1.0  0.37732  0.40045  0.36994  1.0000
  H   H606      1.0  0.46766  0.03181  0.44967  1.0000
  C   C761      1.0  0.42771  0.45658  0.10633  1.0000
  C   C762      1.0  0.39632  0.28703  0.08480  1.0000
  C   C763      1.0  0.48998  0.43564  0.46724  1.0000
  C   C764      1.0  0.42935  0.15756  0.44835  1.0000
  C   C765      1.0  0.36470  0.46242  0.25537  1.0000
  H   H607      1.0  0.34730  0.15303  0.45856  1.0000
  H   H608      1.0  0.25365  0.10605  0.03044  1.0000
  H   H609      1.0  0.33939  0.33455  0.44495  1.0000
  H   H610      1.0  0.36739  0.40216  0.20300  1.0000
  C   C766      1.0  0.45682  0.45371  0.11111  1.0000
  H   H611      1.0  0.42258  0.27734  0.12243  1.0000
  C   C767      1.0  0.26414  0.05508  0.09953  1.0000
  C   C768      1.0  0.40832  0.31535  0.42884  1.0000
  H   H612      1.0  0.32513  0.99029  0.45934  1.0000
  C   C769      1.0  0.28762  0.06623  0.08455  1.0000
  H   H613      1.0  0.33917  0.46936  0.16493  1.0000
  C   C770      1.0  0.49534  0.43548  0.00649  1.0000
  C   C771      1.0  0.34157  0.43463  0.22221  1.0000
  S   S102      1.0  0.26842  0.42636  0.41363  1.0000
  H   H614      1.0  0.28424  0.09315  0.47449  1.0000
  H   H615      1.0  0.37364  0.06519  0.40092  1.0000
  H   H616      1.0  0.36800  0.26432  0.98819  1.0000
  H   H617      1.0  0.44826  0.42988  0.45170  1.0000
  H   H618      1.0  0.32760  0.37620  0.11730  1.0000
  H   H619      1.0  0.30138  0.43255  0.34190  1.0000
  H   H620      1.0  0.39345  0.39718  0.28593  1.0000
  P   P26       1.0  0.42410  0.40369  0.22798  1.0000
  H   H621      1.0  0.44096  0.34124  0.02033  1.0000
  C   C772      1.0  0.43868  0.38314  0.14218  1.0000
  C   C773      1.0  0.29350  0.46897  0.31250  1.0000
  H   H622      1.0  0.32323  0.07247  0.41713  1.0000
  C   C774      1.0  0.45289  0.42657  0.22869  1.0000
  H   H623      1.0  0.39993  0.36321  0.32846  1.0000
  H   H624      1.0  0.47574  0.40195  0.26308  1.0000
  Fe  Fe54      1.0  0.31648  0.02290  0.98224  1.0000
  H   H625      1.0  0.43610  0.32400  0.32600  1.0000
  H   H626      1.0  0.47129  0.37743  0.99908  1.0000
  C   C775      1.0  0.42490  0.38611  0.19401  1.0000
  H   H627      1.0  0.38756  0.22560  0.46905  1.0000
  H   H628      1.0  0.37542  0.29521  0.04386  1.0000
  C   C776      1.0  0.33482  0.05288  0.42278  1.0000
  C   C777      1.0  0.43260  0.43787  0.32507  1.0000
  C   C778      1.0  0.35850  0.40145  0.13436  1.0000
  H   H629      1.0  0.40873  0.45168  0.26224  1.0000
  H   H630      1.0  0.46302  0.43407  0.39885  1.0000
  S   S103      1.0  0.28638  0.47034  0.46015  1.0000
  H   H631      1.0  0.36247  0.34859  0.04952  1.0000
  H   H632      1.0  0.38705  0.43116  0.14676  1.0000
  H   H633      1.0  0.30209  0.09280  0.04767  1.0000
  Fe  Fe55      1.0  0.48468  0.36724  0.07197  1.0000
  C   C779      1.0  0.43608  0.06424  0.43727  1.0000
  C   C780      1.0  0.44667  0.28255  0.05092  1.0000
  C   C781      1.0  0.47385  0.46998  0.21218  1.0000
  C   C782      1.0  0.42638  0.37757  0.25848  1.0000
  C   C783      1.0  0.36706  0.41901  0.21749  1.0000
  H   H634      1.0  0.48704  0.24911  0.45382  1.0000
  H   H635      1.0  0.46527  0.31822  0.28027  1.0000
  H   H636      1.0  0.41801  0.44086  0.09487  1.0000
  H   H637      1.0  0.39557  0.02905  0.99340  1.0000
  C   C784      1.0  0.32485  0.41790  0.09739  1.0000
  C   C785      1.0  0.47004  0.43379  0.44551  1.0000
  C   C786      1.0  0.47696  0.45586  0.01844  1.0000
  C   C787      1.0  0.40700  0.45340  0.32961  1.0000
  H   H638      1.0  0.31958  0.28282  0.97637  1.0000
  H   H639      1.0  0.36703  0.38495  0.14933  1.0000
  H   H640      1.0  0.40293  0.46232  0.39548  1.0000
  C   C788      1.0  0.43727  0.18333  0.43571  1.0000
  H   H641      1.0  0.42846  0.22776  0.43340  1.0000
  H   H642      1.0  0.43255  0.41654  0.31919  1.0000
  C   C789      1.0  0.45477  0.04964  0.45675  1.0000
  C   C790      1.0  0.41103  0.34755  0.16704  1.0000
  C   C791      1.0  0.46826  0.35946  0.98676  1.0000
  C   C792      1.0  0.39160  0.42508  0.23165  1.0000
  S   S104      1.0  0.48617  0.31249  0.38391  1.0000
  C   C793      1.0  0.39021  0.44692  0.25065  1.0000
  H   H643      1.0  0.40408  0.09760  0.43152  1.0000
  C   C794      1.0  0.44583  0.31597  0.98278  1.0000
  H   H644      1.0  0.30753  0.41415  0.08355  1.0000
  C   C795      1.0  0.42456  0.35868  0.14146  1.0000
  C   C796      1.0  0.41103  0.36127  0.19316  1.0000
  C   C797      1.0  0.47482  0.42079  0.24866  1.0000
  C   C798      1.0  0.36325  0.04881  0.41377  1.0000
  C   C799      1.0  0.36110  0.32675  0.44842  1.0000
  C   C800      1.0  0.33636  0.29694  0.97750  1.0000
  H   H645      1.0  0.34519  0.44874  0.36080  1.0000
  S   S105      1.0  0.48476  0.32905  0.10318  1.0000
  H   H646      1.0  0.32268  0.42992  0.21117  1.0000
  C   C801      1.0  0.34035  0.45618  0.24130  1.0000
  C   C802      1.0  0.33612  0.44403  0.09558  1.0000
  C   C803      1.0  0.36456  0.00182  0.43693  1.0000
  H   H647      1.0  0.29936  0.03480  0.44645  1.0000
  H   H648      1.0  0.46713  0.27260  0.09216  1.0000
  Fe  Fe56      1.0  0.26415  0.47712  0.98400  1.0000
  C   C804      1.0  0.45838  0.44916  0.32978  1.0000
  C   C805      1.0  0.36985  0.42761  0.13270  1.0000
  H   H649      1.0  0.46932  0.43596  0.10333  1.0000
  H   H650      1.0  0.37329  0.33102  0.40223  1.0000
  C   C806      1.0  0.45243  0.45147  0.21062  1.0000
  H   H651      1.0  0.39201  0.45347  0.44848  1.0000
  C   C807      1.0  0.38017  0.32474  0.42434  1.0000
  H   H652      1.0  0.37680  0.28903  0.09790  1.0000
  C   C808      1.0  0.44320  0.23615  0.99764  1.0000
  C   C809      1.0  0.39904  0.20656  0.46304  1.0000
  C   C810      1.0  0.33618  0.39653  0.11650  1.0000
  H   H653      1.0  0.40001  0.02022  0.41354  1.0000
  H   H654      1.0  0.45997  0.35251  0.23756  1.0000
  C   C811      1.0  0.43172  0.05149  0.97653  1.0000
  H   H655      1.0  0.44962  0.39135  0.12242  1.0000
  C   C812      1.0  0.45092  0.33887  0.99881  1.0000
  C   C813      1.0  0.42212  0.20781  0.44302  1.0000
  C   C814      1.0  0.35899  0.44899  0.11291  1.0000
  C   C815      1.0  0.46418  0.47703  0.00003  1.0000
  H   H656      1.0  0.40042  0.32836  0.16656  1.0000
  C   C816      1.0  0.49557  0.46400  0.23211  1.0000
  H   H657      1.0  0.46637  0.28096  0.03814  1.0000
  H   H658      1.0  0.30882  0.05994  0.09166  1.0000
  H   H659      1.0  0.27941  0.99310  0.10259  1.0000
  H   H660      1.0  0.47217  0.45494  0.04200  1.0000
  H   H661      1.0  0.43471  0.05783  0.41501  1.0000
  C   C817      1.0  0.33777  0.99138  0.17047  1.0000
  H   H662      1.0  0.32527  0.00933  0.17772  1.0000
  H   H663      1.0  0.34719  0.01019  0.12711  1.0000
  H   H664      1.0  0.49238  0.47177  0.12915  1.0000
  H   H665      1.0  0.42313  0.31417  0.41013  1.0000
  C   C818      1.0  0.44952  0.33546  0.28124  1.0000
  C   C819      1.0  0.41256  0.36072  0.30831  1.0000
  H   H666      1.0  0.45540  0.18438  0.42046  1.0000
  C   C820      1.0  0.43292  0.33858  0.30697  1.0000
  H   H667      1.0  0.47804  0.43665  0.32709  1.0000
  C   C821      1.0  0.49609  0.43941  0.25027  1.0000
  C   C822      1.0  0.38560  0.30483  0.98602  1.0000
  C   C823      1.0  0.33613  0.00627  0.44643  1.0000
  C   C824      1.0  0.44978  0.21081  0.98511  1.0000
  S   S106      1.0  0.25680  0.43160  0.98303  1.0000
  C   C825      1.0  0.34995  0.99177  0.14198  1.0000
  C   C826      1.0  0.34174  0.13264  0.46730  1.0000
  C   C827      1.0  0.41890  0.08680  0.44664  1.0000
  C   C828      1.0  0.40271  0.04582  0.97847  1.0000
  H   H668      1.0  0.27357  0.46240  0.30527  1.0000
  C   C829      1.0  0.36386  0.28655  0.98404  1.0000
  H   H669      1.0  0.26577  0.99520  0.44702  1.0000
  Fe  Fe57      1.0  0.26116  0.47403  0.05258  1.0000
  C   C830      1.0  0.40912  0.38007  0.28412  1.0000
  H   H670      1.0  0.39524  0.34835  0.98391  1.0000
  H   H671      1.0  0.45024  0.23843  0.01960  1.0000
  C   C831      1.0  0.30918  0.45217  0.33312  1.0000
  H   H672      1.0  0.32680  0.46020  0.08060  1.0000
  C   C832      1.0  0.42090  0.28821  0.03677  1.0000
  P   P27       1.0  0.42048  0.29141  0.99688  1.0000
  C   C833      1.0  0.37932  0.33361  0.98156  1.0000
  S   S107      1.0  0.29723  0.47002  0.01891  1.0000
  H   H673      1.0  0.37245  0.98403  0.38136  1.0000
  C   C834      1.0  0.42204  0.28054  0.09861  1.0000
  C   C835      1.0  0.39566  0.29057  0.05398  1.0000
  H   H674      1.0  0.44190  0.13903  0.44286  1.0000
  H   H675      1.0  0.45068  0.41529  0.16826  1.0000
  C   C836      1.0  0.45867  0.47614  0.33895  1.0000
  Fe  Fe58      1.0  0.26208  0.47243  0.41830  1.0000
  C   C837      1.0  0.32133  0.03167  0.43921  1.0000
  H   H676      1.0  0.44667  0.03885  0.98998  1.0000
  C   C838      1.0  0.44714  0.27803  0.08162  1.0000
  C   C839      1.0  0.42844  0.25805  0.98153  1.0000
  C   C840      1.0  0.28384  0.08480  0.05981  1.0000
  S   S108      1.0  0.25298  0.42848  0.05552  1.0000
  C   C841      1.0  0.25655  0.09229  0.05013  1.0000
  C   C842      1.0  0.41758  0.30846  0.45748  1.0000
  H   H677      1.0  0.41283  0.46657  0.97785  1.0000
  H   H678      1.0  0.24805  0.38814  0.36500  1.0000
  H   H679      1.0  0.26398  0.99630  0.39216  1.0000
  H   H680      1.0  0.43951  0.30123  0.46046  1.0000
  H   H681      1.0  0.46186  0.19426  0.99730  1.0000
  C   C843      1.0  0.37970  0.46939  0.43575  1.0000
  C   C844      1.0  0.40602  0.15610  0.46836  1.0000
  C   C845      1.0  0.38580  0.47459  0.40556  1.0000
  Fe  Fe59      1.0  0.25136  0.02172  0.99586  1.0000
  H   H682      1.0  0.28708  0.46243  0.90744  1.0000
  S   S109      1.0  0.27803  0.02402  0.95430  1.0000
  C   C846      1.0  0.44805  0.31069  0.52112  1.0000
  C   C847      1.0  0.40301  0.08759  0.77343  1.0000
  Fe  Fe60      1.0  0.30977  0.01145  0.55830  1.0000
  S   S110      1.0  0.35376  0.02737  0.54734  1.0000
  C   C848      1.0  0.38172  0.45338  0.55423  1.0000
  S   S111      1.0  0.28070  0.02229  0.59636  1.0000
  S   S112      1.0  0.27632  0.02216  0.52442  1.0000
  Fe  Fe61      1.0  0.47820  0.10138  0.61495  1.0000
  H   H683      1.0  0.31521  0.02343  0.79145  1.0000
  S   S113      1.0  0.43796  0.08044  0.63134  1.0000
  C   C849      1.0  0.28067  0.06963  0.88709  1.0000
  S   S114      1.0  0.48416  0.14923  0.90202  1.0000
  S   S115      1.0  0.47846  0.07935  0.95573  1.0000
  C   C850      1.0  0.42412  0.12324  0.70682  1.0000
  C   C851      1.0  0.37739  0.26145  0.54121  1.0000
  C   C852      1.0  0.47696  0.33391  0.94310  1.0000
  C   C853      1.0  0.48128  0.35700  0.95891  1.0000
  H   H684      1.0  0.40388  0.29688  0.58324  1.0000
  C   C854      1.0  0.30711  0.01631  0.88518  1.0000
  C   C855      1.0  0.36571  0.00092  0.84034  1.0000
  H   H685      1.0  0.32467  0.43809  0.52025  1.0000
  C   C856      1.0  0.37664  0.04183  0.57149  1.0000
  C   C857      1.0  0.36985  0.04421  0.60148  1.0000
  C   C858      1.0  0.38893  0.05585  0.61964  1.0000
  C   C859      1.0  0.41488  0.06526  0.60798  1.0000
  C   C860      1.0  0.42166  0.06274  0.57805  1.0000
  C   C861      1.0  0.40257  0.05120  0.55995  1.0000
  H   H686      1.0  0.34996  0.03704  0.61064  1.0000
  H   H687      1.0  0.38349  0.05768  0.64275  1.0000
  H   H688      1.0  0.44154  0.06988  0.56891  1.0000
  H   H689      1.0  0.40781  0.04953  0.53680  1.0000
  C   C862      1.0  0.43969  0.08063  0.49477  1.0000
  C   C863      1.0  0.39297  0.08371  0.94199  1.0000
  C   C864      1.0  0.42193  0.08945  0.94017  1.0000
  C   C865      1.0  0.44157  0.07328  0.95734  1.0000
  H   H690      1.0  0.33325  0.01133  0.73989  1.0000
  H   H691      1.0  0.37805  0.09644  0.92864  1.0000
  C   C866      1.0  0.26606  0.99048  0.73565  1.0000
  H   H692      1.0  0.42910  0.10642  0.92553  1.0000
  C   C867      1.0  0.39072  0.98102  0.94044  1.0000
  H   H693      1.0  0.45167  0.41382  0.52906  1.0000
  C   C868      1.0  0.41535  0.14372  0.68523  1.0000
  H   H694      1.0  0.38811  0.97985  0.77229  1.0000
  C   C869      1.0  0.46567  0.29462  0.54083  1.0000
  C   C870      1.0  0.25030  0.46719  0.57899  1.0000
  C   C871      1.0  0.40400  0.26811  0.52889  1.0000
  C   C872      1.0  0.35385  0.08732  0.49144  1.0000
  C   C873      1.0  0.40125  0.12821  0.52622  1.0000
  C   C874      1.0  0.25420  0.46772  0.60964  1.0000
  C   C875      1.0  0.42714  0.22869  0.94023  1.0000
  C   C876      1.0  0.32974  0.98025  0.80014  1.0000
  C   C877      1.0  0.42549  0.14028  0.53515  1.0000
  C   C878      1.0  0.42901  0.14411  0.56495  1.0000
  C   C879      1.0  0.40859  0.13577  0.58607  1.0000
  C   C880      1.0  0.38422  0.12409  0.57739  1.0000
  C   C881      1.0  0.38047  0.12033  0.54758  1.0000
  H   H695      1.0  0.33866  0.09166  0.80996  1.0000
  H   H696      1.0  0.26100  0.44884  0.62226  1.0000
  C   C882      1.0  0.49012  0.21929  0.49181  1.0000
  C   C883      1.0  0.43119  0.97918  0.90599  1.0000
  H   H697      1.0  0.35712  0.37252  0.60406  1.0000
  H   H698      1.0  0.41339  0.13439  0.82431  1.0000
  H   H699      1.0  0.39211  0.47140  0.60996  1.0000
  H   H700      1.0  0.34720  0.04121  0.82650  1.0000
  H   H701      1.0  0.32001  0.05965  0.49796  1.0000
  H   H702      1.0  0.47086  0.04639  0.50069  1.0000
  C   C884      1.0  0.45658  0.05786  0.48547  1.0000
  H   H703      1.0  0.44783  0.15319  0.57176  1.0000
  H   H704      1.0  0.44224  0.12649  0.71973  1.0000
  S   S116      1.0  0.25008  0.41772  0.48458  1.0000
  H   H705      1.0  0.36164  0.11071  0.54170  1.0000
  H   H706      1.0  0.42686  0.00272  0.53169  1.0000
  H   H707      1.0  0.38285  0.42381  0.59227  1.0000
  C   C885      1.0  0.37465  0.08247  0.78089  1.0000
  C   C886      1.0  0.38044  0.33358  0.59689  1.0000
  H   H708      1.0  0.34447  0.03465  0.89882  1.0000
  H   H709      1.0  0.42334  0.01000  0.93793  1.0000
  C   C887      1.0  0.48240  0.04213  0.86403  1.0000
  H   H710      1.0  0.49649  0.35521  0.49155  1.0000
  C   C888      1.0  0.26457  0.04721  0.88136  1.0000
  H   H711      1.0  0.38652  0.47815  0.51285  1.0000
  H   H712      1.0  0.36876  0.11686  0.59390  1.0000
  H   H713      1.0  0.31799  0.04118  0.69626  1.0000
  H   H714      1.0  0.38035  0.32661  0.62010  1.0000
  H   H715      1.0  0.45241  0.10714  0.84938  1.0000
  H   H716      1.0  0.35832  0.11341  0.66102  1.0000
  H   H717      1.0  0.43825  0.11177  0.78325  1.0000
  H   H718      1.0  0.49220  0.45735  0.93387  1.0000
  H   H719      1.0  0.37378  0.18032  0.49206  1.0000
  H   H720      1.0  0.32011  0.43863  0.61539  1.0000
  C   C889      1.0  0.42035  0.25402  0.95273  1.0000
  C   C890      1.0  0.30949  0.06511  0.89304  1.0000
  S   S117      1.0  0.48329  0.14600  0.62456  1.0000
  C   C891      1.0  0.39361  0.31673  0.57592  1.0000
  C   C892      1.0  0.45916  0.31356  0.95487  1.0000
  C   C893      1.0  0.45937  0.02944  0.87860  1.0000
  C   C894      1.0  0.37173  0.23374  0.54891  1.0000
  C   C895      1.0  0.31177  0.01073  0.73264  1.0000
  H   H721      1.0  0.35132  0.22874  0.55879  1.0000
  H   H722      1.0  0.38815  0.19104  0.55022  1.0000
  C   C896      1.0  0.40262  0.11959  0.81248  1.0000
  C   C897      1.0  0.38313  0.06182  0.96105  1.0000
  C   C898      1.0  0.47550  0.07412  0.71808  1.0000
  C   C899      1.0  0.37659  0.11623  0.67395  1.0000
  H   H723      1.0  0.41088  0.08476  0.87350  1.0000
  H   H724      1.0  0.42744  0.39902  0.57634  1.0000
  H   H725      1.0  0.38478  0.15615  0.65215  1.0000
  H   H726      1.0  0.27431  0.98883  0.82575  1.0000
  C   C900      1.0  0.47060  0.06344  0.77092  1.0000
  H   H727      1.0  0.27032  0.03742  0.67641  1.0000
  C   C901      1.0  0.48773  0.33853  0.50556  1.0000
  P   P28       1.0  0.41108  0.30392  0.51898  1.0000
  P   P29       1.0  0.46388  0.99344  0.89244  1.0000
  P   P30       1.0  0.39731  0.12347  0.48753  1.0000
  H   H728      1.0  0.40147  0.99704  0.67885  1.0000
  H   H729      1.0  0.46991  0.14407  0.76191  1.0000
  C   C902      1.0  0.39350  0.32552  0.54577  1.0000
  P   P31       1.0  0.34793  0.46972  0.56520  1.0000
  C   C903      1.0  0.48782  0.45723  0.95742  1.0000
  C   C904      1.0  0.43115  0.99342  0.51087  1.0000
  H   H730      1.0  0.35510  0.32158  0.49539  1.0000
  H   H731      1.0  0.37883  0.99116  0.95793  1.0000
  H   H732      1.0  0.44336  0.98424  0.83466  1.0000
  C   C905      1.0  0.37024  0.31979  0.47707  1.0000
  C   C906      1.0  0.32260  0.03839  0.89252  1.0000
  C   C907      1.0  0.29835  0.40684  0.59667  1.0000
  C   C908      1.0  0.38100  0.35176  0.53710  1.0000
  C   C909      1.0  0.41853  0.21890  0.53074  1.0000
  H   H733      1.0  0.30892  0.33382  0.96873  1.0000
  C   C910      1.0  0.30070  0.40661  0.54343  1.0000
  H   H734      1.0  0.29560  0.39735  0.52340  1.0000
  H   H735      1.0  0.45754  0.27776  0.55497  1.0000
  H   H736      1.0  0.41218  0.13755  0.60923  1.0000
  C   C911      1.0  0.45910  0.33324  0.50414  1.0000
  C   C912      1.0  0.39539  0.46137  0.52729  1.0000
  C   C913      1.0  0.43227  0.42490  0.53609  1.0000
  C   C914      1.0  0.38531  0.09572  0.69557  1.0000
  H   H737      1.0  0.32144  0.08202  0.89952  1.0000
  C   C915      1.0  0.30328  0.02752  0.70775  1.0000
  C   C916      1.0  0.27835  0.02079  0.87922  1.0000
  S   S118      1.0  0.49142  0.18209  0.54091  1.0000
  C   C917      1.0  0.39242  0.21249  0.54399  1.0000
  H   H738      1.0  0.27812  0.37750  0.57201  1.0000
  C   C918      1.0  0.32421  0.44176  0.56752  1.0000
  H   H739      1.0  0.36106  0.27767  0.54500  1.0000
  C   C919      1.0  0.43326  0.04482  0.88114  1.0000
  C   C920      1.0  0.29117  0.39522  0.57085  1.0000
  C   C921      1.0  0.36060  0.09546  0.80435  1.0000
  C   C922      1.0  0.39346  0.43074  0.57178  1.0000
  C   C923      1.0  0.36791  0.36852  0.55803  1.0000
  H   H740      1.0  0.48329  0.43329  0.49016  1.0000
  C   C924      1.0  0.41867  0.41662  0.56278  1.0000
  H   H741      1.0  0.44126  0.08643  0.51718  1.0000
  C   C925      1.0  0.45874  0.98412  0.50287  1.0000
  C   C926      1.0  0.40878  0.98990  0.49245  1.0000
  C   C927      1.0  0.45808  0.07058  0.74362  1.0000
  S   S119      1.0  0.34622  0.05582  0.96211  1.0000
  H   H742      1.0  0.46641  0.07873  0.69657  1.0000
  P   P32       1.0  0.42001  0.07347  0.74105  1.0000
  H   H743      1.0  0.38120  0.35938  0.51421  1.0000
  C   C928      1.0  0.40950  0.09885  0.71179  1.0000
  C   C929      1.0  0.43069  0.07268  0.87038  1.0000
  C   C930      1.0  0.31492  0.42995  0.59507  1.0000
  H   H744      1.0  0.43110  0.45387  0.49770  1.0000
  H   H745      1.0  0.26674  0.00323  0.87434  1.0000
  H   H746      1.0  0.41492  0.03583  0.89180  1.0000
  H   H747      1.0  0.36379  0.12405  0.83836  1.0000
  H   H748      1.0  0.44427  0.25115  0.51201  1.0000
  C   C931      1.0  0.40925  0.03919  0.73486  1.0000
  C   C932      1.0  0.40980  0.03017  0.70610  1.0000
  C   C933      1.0  0.27638  0.02551  0.69659  1.0000
  C   C934      1.0  0.40182  0.47815  0.96003  1.0000
  H   H749      1.0  0.49056  0.42615  0.58145  1.0000
  C   C935      1.0  0.40180  0.02073  0.75877  1.0000
  H   H750      1.0  0.49290  0.09983  0.50060  1.0000
  H   H751      1.0  0.29113  0.45970  0.85288  1.0000
  H   H752      1.0  0.43448  0.20241  0.52662  1.0000
  H   H753      1.0  0.25434  0.44810  0.56809  1.0000
  C   C936      1.0  0.39331  0.98562  0.72503  1.0000
  C   C937      1.0  0.34779  0.01921  0.82336  1.0000
  H   H754      1.0  0.45766  0.05971  0.79080  1.0000
  C   C938      1.0  0.39156  0.14025  0.66884  1.0000
  H   H755      1.0  0.44788  0.18774  0.94648  1.0000
  C   C939      1.0  0.47962  0.06989  0.85307  1.0000
  C   C940      1.0  0.42413  0.24657  0.52271  1.0000
  H   H756      1.0  0.36322  0.06893  0.76820  1.0000
  H   H757      1.0  0.41678  0.04360  0.68741  1.0000
  H   H758      1.0  0.49457  0.37303  0.94953  1.0000
  H   H759      1.0  0.48873  0.14314  0.71005  1.0000
  C   C941      1.0  0.25776  0.00708  0.71059  1.0000
  H   H760      1.0  0.40244  0.02681  0.78123  1.0000
  H   H761      1.0  0.29070  0.39828  0.61795  1.0000
  C   C942      1.0  0.49427  0.30000  0.54219  1.0000
  C   C943      1.0  0.49245  0.14111  0.75766  1.0000
  H   H762      1.0  0.31694  0.99537  0.88545  1.0000
  H   H763      1.0  0.42711  0.16226  0.68124  1.0000
  C   C944      1.0  0.32598  0.08001  0.48917  1.0000
  H   H764      1.0  0.27083  0.09041  0.88794  1.0000
  C   C945      1.0  0.41675  0.10656  0.78917  1.0000
  C   C946      1.0  0.31715  0.42977  0.54172  1.0000
  C   C947      1.0  0.29320  0.99204  0.74679  1.0000
  C   C948      1.0  0.36744  0.35945  0.58791  1.0000
  C   C949      1.0  0.36183  0.11390  0.48116  1.0000
  C   C950      1.0  0.32970  0.00897  0.80350  1.0000
  H   H765      1.0  0.44189  0.14654  0.51922  1.0000
  H   H766      1.0  0.37916  0.00874  0.85632  1.0000
  C   C951      1.0  0.37465  0.11387  0.82027  1.0000
  C   C952      1.0  0.42067  0.44732  0.51841  1.0000
  H   H767      1.0  0.37315  0.07752  0.69955  1.0000
  H   H768      1.0  0.35829  0.38865  0.55091  1.0000
  C   C953      1.0  0.45397  0.08529  0.85673  1.0000
  H   H769      1.0  0.49468  0.47454  0.59540  1.0000
  C   C954      1.0  0.39380  0.99406  0.75381  1.0000
  H   H770      1.0  0.45587  0.29607  0.94205  1.0000
  H   H771      1.0  0.36895  0.07239  0.50210  1.0000
  C   C955      1.0  0.40142  0.00364  0.70119  1.0000
  H   H772      1.0  0.44575  0.34651  0.48947  1.0000
  H   H773      1.0  0.48710  0.33184  0.92152  1.0000
  C   C956      1.0  0.39879  0.31152  0.48190  1.0000
  C   C957      1.0  0.41575  0.99184  0.92886  1.0000
  H   H774      1.0  0.44476  0.47725  0.89157  1.0000
  H   H775      1.0  0.39230  0.38978  0.47737  1.0000
  H   H776      1.0  0.38741  0.99683  0.49924  1.0000
  H   H777      1.0  0.42152  0.22588  0.91778  1.0000
  C   C958      1.0  0.46947  0.47785  0.96935  1.0000
  H   H778      1.0  0.40927  0.27065  0.93970  1.0000
  H   H779      1.0  0.47287  0.20764  0.48529  1.0000
  C   C959      1.0  0.30592  0.09888  0.47594  1.0000
  C   C960      1.0  0.37331  0.47339  0.95634  1.0000
  H   H780      1.0  0.47599  0.98634  0.51736  1.0000
  S   S120      1.0  0.49585  0.13879  0.81839  1.0000
  H   H781      1.0  0.49700  0.03281  0.92225  1.0000
  H   H782      1.0  0.36268  0.45859  0.97134  1.0000
  H   H783      1.0  0.34695  0.36614  0.97223  1.0000
  H   H784      1.0  0.49001  0.14978  0.48362  1.0000
  C   C961      1.0  0.48669  0.98956  0.92367  1.0000
  C   C962      1.0  0.44188  0.20712  0.95641  1.0000
  C   C963      1.0  0.39118  0.18086  0.47588  1.0000
  S   S121      1.0  0.49722  0.10669  0.56913  1.0000
  C   C964      1.0  0.33034  0.32561  0.97306  1.0000
  C   C965      1.0  0.42069  0.09523  0.47543  1.0000
  C   C966      1.0  0.35184  0.34387  0.97495  1.0000
  S   S122      1.0  0.45393  0.77880  0.29921  1.0000
  C   C967      1.0  0.39716  0.67844  0.36364  1.0000
  S   S123      1.0  0.27087  0.95452  0.20592  1.0000
  H   H785      1.0  0.36499  0.55449  0.37705  1.0000
  C   C968      1.0  0.34815  0.71649  0.34412  1.0000
  P   P33       1.0  0.38396  0.96886  0.44473  1.0000
  H   H786      1.0  0.35425  0.69428  0.03625  1.0000
  C   C969      1.0  0.39521  0.91446  0.10051  1.0000
  C   C970      1.0  0.34120  0.96752  0.18950  1.0000
  H   H787      1.0  0.39710  0.60295  0.19694  1.0000
  Fe  Fe62      1.0  0.31291  0.88757  0.29171  1.0000
  S   S124      1.0  0.30134  0.93367  0.28616  1.0000
  S   S125      1.0  0.35718  0.87713  0.30938  1.0000
  Fe  Fe63      1.0  0.27544  0.92424  0.24769  1.0000
  H   H788      1.0  0.47073  0.91994  0.32344  1.0000
  Fe  Fe64      1.0  0.26374  0.92463  0.31630  1.0000
  C   C971      1.0  0.25449  0.95332  0.39091  1.0000
  S   S126      1.0  0.28969  0.87873  0.25110  1.0000
  S   S127      1.0  0.27605  0.87898  0.32297  1.0000
  C   C972      1.0  0.24935  0.92871  0.43947  1.0000
  S   S128      1.0  0.30609  0.62217  0.46611  1.0000
  C   C973      1.0  0.25572  0.95242  0.45380  1.0000
  H   H789      1.0  0.33210  0.52333  0.39003  1.0000
  S   S129      1.0  0.28101  0.70369  0.23254  1.0000
  C   C974      1.0  0.38757  0.76446  0.35721  1.0000
  S   S130      1.0  0.27559  0.66016  0.12432  1.0000
  H   H790      1.0  0.44640  0.95814  0.43747  1.0000
  Fe  Fe65      1.0  0.43832  0.76863  0.19215  1.0000
  S   S131      1.0  0.42909  0.81471  0.18773  1.0000
  S   S132      1.0  0.40283  0.73999  0.18390  1.0000
  Fe  Fe66      1.0  0.46130  0.81381  0.15080  1.0000
  S   S133      1.0  0.32208  0.97592  0.98474  1.0000
  Fe  Fe67      1.0  0.46556  0.81883  0.21749  1.0000
  S   S134      1.0  0.46494  0.85764  0.24402  1.0000
  S   S135      1.0  0.47049  0.76777  0.15401  1.0000
  S   S136      1.0  0.47238  0.77212  0.22538  1.0000
  C   C975      1.0  0.28968  0.73005  0.34867  1.0000
  H   H791      1.0  0.35763  0.83689  0.42255  1.0000
  S   S137      1.0  0.27549  0.65186  0.40619  1.0000
  Fe  Fe68      1.0  0.31151  0.65907  0.43429  1.0000
  S   S138      1.0  0.31505  0.70177  0.45025  1.0000
  Fe  Fe69      1.0  0.30644  0.62630  0.37866  1.0000
  S   S139      1.0  0.29820  0.58727  0.40737  1.0000
  S   S140      1.0  0.31171  0.63513  0.32803  1.0000
  Fe  Fe70      1.0  0.27016  0.61399  0.43753  1.0000
  Fe  Fe71      1.0  0.33462  0.59919  0.43405  1.0000
  C   C976      1.0  0.38579  0.56227  0.21169  1.0000
  S   S141      1.0  0.34333  0.63706  0.40476  1.0000
  Fe  Fe72      1.0  0.33270  0.61626  0.08200  1.0000
  S   S142      1.0  0.34365  0.64975  0.11063  1.0000
  S   S143      1.0  0.36327  0.59046  0.05421  1.0000
  Fe  Fe73      1.0  0.31128  0.63102  0.14327  1.0000
  S   S144      1.0  0.32470  0.61088  0.18971  1.0000
  Fe  Fe74      1.0  0.30699  0.67525  0.08892  1.0000
  S   S145      1.0  0.30554  0.71925  0.06534  1.0000
  S   S146      1.0  0.30090  0.59739  0.11333  1.0000
  S   S147      1.0  0.29941  0.64269  0.05854  1.0000
  C   C977      1.0  0.48893  0.87938  0.33710  1.0000
  C   C978      1.0  0.28982  0.72782  0.03026  1.0000
  C   C979      1.0  0.29008  0.75524  0.01729  1.0000
  H   H792      1.0  0.38013  0.87923  0.40575  1.0000
  H   H793      1.0  0.29851  0.77121  0.02938  1.0000
  C   C980      1.0  0.41684  0.63078  0.39756  1.0000
  C   C981      1.0  0.31585  0.62712  0.28992  1.0000
  C   C982      1.0  0.31881  0.64901  0.26819  1.0000
  C   C983      1.0  0.32224  0.64406  0.23792  1.0000
  C   C984      1.0  0.32231  0.61729  0.22840  1.0000
  C   C985      1.0  0.32043  0.59502  0.25020  1.0000
  C   C986      1.0  0.31709  0.59987  0.28067  1.0000
  H   H794      1.0  0.31781  0.67019  0.27464  1.0000
  H   H795      1.0  0.32456  0.66100  0.22165  1.0000
  H   H796      1.0  0.32044  0.57402  0.24346  1.0000
  H   H797      1.0  0.31513  0.58261  0.29695  1.0000
  C   C987      1.0  0.45079  0.56585  0.08990  1.0000
  C   C988      1.0  0.43066  0.58002  0.10767  1.0000
  C   C989      1.0  0.40340  0.58740  0.09723  1.0000
  C   C990      1.0  0.39629  0.58032  0.06918  1.0000
  C   C991      1.0  0.41617  0.56533  0.05206  1.0000
  C   C992      1.0  0.44341  0.55826  0.06224  1.0000
  H   H798      1.0  0.38801  0.59874  0.11074  1.0000
  H   H799      1.0  0.41044  0.55939  0.03075  1.0000
  H   H800      1.0  0.45872  0.54690  0.04869  1.0000
  C   C993      1.0  0.29796  0.82996  0.08190  1.0000
  C   C994      1.0  0.35179  0.68651  0.01478  1.0000
  H   H801      1.0  0.37955  0.51984  0.22655  1.0000
  C   C995      1.0  0.43572  0.53236  0.40811  1.0000
  H   H802      1.0  0.26710  0.73516  0.35040  1.0000
  C   C996      1.0  0.47545  0.86491  0.27984  1.0000
  C   C997      1.0  0.46879  0.89177  0.28895  1.0000
  C   C998      1.0  0.47582  0.89903  0.31707  1.0000
  H   H803      1.0  0.39900  0.65132  0.32753  1.0000
  H   H804      1.0  0.45778  0.90700  0.27420  1.0000
  C   C999      1.0  0.44347  0.73458  0.46613  1.0000
  C   C1000     1.0  0.47242  0.83169  0.07979  1.0000
  C   C1001     1.0  0.46571  0.84075  0.05082  1.0000
  H   H805      1.0  0.36405  0.64450  0.02928  1.0000
  H   H806      1.0  0.44487  0.85016  0.04618  1.0000
  H   H807      1.0  0.47352  0.48898  0.19796  1.0000
  C   C1002     1.0  0.31343  0.71620  0.21709  1.0000
  C   C1003     1.0  0.32464  0.70853  0.18974  1.0000
  C   C1004     1.0  0.35139  0.71710  0.17950  1.0000
  C   C1005     1.0  0.36749  0.73340  0.19636  1.0000
  C   C1006     1.0  0.35560  0.74240  0.22295  1.0000
  C   C1007     1.0  0.32866  0.73393  0.23312  1.0000
  H   H808      1.0  0.31305  0.69528  0.17687  1.0000
  H   H809      1.0  0.35975  0.71063  0.15846  1.0000
  H   H810      1.0  0.36760  0.75496  0.23620  1.0000
  H   H811      1.0  0.31992  0.74043  0.25398  1.0000
  C   C1008     1.0  0.35459  0.77876  0.47215  1.0000
  C   C1009     1.0  0.37239  0.92273  0.08236  1.0000
  H   H812      1.0  0.34340  0.69985  0.38943  1.0000
  C   C1010     1.0  0.25901  0.78493  0.09925  1.0000
  H   H813      1.0  0.38065  0.64486  0.47240  1.0000
  H   H814      1.0  0.48784  0.89924  0.10184  1.0000
  H   H815      1.0  0.41284  0.53352  0.40646  1.0000
  H   H816      1.0  0.39129  0.57408  0.27141  1.0000
  C   C1011     1.0  0.48594  0.83749  0.02780  1.0000
  C   C1012     1.0  0.48439  0.54899  0.29454  1.0000
  C   C1013     1.0  0.29085  0.94938  0.10527  1.0000
  C   C1014     1.0  0.29488  0.92557  0.12485  1.0000
  C   C1015     1.0  0.28912  0.92668  0.15557  1.0000
  C   C1016     1.0  0.27913  0.95165  0.16729  1.0000
  H   H817      1.0  0.30279  0.90616  0.11625  1.0000
  H   H818      1.0  0.29271  0.90830  0.17022  1.0000
  Fe  Fe75      1.0  0.26764  0.62763  0.09273  1.0000
  C   C1017     1.0  0.46044  0.58735  0.98971  1.0000
  H   H819      1.0  0.28895  0.52581  0.13972  1.0000
  H   H820      1.0  0.35282  0.91784  0.37837  1.0000
  P   P34       1.0  0.38607  0.70952  0.34154  1.0000
  C   C1018     1.0  0.34074  0.50417  0.43282  1.0000
  C   C1019     1.0  0.37860  0.53583  0.33617  1.0000
  H   H821      1.0  0.25880  0.51632  0.20356  1.0000
  H   H822      1.0  0.26780  0.72697  0.14646  1.0000
  C   C1020     1.0  0.37100  0.55792  0.35401  1.0000
  H   H823      1.0  0.43621  0.58570  0.12924  1.0000
  S   S148      1.0  0.44808  0.83781  0.10880  1.0000
  C   C1021     1.0  0.42758  0.80681  0.30153  1.0000
  C   C1022     1.0  0.40290  0.80673  0.28506  1.0000
  C   C1023     1.0  0.38100  0.82791  0.28714  1.0000
  C   C1024     1.0  0.38349  0.84936  0.30593  1.0000
  C   C1025     1.0  0.40770  0.84892  0.32303  1.0000
  C   C1026     1.0  0.42939  0.82770  0.32106  1.0000
  H   H824      1.0  0.40091  0.79035  0.27032  1.0000
  H   H825      1.0  0.36246  0.82778  0.27398  1.0000
  H   H826      1.0  0.40974  0.86503  0.33804  1.0000
  H   H827      1.0  0.44723  0.82713  0.33523  1.0000
  H   H828      1.0  0.32334  0.51595  0.44320  1.0000
  C   C1027     1.0  0.38878  0.68519  0.25692  1.0000
  C   C1028     1.0  0.41350  0.69646  0.24495  1.0000
  C   C1029     1.0  0.42161  0.71557  0.29147  1.0000
  C   C1030     1.0  0.39658  0.70491  0.30354  1.0000
  C   C1031     1.0  0.38033  0.68938  0.28615  1.0000
  C   C1032     1.0  0.33385  0.73007  0.32013  1.0000
  C   C1033     1.0  0.30464  0.73624  0.32222  1.0000
  C   C1034     1.0  0.26838  0.53414  0.13312  1.0000
  H   H829      1.0  0.37567  0.67406  0.24326  1.0000
  H   H830      1.0  0.41989  0.69387  0.22217  1.0000
  H   H831      1.0  0.36105  0.68068  0.29518  1.0000
  H   H832      1.0  0.36642  0.76801  0.34896  1.0000
  H   H833      1.0  0.34524  0.73600  0.29978  1.0000
  H   H834      1.0  0.29365  0.74581  0.30324  1.0000
  H   H835      1.0  0.37590  0.61239  0.30267  1.0000
  S   S149      1.0  0.48479  0.55631  0.10262  1.0000
  H   H836      1.0  0.42297  0.96299  0.14961  1.0000
  C   C1035     1.0  0.25622  0.56494  0.31826  1.0000
  C   C1036     1.0  0.47732  0.75597  0.03029  1.0000
  C   C1037     1.0  0.45958  0.74710  0.05410  1.0000
  C   C1038     1.0  0.47144  0.73878  0.08140  1.0000
  P   P35       1.0  0.42286  0.74184  0.04872  1.0000
  C   C1039     1.0  0.40970  0.76326  0.01753  1.0000
  C   C1040     1.0  0.42227  0.70513  0.04348  1.0000
  C   C1041     1.0  0.43630  0.69438  0.01859  1.0000
  C   C1042     1.0  0.43819  0.66573  0.01530  1.0000
  C   C1043     1.0  0.42638  0.64757  0.03704  1.0000
  C   C1044     1.0  0.41268  0.65807  0.06197  1.0000
  C   C1045     1.0  0.41067  0.68666  0.06527  1.0000
  C   C1046     1.0  0.39418  0.75186  0.99613  1.0000
  C   C1047     1.0  0.40084  0.75304  0.07942  1.0000
  C   C1048     1.0  0.40992  0.77291  0.09753  1.0000
  C   C1049     1.0  0.39260  0.78167  0.12107  1.0000
  C   C1050     1.0  0.36618  0.77064  0.12674  1.0000
  C   C1051     1.0  0.35657  0.75168  0.10816  1.0000
  C   C1052     1.0  0.37353  0.74345  0.08414  1.0000
  C   C1053     1.0  0.47703  0.66134  0.26228  1.0000
  C   C1054     1.0  0.35718  0.48422  0.44937  1.0000
  P   P36       1.0  0.37355  0.48278  0.11068  1.0000
  H   H837      1.0  0.46885  0.76196  0.00885  1.0000
  H   H838      1.0  0.45836  0.73110  0.09988  1.0000
  H   H839      1.0  0.44639  0.70811  0.00208  1.0000
  H   H840      1.0  0.29589  0.85620  0.13439  1.0000
  H   H841      1.0  0.42808  0.62533  0.03494  1.0000
  H   H842      1.0  0.40383  0.64401  0.07901  1.0000
  H   H843      1.0  0.40053  0.69396  0.08517  1.0000
  H   H844      1.0  0.39163  0.72978  0.99690  1.0000
  H   H845      1.0  0.43037  0.78166  0.09373  1.0000
  H   H846      1.0  0.40011  0.79635  0.13551  1.0000
  H   H847      1.0  0.35346  0.77626  0.14594  1.0000
  H   H848      1.0  0.33602  0.74318  0.11249  1.0000
  H   H849      1.0  0.36539  0.72937  0.06950  1.0000
  H   H850      1.0  0.30172  0.91475  0.37108  1.0000
  C   C1055     1.0  0.42501  0.64842  0.18337  1.0000
  C   C1056     1.0  0.41806  0.67114  0.16389  1.0000
  C   C1057     1.0  0.43475  0.67658  0.13854  1.0000
  C   C1058     1.0  0.45774  0.65836  0.13180  1.0000
  H   H851      1.0  0.27779  0.68662  0.02352  1.0000
  H   H852      1.0  0.33317  0.88590  0.05389  1.0000
  H   H853      1.0  0.40036  0.68520  0.16918  1.0000
  H   H854      1.0  0.43025  0.69537  0.12471  1.0000
  C   C1059     1.0  0.34115  0.49157  0.16246  1.0000
  C   C1060     1.0  0.36999  0.58531  0.34181  1.0000
  H   H855      1.0  0.27820  0.87200  0.38843  1.0000
  H   H856      1.0  0.31579  0.55065  0.19385  1.0000
  H   H857      1.0  0.35855  0.92577  0.19526  1.0000
  C   C1061     1.0  0.40257  0.65304  0.35064  1.0000
  H   H858      1.0  0.36757  0.73573  0.41662  1.0000
  C   C1062     1.0  0.43401  0.57682  0.21100  1.0000
  C   C1063     1.0  0.44902  0.51126  0.42622  1.0000
  C   C1064     1.0  0.28099  0.57868  0.98866  1.0000
  C   C1065     1.0  0.38607  0.49919  0.05152  1.0000
  H   H859      1.0  0.48430  0.67955  0.36304  1.0000
  H   H860      1.0  0.41433  0.60160  0.45942  1.0000
  C   C1066     1.0  0.27880  0.84945  0.17833  1.0000
  C   C1067     1.0  0.46446  0.65142  0.28888  1.0000
  H   H861      1.0  0.38979  0.88615  0.20001  1.0000
  C   C1068     1.0  0.38696  0.54189  0.30650  1.0000
  C   C1069     1.0  0.31860  0.80883  0.07574  1.0000
  H   H862      1.0  0.33147  0.96701  0.21150  1.0000
  C   C1070     1.0  0.45176  0.55251  0.39303  1.0000
  C   C1071     1.0  0.35330  0.52682  0.01984  1.0000
  C   C1072     1.0  0.45383  0.49718  0.13468  1.0000
  H   H863      1.0  0.46515  0.66334  0.30816  1.0000
  H   H864      1.0  0.29515  0.86025  0.18806  1.0000
  C   C1073     1.0  0.34461  0.81558  0.06231  1.0000
  C   C1074     1.0  0.36872  0.94397  0.15138  1.0000
  H   H865      1.0  0.25803  0.83831  0.22022  1.0000
  C   C1075     1.0  0.34240  0.70445  0.99130  1.0000
  C   C1076     1.0  0.25900  0.83171  0.13527  1.0000
  H   H866      1.0  0.32510  0.90256  0.97730  1.0000
  C   C1077     1.0  0.25801  0.83704  0.19649  1.0000
  C   C1078     1.0  0.42017  0.91573  0.38563  1.0000
  H   H867      1.0  0.44114  0.56880  0.37919  1.0000
  C   C1079     1.0  0.34373  0.48739  0.33353  1.0000
  H   H868      1.0  0.31453  0.78715  0.08073  1.0000
  C   C1080     1.0  0.30378  0.71694  0.37276  1.0000
  H   H869      1.0  0.46408  0.51345  0.14467  1.0000
  H   H870      1.0  0.27985  0.77602  0.14104  1.0000
  C   C1081     1.0  0.47919  0.66376  0.40825  1.0000
  H   H871      1.0  0.37569  0.96949  0.11079  1.0000
  H   H872      1.0  0.29173  0.64761  0.98873  1.0000
  C   C1082     1.0  0.27887  0.80216  0.31790  1.0000
  C   C1083     1.0  0.30641  0.80768  0.32471  1.0000
  C   C1084     1.0  0.31290  0.81166  0.35381  1.0000
  C   C1085     1.0  0.29190  0.80984  0.37645  1.0000
  C   C1086     1.0  0.26428  0.80409  0.36948  1.0000
  P   P37       1.0  0.30023  0.81825  0.41316  1.0000
  C   C1087     1.0  0.26926  0.81897  0.43761  1.0000
  C   C1088     1.0  0.32555  0.79334  0.43015  1.0000
  C   C1089     1.0  0.33784  0.77117  0.41492  1.0000
  C   C1090     1.0  0.35850  0.75303  0.42824  1.0000
  H   H873      1.0  0.35210  0.48013  0.47263  1.0000
  H   H874      1.0  0.41782  0.91779  0.33829  1.0000
  C   C1091     1.0  0.48380  0.55289  0.32477  1.0000
  C   C1092     1.0  0.25969  0.52357  0.35287  1.0000
  C   C1093     1.0  0.49013  0.84556  0.29916  1.0000
  C   C1094     1.0  0.37865  0.87409  0.18542  1.0000
  H   H875      1.0  0.45267  0.72145  0.44951  1.0000
  C   C1095     1.0  0.48365  0.56829  0.98756  1.0000
  C   C1096     1.0  0.31577  0.85140  0.40738  1.0000
  C   C1097     1.0  0.30023  0.87379  0.39311  1.0000
  C   C1098     1.0  0.31349  0.89790  0.38310  1.0000
  C   C1099     1.0  0.34237  0.89971  0.38720  1.0000
  C   C1100     1.0  0.35777  0.87793  0.40231  1.0000
  C   C1101     1.0  0.34466  0.85380  0.41220  1.0000
  H   H876      1.0  0.39530  0.51241  0.00615  1.0000
  H   H877      1.0  0.48412  0.65562  0.21622  1.0000
  H   H878      1.0  0.32266  0.80952  0.30734  1.0000
  H   H879      1.0  0.33416  0.81696  0.35843  1.0000
  C   C1102     1.0  0.33371  0.79676  0.45900  1.0000
  H   H880      1.0  0.33143  0.76761  0.39298  1.0000
  H   H881      1.0  0.27375  0.79959  0.29520  1.0000
  C   C1103     1.0  0.25821  0.84377  0.44919  1.0000
  Fe  Fe76      1.0  0.44648  0.86700  0.46755  1.0000
  H   H882      1.0  0.26805  0.86316  0.44379  1.0000
  C   C1104     1.0  0.41270  0.62945  0.36753  1.0000
  H   H883      1.0  0.26589  0.77434  0.43886  1.0000
  C   C1105     1.0  0.40267  0.73864  0.35515  1.0000
  C   C1106     1.0  0.42970  0.71188  0.26210  1.0000
  C   C1107     1.0  0.35665  0.50367  0.13844  1.0000
  C   C1108     1.0  0.37780  0.59112  0.31222  1.0000
  C   C1109     1.0  0.44893  0.61195  0.26499  1.0000
  H   H884      1.0  0.36217  0.60212  0.35510  1.0000
  H   H885      1.0  0.40574  0.91758  0.01501  1.0000
  H   H886      1.0  0.28048  0.78322  0.97899  1.0000
  H   H887      1.0  0.41270  0.64588  0.20385  1.0000
  H   H888      1.0  0.44854  0.72111  0.25261  1.0000
  H   H889      1.0  0.43484  0.72695  0.30451  1.0000
  H   H890      1.0  0.34833  0.53750  0.99877  1.0000
  H   H891      1.0  0.26316  0.58534  0.31103  1.0000
  H   H892      1.0  0.26691  0.56802  0.16230  1.0000
  C   C1110     1.0  0.25480  0.52146  0.11107  1.0000
  C   C1111     1.0  0.46923  0.89749  0.17577  1.0000
  C   C1112     1.0  0.33343  0.52792  0.04326  1.0000
  S   S150      1.0  0.47462  0.90049  0.44974  1.0000
  C   C1113     1.0  0.48128  0.55150  0.39572  1.0000
  H   H893      1.0  0.31313  0.53934  0.04055  1.0000
  C   C1114     1.0  0.34619  0.50881  0.40259  1.0000
  H   H894      1.0  0.47207  0.53913  0.33956  1.0000
  H   H895      1.0  0.48536  0.96406  0.47018  1.0000
  H   H896      1.0  0.43885  0.89836  0.10092  1.0000
  H   H897      1.0  0.48622  0.59574  0.43292  1.0000
  C   C1115     1.0  0.38646  0.56943  0.29462  1.0000
  H   H898      1.0  0.37015  0.84849  0.04413  1.0000
  C   C1116     1.0  0.25586  0.55798  0.14594  1.0000
  S   S151      1.0  0.36892  0.56509  0.44487  1.0000
  S   S152      1.0  0.27648  0.50548  0.38349  1.0000
  C   C1117     1.0  0.39978  0.56027  0.46619  1.0000
  C   C1118     1.0  0.39498  0.95336  0.41060  1.0000
  H   H899      1.0  0.29036  0.55852  0.99616  1.0000
  C   C1119     1.0  0.46150  0.62184  0.23814  1.0000
  C   C1120     1.0  0.41260  0.79211  0.01606  1.0000
  S   S153      1.0  0.25315  0.97507  0.99855  1.0000
  C   C1121     1.0  0.43072  0.73540  0.36461  1.0000
  C   C1122     1.0  0.47944  0.64006  0.42778  1.0000
  C   C1123     1.0  0.42539  0.91797  0.15533  1.0000
  C   C1124     1.0  0.33290  0.70998  0.37049  1.0000
  C   C1125     1.0  0.42510  0.90739  0.05671  1.0000
  C   C1126     1.0  0.36921  0.49471  0.38877  1.0000
  H   H900      1.0  0.35852  0.93094  0.03771  1.0000
  H   H901      1.0  0.36890  0.54258  0.11640  1.0000
  C   C1127     1.0  0.47817  0.51095  0.43021  1.0000
  H   H902      1.0  0.36959  0.84291  0.22016  1.0000
  H   H903      1.0  0.36170  0.87091  0.11346  1.0000
  C   C1128     1.0  0.25783  0.80028  0.34024  1.0000
  C   C1129     1.0  0.37618  0.92414  0.05158  1.0000
  H   H904      1.0  0.31369  0.49937  0.20033  1.0000
  C   C1130     1.0  0.40515  0.58271  0.20566  1.0000
  S   S154      1.0  0.29808  0.94674  0.06651  1.0000
  C   C1131     1.0  0.43314  0.49168  0.34361  1.0000
  H   H905      1.0  0.41506  0.65712  0.43386  1.0000
  H   H906      1.0  0.36357  0.56749  0.20820  1.0000
  H   H907      1.0  0.32407  0.51616  0.08857  1.0000
  H   H908      1.0  0.43584  0.87366  0.16225  1.0000
  C   C1132     1.0  0.33983  0.51483  0.07074  1.0000
  H   H909      1.0  0.26354  0.69192  0.31331  1.0000
  H   H910      1.0  0.42433  0.80131  0.03259  1.0000
  H   H911      1.0  0.39793  0.69899  0.40442  1.0000
  C   C1133     1.0  0.40170  0.67968  0.39387  1.0000
  H   H912      1.0  0.41704  0.61001  0.35744  1.0000
  C   C1134     1.0  0.42774  0.78277  0.37920  1.0000
  H   H913      1.0  0.44313  0.71607  0.36220  1.0000
  C   C1135     1.0  0.35234  0.84049  0.14838  1.0000
  C   C1136     1.0  0.41142  0.65592  0.41072  1.0000
  C   C1137     1.0  0.36722  0.84945  0.19700  1.0000
  C   C1138     1.0  0.39992  0.78625  0.36967  1.0000
  Fe  Fe77      1.0  0.49188  0.86967  0.41770  1.0000
  C   C1139     1.0  0.30266  0.49504  0.30256  1.0000
  H   H914      1.0  0.41692  0.91767  0.43268  1.0000
  H   H915      1.0  0.38841  0.80629  0.37074  1.0000
  C   C1140     1.0  0.44321  0.75742  0.37651  1.0000
  C   C1141     1.0  0.46218  0.94748  0.16843  1.0000
  H   H916      1.0  0.43305  0.89627  0.38662  1.0000
  C   C1142     1.0  0.27888  0.70757  0.01401  1.0000
  H   H917      1.0  0.34434  0.57166  0.15221  1.0000
  C   C1143     1.0  0.43419  0.58103  0.97973  1.0000
  P   P38       1.0  0.37475  0.49988  0.34925  1.0000
  C   C1144     1.0  0.37964  0.51251  0.02399  1.0000
  C   C1145     1.0  0.41126  0.92803  0.41165  1.0000
  C   C1146     1.0  0.42140  0.90617  0.08743  1.0000
  C   C1147     1.0  0.40261  0.91659  0.03879  1.0000
  C   C1148     1.0  0.39978  0.80930  0.99362  1.0000
  H   H918      1.0  0.29209  0.71206  0.39320  1.0000
  H   H919      1.0  0.44536  0.90085  0.04679  1.0000
  P   P39       1.0  0.45928  0.60358  0.20498  1.0000
  H   H920      1.0  0.47586  0.55880  0.16715  1.0000
  H   H921      1.0  0.42436  0.61233  0.41052  1.0000
  H   H922      1.0  0.39246  0.52526  0.29218  1.0000
  C   C1149     1.0  0.45050  0.62667  0.29025  1.0000
  H   H923      1.0  0.47863  0.48467  0.34333  1.0000
  H   H924      1.0  0.47088  0.66294  0.11229  1.0000
  H   H925      1.0  0.32360  0.81314  0.47140  1.0000
  C   C1150     1.0  0.42477  0.50017  0.12990  1.0000
  H   H926      1.0  0.48769  0.68070  0.26109  1.0000
  P   P40       1.0  0.26361  0.82185  0.09758  1.0000
  Fe  Fe78      1.0  0.25497  0.66634  0.22303  1.0000
  H   H927      1.0  0.36043  0.79922  0.05741  1.0000
  H   H928      1.0  0.47256  0.53281  0.28634  1.0000
  C   C1151     1.0  0.32788  0.53732  0.17907  1.0000
  H   H929      1.0  0.40196  0.83160  0.99252  1.0000
  C   C1152     1.0  0.43559  0.94452  0.15695  1.0000
  H   H930      1.0  0.46501  0.54473  0.22662  1.0000
  C   C1153     1.0  0.32748  0.50437  0.31320  1.0000
  C   C1154     1.0  0.34366  0.54930  0.15546  1.0000
  H   H931      1.0  0.48314  0.62192  0.14566  1.0000
  H   H932      1.0  0.33295  0.52533  0.30640  1.0000
  S   S155      1.0  0.25656  0.61919  0.21842  1.0000
  C   C1155     1.0  0.36622  0.50046  0.07517  1.0000
  C   C1156     1.0  0.38634  0.96540  0.38301  1.0000
  H   H933      1.0  0.43350  0.51216  0.35172  1.0000
  H   H934      1.0  0.28964  0.50882  0.28796  1.0000
  H   H935      1.0  0.43649  0.49598  0.43832  1.0000
  H   H936      1.0  0.31354  0.60154  0.00612  1.0000
  H   H937      1.0  0.41600  0.59555  0.98244  1.0000
  C   C1157     1.0  0.39485  0.53554  0.22241  1.0000
  H   H938      1.0  0.35174  0.92828  0.09200  1.0000
  C   C1158     1.0  0.35727  0.65836  0.01081  1.0000
  H   H939      1.0  0.43768  0.80013  0.38752  1.0000
  C   C1159     1.0  0.39482  0.95276  0.35702  1.0000
  H   H940      1.0  0.36371  0.47912  0.27015  1.0000
  C   C1160     1.0  0.35427  0.83252  0.17846  1.0000
  C   C1161     1.0  0.25700  0.79386  0.44666  1.0000
  C   C1162     1.0  0.35778  0.53266  0.13517  1.0000
  H   H941      1.0  0.47593  0.64214  0.45123  1.0000
  C   C1163     1.0  0.28002  0.76208  0.98851  1.0000
  C   C1164     1.0  0.42349  0.52935  0.22784  1.0000
  C   C1165     1.0  0.47886  0.92395  0.17811  1.0000
  C   C1166     1.0  0.36319  0.86541  0.13684  1.0000
  H   H942      1.0  0.48069  0.84464  0.00548  1.0000
  C   C1167     1.0  0.32680  0.50843  0.18271  1.0000
  C   C1168     1.0  0.28190  0.62880  0.98406  1.0000
  H   H943      1.0  0.43798  0.59294  0.26655  1.0000
  C   C1169     1.0  0.37644  0.88247  0.15527  1.0000
  C   C1170     1.0  0.26997  0.71412  0.98493  1.0000
  P   P41       1.0  0.39110  0.91444  0.14026  1.0000
  C   C1171     1.0  0.48524  0.61375  0.41727  1.0000
  S   S156      1.0  0.46168  0.83749  0.43353  1.0000
  H   H944      1.0  0.48195  0.87928  0.18377  1.0000
  C   C1172     1.0  0.44276  0.89442  0.16409  1.0000
  H   H945      1.0  0.34638  0.81292  0.18735  1.0000
  H   H946      1.0  0.41315  0.51879  0.13660  1.0000
  C   C1173     1.0  0.36681  0.75673  0.45681  1.0000
  H   H947      1.0  0.34278  0.82718  0.13385  1.0000
  C   C1174     1.0  0.44829  0.63013  0.17713  1.0000
  H   H948      1.0  0.33771  0.72628  0.99452  1.0000
  C   C1175     1.0  0.46457  0.63510  0.15096  1.0000
  H   H949      1.0  0.43049  0.50869  0.23642  1.0000
  S   S157      1.0  0.39877  0.87274  0.47112  1.0000
  S   S158      1.0  0.27120  0.49112  0.09638  1.0000
  C   C1176     1.0  0.26795  0.76787  0.12399  1.0000
  C   C1177     1.0  0.49349  0.58798  0.19438  1.0000
  H   H950      1.0  0.28761  0.87442  0.07790  1.0000
  H   H951      1.0  0.28803  0.55706  0.35116  1.0000
  H   H952      1.0  0.35930  0.62638  0.98094  1.0000
  C   C1178     1.0  0.26104  0.74010  0.12728  1.0000
  C   C1179     1.0  0.29416  0.60287  0.99390  1.0000
  H   H953      1.0  0.37674  0.90620  0.97922  1.0000
  C   C1180     1.0  0.31922  0.91838  0.46579  1.0000
  C   C1181     1.0  0.33872  0.93486  0.45029  1.0000
  C   C1182     1.0  0.35006  0.84334  0.05473  1.0000
  C   C1183     1.0  0.40713  0.48046  0.33908  1.0000
  H   H954      1.0  0.46965  0.96800  0.17020  1.0000
  C   C1184     1.0  0.49642  0.85269  0.32794  1.0000
  C   C1185     1.0  0.27000  0.54899  0.34136  1.0000
  C   C1186     1.0  0.36079  0.94545  0.46503  1.0000
  H   H955      1.0  0.30264  0.90977  0.45423  1.0000
  H   H956      1.0  0.26497  0.83587  0.03375  1.0000
  C   C1187     1.0  0.44022  0.76330  0.45981  1.0000
  H   H957      1.0  0.46289  0.60682  0.99953  1.0000
  H   H958      1.0  0.48814  0.49569  0.44575  1.0000
  C   C1188     1.0  0.27916  0.84705  0.14781  1.0000
  H   H959      1.0  0.33620  0.93984  0.42694  1.0000
  C   C1189     1.0  0.44298  0.54991  0.22228  1.0000
  C   C1190     1.0  0.41178  0.92797  0.35834  1.0000
  C   C1191     1.0  0.30352  0.85780  0.07407  1.0000
  H   H960      1.0  0.44956  0.65763  0.99632  1.0000
  H   H961      1.0  0.46517  0.75516  0.38279  1.0000
  H   H962      1.0  0.47561  0.68423  0.41654  1.0000
  C   C1192     1.0  0.32940  0.86442  0.06043  1.0000
  H   H963      1.0  0.38231  0.74224  0.46719  1.0000
  C   C1193     1.0  0.35641  0.94388  0.17999  1.0000
  H   H964      1.0  0.44714  0.77238  0.43852  1.0000
  C   C1194     1.0  0.47508  0.64696  0.23690  1.0000
  H   H965      1.0  0.44080  0.61897  0.31082  1.0000
  C   C1195     1.0  0.41905  0.58084  0.46890  1.0000
  C   C1196     1.0  0.44166  0.96793  0.45787  1.0000
  S   S159      1.0  0.49690  0.82148  0.17935  1.0000
  C   C1197     1.0  0.28156  0.97446  0.11708  1.0000
  C   C1198     1.0  0.35415  0.64817  0.98319  1.0000
  C   C1199     1.0  0.41133  0.47963  0.11611  1.0000
  C   C1200     1.0  0.26116  0.97673  0.43642  1.0000
  C   C1201     1.0  0.36567  0.96833  0.13259  1.0000
  Fe  Fe79      1.0  0.49390  0.82326  0.46734  1.0000
  C   C1202     1.0  0.49502  0.56634  0.17524  1.0000
  H   H966      1.0  0.44993  0.49261  0.00973  1.0000
  C   C1203     1.0  0.49430  0.53101  0.41509  1.0000
  Fe  Fe80      1.0  0.29221  0.97723  0.02527  1.0000
  H   H967      1.0  0.40658  0.48837  0.05442  1.0000
  C   C1204     1.0  0.49063  0.61086  0.38701  1.0000
  C   C1205     1.0  0.48954  0.63475  0.36742  1.0000
  C   C1206     1.0  0.27567  0.97553  0.14774  1.0000
  C   C1207     1.0  0.48407  0.66109  0.37808  1.0000
  Fe  Fe81      1.0  0.25152  0.87367  0.28228  1.0000
  H   H968      1.0  0.38767  0.96166  0.33582  1.0000
  H   H969      1.0  0.49344  0.63354  0.34408  1.0000
  H   H970      1.0  0.49561  0.82488  0.29227  1.0000
  S   S160      1.0  0.25109  0.95578  0.35164  1.0000
  C   C1208     1.0  0.24905  0.92901  0.40834  1.0000
  H   H971      1.0  0.24758  0.80320  0.38630  1.0000
  C   C1209     1.0  0.26021  0.97723  0.40527  1.0000
  C   C1210     1.0  0.41370  0.97617  0.46632  1.0000
  C   C1211     1.0  0.41651  0.64715  0.50006  1.0000
  S   S161      1.0  0.47464  0.73777  0.67703  1.0000
  C   C1212     1.0  0.33659  0.49799  0.53929  1.0000
  H   H972      1.0  0.43656  0.62915  0.79009  1.0000
  Fe  Fe82      1.0  0.47263  0.69176  0.68902  1.0000
  S   S162      1.0  0.42605  0.67971  0.69287  1.0000
  S   S163      1.0  0.27952  0.49900  0.80367  1.0000
  Fe  Fe83      1.0  0.30431  0.56525  0.71387  1.0000
  S   S164      1.0  0.29958  0.51917  0.72197  1.0000
  S   S165      1.0  0.35014  0.57398  0.69879  1.0000
  Fe  Fe84      1.0  0.26045  0.52524  0.69500  1.0000
  S   S166      1.0  0.49181  0.86591  0.88678  1.0000
  Fe  Fe85      1.0  0.27248  0.52880  0.76218  1.0000
  C   C1213     1.0  0.38115  0.76911  0.97394  1.0000
  S   S167      1.0  0.26623  0.57094  0.68466  1.0000
  S   S168      1.0  0.27929  0.57457  0.75560  1.0000
  H   H973      1.0  0.43019  0.65575  0.48260  1.0000
  C   C1214     1.0  0.31790  0.73533  0.64872  1.0000
  C   C1215     1.0  0.38369  0.79781  0.97287  1.0000
  H   H974      1.0  0.41334  0.78301  0.52565  1.0000
  C   C1216     1.0  0.49556  0.51257  0.85302  1.0000
  P   P42       1.0  0.45213  0.50499  0.94591  1.0000
  C   C1217     1.0  0.37195  0.50680  0.91408  1.0000
  Fe  Fe86      1.0  0.32675  0.76732  0.78676  1.0000
  S   S169      1.0  0.28517  0.77272  0.76369  1.0000
  S   S170      1.0  0.35125  0.72603  0.77615  1.0000
  Fe  Fe87      1.0  0.31443  0.82353  0.81718  1.0000
  C   C1218     1.0  0.43171  0.52678  0.49300  1.0000
  S   S171      1.0  0.33134  0.86009  0.83988  1.0000
  H   H975      1.0  0.42942  0.85718  0.62007  1.0000
  Fe  Fe88      1.0  0.29425  0.81813  0.75459  1.0000
  S   S172      1.0  0.29513  0.84056  0.70832  1.0000
  S   S173      1.0  0.30792  0.77811  0.83094  1.0000
  S   S174      1.0  0.33683  0.81205  0.77467  1.0000
  Fe  Fe89      1.0  0.46792  0.86502  0.93127  1.0000
  S   S175      1.0  0.48204  0.82073  0.94407  1.0000
  H   H976      1.0  0.39170  0.51742  0.47658  1.0000
  H   H977      1.0  0.47272  0.84621  0.59097  1.0000
  C   C1219     1.0  0.25524  0.58037  0.97431  1.0000
  C   C1220     1.0  0.41302  0.58352  0.87183  1.0000
  C   C1221     1.0  0.43828  0.61353  0.77400  1.0000
  H   H978      1.0  0.34315  0.62766  0.72683  1.0000
  S   S176      1.0  0.47411  0.69193  0.82601  1.0000
  C   C1222     1.0  0.37023  0.63207  0.79585  1.0000
  Fe  Fe90      1.0  0.27487  0.82861  0.58347  1.0000
  S   S177      1.0  0.26674  0.79056  0.61306  1.0000
  S   S178      1.0  0.31961  0.84310  0.58281  1.0000
  Fe  Fe91      1.0  0.26647  0.78468  0.80745  1.0000
  H   H979      1.0  0.40554  0.58380  0.67393  1.0000
  H   H980      1.0  0.25308  0.76249  0.69541  1.0000
  C   C1223     1.0  0.30523  0.58422  0.91641  1.0000
  H   H981      1.0  0.33630  0.72787  0.63616  1.0000
  C   C1224     1.0  0.39735  0.94325  0.90814  1.0000
  C   C1225     1.0  0.31004  0.49893  0.52631  1.0000
  H   H982      1.0  0.27304  0.89246  0.73279  1.0000
  S   S179      1.0  0.42445  0.88360  0.94698  1.0000
  H   H983      1.0  0.43573  0.62399  0.67136  1.0000
  H   H984      1.0  0.27046  0.72135  0.84872  1.0000
  Fe  Fe92      1.0  0.26133  0.85090  0.91288  1.0000
  S   S180      1.0  0.29015  0.87371  0.94140  1.0000
  S   S181      1.0  0.26815  0.81883  0.87909  1.0000
  C   C1226     1.0  0.35976  0.49929  0.81563  1.0000
  C   C1227     1.0  0.32397  0.49897  0.61110  1.0000
  H   H985      1.0  0.46494  0.80879  0.69515  1.0000
  C   C1228     1.0  0.34047  0.88903  0.75960  1.0000
  S   S182      1.0  0.26189  0.96124  0.64780  1.0000
  C   C1229     1.0  0.38718  0.54933  0.81238  1.0000
  H   H986      1.0  0.29686  0.69735  0.64843  1.0000
  C   C1230     1.0  0.43133  0.55573  0.96718  1.0000
  S   S183      1.0  0.26893  0.50886  0.94398  1.0000
  C   C1231     1.0  0.27627  0.74523  0.51506  1.0000
  P   P43       1.0  0.30576  0.96664  0.77527  1.0000
  C   C1232     1.0  0.46991  0.50754  0.90984  1.0000
  H   H987      1.0  0.27805  0.76543  0.52337  1.0000
  H   H988      1.0  0.43291  0.80934  0.73426  1.0000
  C   C1233     1.0  0.40277  0.89422  0.65452  1.0000
  C   C1234     1.0  0.26294  0.93063  0.79096  1.0000
  P   P44       1.0  0.40242  0.58270  0.81175  1.0000
  C   C1235     1.0  0.32077  0.91337  0.49633  1.0000
  H   H989      1.0  0.48410  0.94947  0.56174  1.0000
  H   H990      1.0  0.46720  0.96617  0.78990  1.0000
  C   C1236     1.0  0.37861  0.86023  0.50214  1.0000
  C   C1237     1.0  0.38899  0.85907  0.53066  1.0000
  C   C1238     1.0  0.37075  0.85320  0.55518  1.0000
  C   C1239     1.0  0.34233  0.84764  0.55133  1.0000
  C   C1240     1.0  0.33244  0.84732  0.52278  1.0000
  C   C1241     1.0  0.35046  0.85405  0.49833  1.0000
  H   H991      1.0  0.41059  0.86403  0.53385  1.0000
  H   H992      1.0  0.37851  0.85353  0.57724  1.0000
  H   H993      1.0  0.31055  0.84333  0.51958  1.0000
  C   C1242     1.0  0.32952  0.93944  0.72683  1.0000
  C   C1243     1.0  0.38748  0.87791  0.94548  1.0000
  C   C1244     1.0  0.37608  0.86082  0.92575  1.0000
  C   C1245     1.0  0.34635  0.85937  0.92416  1.0000
  C   C1246     1.0  0.32772  0.87422  0.94274  1.0000
  H   H994      1.0  0.29705  0.62755  0.90527  1.0000
  C   C1247     1.0  0.29142  0.71140  0.47934  1.0000
  H   H995      1.0  0.38983  0.84880  0.91161  1.0000
  H   H996      1.0  0.33752  0.84776  0.90783  1.0000
  H   H997      1.0  0.24868  0.61447  0.90027  1.0000
  C   C1248     1.0  0.44475  0.57335  0.73250  1.0000
  C   C1249     1.0  0.38418  0.71231  0.79087  1.0000
  C   C1250     1.0  0.40507  0.69942  0.77262  1.0000
  C   C1251     1.0  0.43251  0.69162  0.78305  1.0000
  C   C1252     1.0  0.43911  0.69628  0.81204  1.0000
  C   C1253     1.0  0.41731  0.70657  0.83080  1.0000
  C   C1254     1.0  0.39017  0.71472  0.82036  1.0000
  H   H998      1.0  0.40078  0.69730  0.74974  1.0000
  H   H999      1.0  0.44876  0.68334  0.76823  1.0000
  H   H1000     1.0  0.42195  0.70900  0.85340  1.0000
  H   H1001     1.0  0.37412  0.72395  0.83471  1.0000
  C   C1255     1.0  0.26986  0.92716  0.66420  1.0000
  C   C1256     1.0  0.27819  0.90479  0.64733  1.0000
  C   C1257     1.0  0.28468  0.87823  0.66130  1.0000
  C   C1258     1.0  0.28350  0.87375  0.69220  1.0000
  C   C1259     1.0  0.27437  0.89593  0.70907  1.0000
  H   H1002     1.0  0.39074  0.92364  0.90132  1.0000
  H   H1003     1.0  0.27959  0.90779  0.62349  1.0000
  H   H1004     1.0  0.29092  0.86095  0.64803  1.0000
  C   C1260     1.0  0.32412  0.56349  0.92830  1.0000
  C   C1261     1.0  0.45990  0.59729  0.72890  1.0000
  C   C1262     1.0  0.28968  0.93015  0.89460  1.0000
  C   C1263     1.0  0.31914  0.92688  0.89072  1.0000
  C   C1264     1.0  0.33146  0.90590  0.87321  1.0000
  C   C1265     1.0  0.31456  0.88774  0.85961  1.0000
  C   C1266     1.0  0.28514  0.89218  0.86205  1.0000
  C   C1267     1.0  0.27293  0.91330  0.87936  1.0000
  H   H1005     1.0  0.33234  0.93995  0.90177  1.0000
  H   H1006     1.0  0.35422  0.90274  0.87149  1.0000
  H   H1007     1.0  0.27178  0.87892  0.85120  1.0000
  C   C1268     1.0  0.26746  0.92245  0.69513  1.0000
  C   C1269     1.0  0.27674  0.50242  0.84262  1.0000
  C   C1270     1.0  0.27160  0.50534  0.90509  1.0000
  C   C1271     1.0  0.26437  0.52859  0.88574  1.0000
  C   C1272     1.0  0.26729  0.52729  0.85480  1.0000
  C   C1273     1.0  0.43013  0.58626  0.89582  1.0000
  H   H1008     1.0  0.31226  0.56102  0.48616  1.0000
  C   C1274     1.0  0.24921  0.49240  0.62426  1.0000
  H   H1009     1.0  0.47622  0.86732  0.72092  1.0000
  H   H1010     1.0  0.38065  0.94544  0.50745  1.0000
  C   C1275     1.0  0.35109  0.52110  0.79551  1.0000
  H   H1011     1.0  0.39061  0.49070  0.65881  1.0000
  H   H1012     1.0  0.27202  0.67216  0.48540  1.0000
  H   H1013     1.0  0.34966  0.58205  0.84764  1.0000
  C   C1276     1.0  0.44660  0.84525  0.63096  1.0000
  C   C1277     1.0  0.37232  0.60762  0.81455  1.0000
  H   H1014     1.0  0.33681  0.68437  0.50523  1.0000
  H   H1015     1.0  0.35741  0.56285  0.77828  1.0000
  C   C1278     1.0  0.45490  0.53695  0.96382  1.0000
  H   H1016     1.0  0.32223  0.90909  0.79668  1.0000
  C   C1279     1.0  0.29555  0.71813  0.65573  1.0000
  C   C1280     1.0  0.40721  0.64873  0.69814  1.0000
  C   C1281     1.0  0.38088  0.64940  0.71380  1.0000
  C   C1282     1.0  0.36343  0.62655  0.71505  1.0000
  C   C1283     1.0  0.37186  0.60287  0.70013  1.0000
  C   C1284     1.0  0.39840  0.60204  0.68505  1.0000
  C   C1285     1.0  0.41583  0.62479  0.68383  1.0000
  H   H1017     1.0  0.37349  0.66801  0.72436  1.0000
  H   H1018     1.0  0.30483  0.52230  0.64619  1.0000
  C   C1286     1.0  0.34490  0.54325  0.51479  1.0000
  C   C1287     1.0  0.32283  0.64300  0.81536  1.0000
  H   H1019     1.0  0.34401  0.66806  0.78131  1.0000
  H   H1020     1.0  0.30370  0.65652  0.81531  1.0000
  C   C1288     1.0  0.42902  0.78046  0.48136  1.0000
  H   H1021     1.0  0.25227  0.64794  0.85660  1.0000
  H   H1022     1.0  0.34851  0.48031  0.81725  1.0000
  S   S184      1.0  0.25624  0.74841  0.93584  1.0000
  C   C1289     1.0  0.32375  0.51088  0.63828  1.0000
  C   C1290     1.0  0.33822  0.69428  0.96394  1.0000
  H   H1023     1.0  0.39807  0.93462  0.63102  1.0000
  C   C1291     1.0  0.40626  0.53342  0.47866  1.0000
  H   H1024     1.0  0.25217  0.57502  0.54308  1.0000
  C   C1292     1.0  0.34309  0.92314  0.51111  1.0000
  H   H1025     1.0  0.26184  0.54541  0.84038  1.0000
  C   C1293     1.0  0.47859  0.96582  0.81018  1.0000
  C   C1294     1.0  0.34628  0.89103  0.72924  1.0000
  C   C1295     1.0  0.34922  0.60120  0.83373  1.0000
  C   C1296     1.0  0.32708  0.69025  0.55101  1.0000
  H   H1026     1.0  0.34395  0.86937  0.77227  1.0000
  H   H1027     1.0  0.42654  0.80277  0.47651  1.0000
  C   C1297     1.0  0.26995  0.74145  0.97203  1.0000
  C   C1298     1.0  0.25699  0.69993  0.51861  1.0000
  H   H1028     1.0  0.25576  0.54757  0.89472  1.0000
  C   C1299     1.0  0.27076  0.69833  0.73553  1.0000
  C   C1300     1.0  0.29249  0.73778  0.49002  1.0000
  C   C1301     1.0  0.42118  0.54250  0.57634  1.0000
  C   C1302     1.0  0.42290  0.53461  0.60642  1.0000
  C   C1303     1.0  0.40447  0.54747  0.62677  1.0000
  C   C1304     1.0  0.38448  0.56841  0.61718  1.0000
  C   C1305     1.0  0.38331  0.57713  0.58713  1.0000
  C   C1306     1.0  0.40137  0.56356  0.56668  1.0000
  P   P45       1.0  0.36051  0.60674  0.57479  1.0000
  C   C1307     1.0  0.35229  0.62792  0.60579  1.0000
  C   C1308     1.0  0.38147  0.62445  0.54578  1.0000
  C   C1309     1.0  0.37167  0.62905  0.51691  1.0000
  C   C1310     1.0  0.38882  0.64099  0.49439  1.0000
  C   C1311     1.0  0.42698  0.64149  0.52827  1.0000
  C   C1312     1.0  0.40967  0.63007  0.55096  1.0000
  C   C1313     1.0  0.37195  0.64574  0.61519  1.0000
  C   C1314     1.0  0.36572  0.66125  0.63970  1.0000
  C   C1315     1.0  0.34012  0.65863  0.65551  1.0000
  C   C1316     1.0  0.32052  0.64068  0.64675  1.0000
  C   C1317     1.0  0.32652  0.62540  0.62204  1.0000
  C   C1318     1.0  0.32689  0.59612  0.56314  1.0000
  C   C1319     1.0  0.30795  0.61539  0.54828  1.0000
  C   C1320     1.0  0.28120  0.60776  0.54090  1.0000
  C   C1321     1.0  0.27277  0.58106  0.54914  1.0000
  C   C1322     1.0  0.29095  0.56218  0.56513  1.0000
  C   C1323     1.0  0.31782  0.56967  0.57227  1.0000
  H   H1029     1.0  0.43573  0.53290  0.56049  1.0000
  H   H1030     1.0  0.43867  0.51875  0.61400  1.0000
  H   H1031     1.0  0.37054  0.57821  0.63339  1.0000
  H   H1032     1.0  0.40086  0.56980  0.54329  1.0000
  H   H1033     1.0  0.35113  0.62305  0.51125  1.0000
  H   H1034     1.0  0.46686  0.48247  0.84160  1.0000
  H   H1035     1.0  0.41891  0.62449  0.57216  1.0000
  H   H1036     1.0  0.39217  0.64770  0.60401  1.0000
  H   H1037     1.0  0.38112  0.67475  0.64707  1.0000
  H   H1038     1.0  0.33580  0.67002  0.67508  1.0000
  H   H1039     1.0  0.30093  0.63813  0.65952  1.0000
  H   H1040     1.0  0.31114  0.61119  0.61631  1.0000
  H   H1041     1.0  0.31380  0.63633  0.54233  1.0000
  S   S185      1.0  0.47699  0.85102  0.50229  1.0000
  C   C1324     1.0  0.37156  0.70089  0.52591  1.0000
  H   H1042     1.0  0.28437  0.54154  0.57154  1.0000
  H   H1043     1.0  0.33143  0.55481  0.58491  1.0000
  C   C1325     1.0  0.45745  0.66770  0.60814  1.0000
  C   C1326     1.0  0.36864  0.89266  0.96409  1.0000
  H   H1044     1.0  0.38695  0.96501  0.72119  1.0000
  C   C1327     1.0  0.46932  0.69758  0.55460  1.0000
  C   C1328     1.0  0.44212  0.70054  0.56790  1.0000
  C   C1329     1.0  0.43668  0.68603  0.59521  1.0000
  P   P46       1.0  0.41532  0.72525  0.55261  1.0000
  C   C1330     1.0  0.44395  0.83478  0.66067  1.0000
  C   C1331     1.0  0.38188  0.70916  0.55222  1.0000
  C   C1332     1.0  0.33729  0.69799  0.57738  1.0000
  C   C1333     1.0  0.36470  0.70709  0.57812  1.0000
  H   H1045     1.0  0.28444  0.57890  0.91055  1.0000
  H   H1046     1.0  0.28832  0.70867  0.72465  1.0000
  C   C1334     1.0  0.40982  0.75290  0.57694  1.0000
  C   C1335     1.0  0.43114  0.75870  0.59572  1.0000
  C   C1336     1.0  0.42702  0.78084  0.61376  1.0000
  C   C1337     1.0  0.40123  0.79666  0.61389  1.0000
  C   C1338     1.0  0.37960  0.79028  0.59605  1.0000
  C   C1339     1.0  0.38402  0.76897  0.57703  1.0000
  H   H1047     1.0  0.45328  0.65708  0.62957  1.0000
  H   H1048     1.0  0.28093  0.52228  0.49704  1.0000
  C   C1340     1.0  0.39653  0.52702  0.83186  1.0000
  H   H1049     1.0  0.41679  0.68959  0.60713  1.0000
  H   H1050     1.0  0.32378  0.69717  0.59713  1.0000
  H   H1051     1.0  0.37206  0.71348  0.59872  1.0000
  H   H1052     1.0  0.38946  0.48508  0.84901  1.0000
  H   H1053     1.0  0.44878  0.64547  0.53242  1.0000
  H   H1054     1.0  0.45114  0.74648  0.59625  1.0000
  H   H1055     1.0  0.44402  0.78543  0.62750  1.0000
  H   H1056     1.0  0.39773  0.81385  0.62770  1.0000
  C   C1341     1.0  0.25626  0.63054  0.96948  1.0000
  H   H1057     1.0  0.25507  0.70346  0.89861  1.0000
  C   C1342     1.0  0.35064  0.57035  0.93695  1.0000
  S   S186      1.0  0.25036  0.81492  0.54641  1.0000
  C   C1343     1.0  0.42490  0.58387  0.84306  1.0000
  C   C1344     1.0  0.31252  0.61189  0.91364  1.0000
  C   C1345     1.0  0.33914  0.61902  0.92234  1.0000
  C   C1346     1.0  0.35833  0.59792  0.93359  1.0000
  P   P47       1.0  0.34766  0.65500  0.92202  1.0000
  C   C1347     1.0  0.34495  0.66618  0.95925  1.0000
  C   C1348     1.0  0.38425  0.65772  0.90943  1.0000
  C   C1349     1.0  0.40401  0.66872  0.92723  1.0000
  C   C1350     1.0  0.43238  0.66993  0.91778  1.0000
  C   C1351     1.0  0.44121  0.66081  0.89029  1.0000
  C   C1352     1.0  0.42173  0.65029  0.87230  1.0000
  C   C1353     1.0  0.39350  0.64820  0.88203  1.0000
  C   C1354     1.0  0.33918  0.89072  0.96291  1.0000
  C   C1355     1.0  0.42634  0.56934  0.75696  1.0000
  H   H1058     1.0  0.35122  0.92623  0.61154  1.0000
  C   C1356     1.0  0.28147  0.48054  0.89296  1.0000
  C   C1357     1.0  0.43607  0.72302  0.49424  1.0000
  C   C1358     1.0  0.32338  0.67593  0.89826  1.0000
  C   C1359     1.0  0.29554  0.68236  0.90856  1.0000
  C   C1360     1.0  0.28505  0.70831  0.86228  1.0000
  H   H1059     1.0  0.43647  0.50577  0.50200  1.0000
  C   C1361     1.0  0.31267  0.70225  0.85189  1.0000
  C   C1362     1.0  0.33171  0.68594  0.86961  1.0000
  H   H1060     1.0  0.36473  0.55436  0.94712  1.0000
  C   C1363     1.0  0.38150  0.95671  0.93007  1.0000
  H   H1061     1.0  0.37871  0.60305  0.94095  1.0000
  H   H1062     1.0  0.39787  0.67647  0.94843  1.0000
  H   H1063     1.0  0.44750  0.67830  0.93161  1.0000
  H   H1064     1.0  0.46307  0.66235  0.88258  1.0000
  H   H1065     1.0  0.42863  0.64407  0.85058  1.0000
  H   H1066     1.0  0.37886  0.63960  0.86791  1.0000
  H   H1067     1.0  0.32986  0.70858  0.94667  1.0000
  C   C1364     1.0  0.32856  0.91197  0.77356  1.0000
  H   H1068     1.0  0.34409  0.91723  0.68907  1.0000
  C   C1365     1.0  0.42321  0.58927  0.77812  1.0000
  H   H1069     1.0  0.33344  0.51887  0.78146  1.0000
  H   H1070     1.0  0.28857  0.67530  0.93062  1.0000
  C   C1366     1.0  0.49021  0.87171  0.70211  1.0000
  H   H1071     1.0  0.48030  0.94562  0.93229  1.0000
  H   H1072     1.0  0.31946  0.71060  0.83017  1.0000
  H   H1073     1.0  0.35296  0.68214  0.86087  1.0000
  S   S187      1.0  0.48463  0.53537  0.50980  1.0000
  C   C1367     1.0  0.45917  0.58913  0.89143  1.0000
  H   H1074     1.0  0.26701  0.62250  0.52863  1.0000
  C   C1368     1.0  0.42505  0.74012  0.51619  1.0000
  S   S188      1.0  0.27276  0.83075  0.79669  1.0000
  C   C1369     1.0  0.42574  0.88647  0.75302  1.0000
  C   C1370     1.0  0.43770  0.86611  0.77299  1.0000
  C   C1371     1.0  0.43914  0.83829  0.76644  1.0000
  C   C1372     1.0  0.43068  0.83096  0.73911  1.0000
  C   C1373     1.0  0.41980  0.85126  0.71823  1.0000
  C   C1374     1.0  0.41661  0.87908  0.72582  1.0000
  P   P48       1.0  0.41129  0.84102  0.68211  1.0000
  C   C1375     1.0  0.39331  0.80884  0.68931  1.0000
  C   C1376     1.0  0.39067  0.86859  0.66185  1.0000
  C   C1377     1.0  0.36442  0.86400  0.65016  1.0000
  C   C1378     1.0  0.35046  0.88490  0.63225  1.0000
  C   C1379     1.0  0.36228  0.91041  0.62573  1.0000
  C   C1380     1.0  0.40741  0.78280  0.68509  1.0000
  C   C1381     1.0  0.39397  0.75812  0.69219  1.0000
  C   C1382     1.0  0.36653  0.75903  0.70435  1.0000
  C   C1383     1.0  0.35242  0.78467  0.70900  1.0000
  C   C1384     1.0  0.36576  0.80938  0.70173  1.0000
  H   H1075     1.0  0.42334  0.90788  0.75875  1.0000
  H   H1076     1.0  0.44521  0.87159  0.79394  1.0000
  H   H1077     1.0  0.44696  0.82223  0.78250  1.0000
  C   C1385     1.0  0.40024  0.51215  0.91814  1.0000
  H   H1078     1.0  0.40693  0.89516  0.71122  1.0000
  H   H1079     1.0  0.35482  0.84423  0.65386  1.0000
  H   H1080     1.0  0.33058  0.88111  0.62273  1.0000
  H   H1081     1.0  0.30677  0.61352  0.84851  1.0000
  H   H1082     1.0  0.42888  0.78105  0.67673  1.0000
  H   H1083     1.0  0.40515  0.73817  0.68905  1.0000
  H   H1084     1.0  0.35630  0.73988  0.71055  1.0000
  H   H1085     1.0  0.33110  0.78537  0.71848  1.0000
  H   H1086     1.0  0.35447  0.82879  0.70609  1.0000
  H   H1087     1.0  0.37389  0.52065  0.54422  1.0000
  C   C1386     1.0  0.48094  0.54311  0.97492  1.0000
  H   H1088     1.0  0.26203  0.69802  0.97271  1.0000
  H   H1089     1.0  0.24991  0.66783  0.58345  1.0000
  C   C1387     1.0  0.44805  0.75790  0.78232  1.0000
  C   C1388     1.0  0.42502  0.76090  0.76413  1.0000
  C   C1389     1.0  0.39925  0.77224  0.77483  1.0000
  C   C1390     1.0  0.39607  0.77862  0.80438  1.0000
  C   C1391     1.0  0.41949  0.77663  0.82254  1.0000
  C   C1392     1.0  0.44580  0.76748  0.81066  1.0000
  P   P49       1.0  0.41586  0.78927  0.85908  1.0000
  C   C1393     1.0  0.41583  0.82692  0.85369  1.0000
  C   C1394     1.0  0.38227  0.77942  0.87523  1.0000
  C   C1395     1.0  0.36068  0.79924  0.88218  1.0000
  C   C1396     1.0  0.33621  0.79104  0.89781  1.0000
  C   C1397     1.0  0.33277  0.76302  0.90580  1.0000
  C   C1398     1.0  0.35440  0.74331  0.89916  1.0000
  C   C1399     1.0  0.37908  0.75149  0.88448  1.0000
  C   C1400     1.0  0.43027  0.84260  0.87237  1.0000
  C   C1401     1.0  0.42678  0.87178  0.87004  1.0000
  C   C1402     1.0  0.41025  0.88550  0.84821  1.0000
  C   C1403     1.0  0.39679  0.87015  0.82875  1.0000
  C   C1404     1.0  0.39936  0.84111  0.83155  1.0000
  C   C1405     1.0  0.43903  0.77233  0.88691  1.0000
  C   C1406     1.0  0.45519  0.74748  0.88203  1.0000
  C   C1407     1.0  0.46912  0.73231  0.90513  1.0000
  C   C1408     1.0  0.46624  0.74105  0.93374  1.0000
  C   C1409     1.0  0.44901  0.76475  0.93925  1.0000
  C   C1410     1.0  0.43557  0.78032  0.91604  1.0000
  H   H1090     1.0  0.46732  0.74720  0.77461  1.0000
  H   H1091     1.0  0.42694  0.75327  0.74227  1.0000
  H   H1092     1.0  0.38125  0.77366  0.76087  1.0000
  H   H1093     1.0  0.37532  0.78469  0.81329  1.0000
  H   H1094     1.0  0.46439  0.76691  0.82342  1.0000
  H   H1095     1.0  0.36286  0.82099  0.87609  1.0000
  H   H1096     1.0  0.31980  0.80636  0.90375  1.0000
  H   H1097     1.0  0.31347  0.75674  0.91723  1.0000
  H   H1098     1.0  0.35249  0.72169  0.90554  1.0000
  H   H1099     1.0  0.39597  0.73600  0.88099  1.0000
  H   H1100     1.0  0.44297  0.83241  0.88968  1.0000
  H   H1101     1.0  0.43588  0.88387  0.88600  1.0000
  H   H1102     1.0  0.40711  0.90791  0.84701  1.0000
  H   H1103     1.0  0.38308  0.88056  0.81231  1.0000
  H   H1104     1.0  0.38707  0.83008  0.81724  1.0000
  H   H1105     1.0  0.45685  0.73897  0.86081  1.0000
  S   S189      1.0  0.25377  0.49119  0.66318  1.0000
  C   C1411     1.0  0.48996  0.67903  0.56746  1.0000
  H   H1106     1.0  0.44629  0.77140  0.96146  1.0000
  H   H1107     1.0  0.42170  0.79819  0.92103  1.0000
  C   C1412     1.0  0.31636  0.76241  0.65774  1.0000
  C   C1413     1.0  0.29309  0.77182  0.67488  1.0000
  C   C1414     1.0  0.27088  0.75467  0.68209  1.0000
  H   H1108     1.0  0.25186  0.97534  0.74522  1.0000
  H   H1109     1.0  0.36874  0.76034  0.95774  1.0000
  H   H1110     1.0  0.36027  0.51778  0.89625  1.0000
  H   H1111     1.0  0.36254  0.94781  0.93971  1.0000
  H   H1112     1.0  0.36071  0.78155  0.49445  1.0000
  H   H1113     1.0  0.31779  0.54226  0.93151  1.0000
  H   H1114     1.0  0.33307  0.77621  0.65141  1.0000
  H   H1115     1.0  0.29153  0.79287  0.68160  1.0000
  H   H1116     1.0  0.30505  0.90132  0.50845  1.0000
  H   H1117     1.0  0.47725  0.72940  0.95158  1.0000
  H   H1118     1.0  0.30501  0.50108  0.59829  1.0000
  C   C1415     1.0  0.27580  0.95481  0.79727  1.0000
  H   H1119     1.0  0.29018  0.69674  0.77772  1.0000
  C   C1416     1.0  0.27323  0.69256  0.49347  1.0000
  C   C1417     1.0  0.31898  0.54354  0.50107  1.0000
  S   S190      1.0  0.25602  0.95034  0.49329  1.0000
  C   C1418     1.0  0.35373  0.52057  0.53378  1.0000
  C   C1419     1.0  0.30144  0.52155  0.50706  1.0000
  H   H1120     1.0  0.35798  0.56082  0.51080  1.0000
  C   C1420     1.0  0.48400  0.66394  0.59405  1.0000
  H   H1121     1.0  0.34683  0.93977  0.81747  1.0000
  H   H1122     1.0  0.49381  0.59113  0.85942  1.0000
  C   C1421     1.0  0.32467  0.61888  0.83417  1.0000
  C   C1422     1.0  0.34559  0.64958  0.79630  1.0000
  C   C1423     1.0  0.38852  0.91510  0.63684  1.0000
  H   H1123     1.0  0.39048  0.58212  0.87573  1.0000
  H   H1124     1.0  0.47511  0.70982  0.53468  1.0000
  H   H1125     1.0  0.40573  0.54148  0.65014  1.0000
  C   C1424     1.0  0.25861  0.72626  0.52970  1.0000
  H   H1126     1.0  0.34757  0.51720  0.67647  1.0000
  H   H1127     1.0  0.48117  0.78886  0.58129  1.0000
  C   C1425     1.0  0.34775  0.50781  0.65545  1.0000
  H   H1128     1.0  0.42376  0.89764  0.66163  1.0000
  H   H1129     1.0  0.46712  0.90964  0.68748  1.0000
  C   C1426     1.0  0.32317  0.93753  0.75741  1.0000
  C   C1427     1.0  0.45168  0.54669  0.49444  1.0000
  H   H1130     1.0  0.35389  0.87280  0.71825  1.0000
  H   H1131     1.0  0.37307  0.81106  0.95597  1.0000
  C   C1428     1.0  0.27199  0.69142  0.76588  1.0000
  H   H1132     1.0  0.38701  0.63758  0.78017  1.0000
  C   C1429     1.0  0.34091  0.91621  0.71286  1.0000
  H   H1133     1.0  0.47225  0.59228  0.90991  1.0000
  C   C1430     1.0  0.45443  0.58546  0.83902  1.0000
  C   C1431     1.0  0.47130  0.58862  0.86303  1.0000
  H   H1134     1.0  0.29567  0.48259  0.53114  1.0000
  C   C1432     1.0  0.46634  0.81774  0.67276  1.0000
  H   H1135     1.0  0.46473  0.58487  0.81742  1.0000
  H   H1136     1.0  0.34494  0.91800  0.53459  1.0000
  H   H1137     1.0  0.38409  0.70221  0.50559  1.0000
  S   S191      1.0  0.27226  0.95587  0.91656  1.0000
  C   C1433     1.0  0.36470  0.54601  0.79382  1.0000
  C   C1434     1.0  0.37205  0.49291  0.64540  1.0000
  H   H1138     1.0  0.36730  0.76514  0.56242  1.0000
  H   H1139     1.0  0.41420  0.52890  0.84588  1.0000
  C   C1435     1.0  0.24945  0.67870  0.78093  1.0000
  C   C1436     1.0  0.48503  0.89531  0.68308  1.0000
  H   H1140     1.0  0.47440  0.79811  0.52797  1.0000
  C   C1437     1.0  0.36330  0.93881  0.49551  1.0000
  C   C1438     1.0  0.45649  0.61749  0.74943  1.0000
  C   C1439     1.0  0.46509  0.97579  0.83559  1.0000
  C   C1440     1.0  0.27152  0.72799  0.67175  1.0000
  S   S192      1.0  0.30126  0.96581  0.56308  1.0000
  H   H1141     1.0  0.42070  0.58768  0.91759  1.0000
  C   C1441     1.0  0.38268  0.50212  0.83358  1.0000
  H   H1142     1.0  0.25007  0.67403  0.80452  1.0000
  C   C1442     1.0  0.34444  0.69108  0.52550  1.0000
  H   H1143     1.0  0.30563  0.68383  0.55036  1.0000
  H   H1144     1.0  0.32453  0.95825  0.71322  1.0000
  C   C1443     1.0  0.26432  0.97048  0.82014  1.0000
  C   C1444     1.0  0.27644  0.69822  0.89049  1.0000
  C   C1445     1.0  0.47110  0.83886  0.61406  1.0000
  C   C1446     1.0  0.49035  0.81062  0.65547  1.0000
  H   H1145     1.0  0.35946  0.80206  0.59670  1.0000
  H   H1146     1.0  0.26075  0.93943  0.70841  1.0000
  H   H1147     1.0  0.44704  0.55815  0.71607  1.0000
  C   C1447     1.0  0.35837  0.48772  0.93343  1.0000
  H   H1148     1.0  0.48204  0.71369  0.90060  1.0000
  C   C1448     1.0  0.48961  0.78196  0.53565  1.0000
  H   H1149     1.0  0.46826  0.63613  0.74630  1.0000
  H   H1150     1.0  0.41026  0.52745  0.90335  1.0000
  H   H1151     1.0  0.27118  0.91796  0.77358  1.0000
  H   H1152     1.0  0.43477  0.94302  0.88005  1.0000
  H   H1153     1.0  0.43958  0.70087  0.49906  1.0000
  H   H1154     1.0  0.47399  0.60055  0.70990  1.0000
  H   H1155     1.0  0.41486  0.55063  0.75922  1.0000
  C   C1449     1.0  0.42222  0.95436  0.89611  1.0000
  C   C1450     1.0  0.42150  0.76900  0.50941  1.0000
  C   C1451     1.0  0.47398  0.49433  0.85902  1.0000
  C   C1452     1.0  0.44514  0.57404  0.48290  1.0000
  C   C1453     1.0  0.34730  0.96203  0.81797  1.0000
  C   C1454     1.0  0.46138  0.49160  0.88735  1.0000
  C   C1455     1.0  0.49292  0.77613  0.56599  1.0000
  H   H1156     1.0  0.25342  0.70429  0.61794  1.0000
  C   C1456     1.0  0.36525  0.97234  0.83777  1.0000
  C   C1457     1.0  0.41544  0.49790  0.94118  1.0000
  H   H1157     1.0  0.49684  0.89806  0.79948  1.0000
  H   H1158     1.0  0.41084  0.55105  0.96003  1.0000
  H   H1159     1.0  0.25025  0.91594  0.88209  1.0000
  H   H1160     1.0  0.46028  0.58974  0.48434  1.0000
  H   H1161     1.0  0.30634  0.75232  0.47920  1.0000
  C   C1458     1.0  0.34845  0.48446  0.60056  1.0000
  C   C1459     1.0  0.47989  0.97573  0.86184  1.0000
  C   C1460     1.0  0.49204  0.52543  0.90367  1.0000
  H   H1162     1.0  0.34219  0.85589  0.47638  1.0000
  C   C1461     1.0  0.49281  0.82141  0.62630  1.0000
  H   H1163     1.0  0.33619  0.48410  0.93076  1.0000
  C   C1462     1.0  0.49043  0.96349  0.93927  1.0000
  H   H1164     1.0  0.49707  0.82624  0.77421  1.0000
  C   C1463     1.0  0.37267  0.48175  0.61776  1.0000
  C   C1464     1.0  0.28385  0.47910  0.86196  1.0000
  H   H1165     1.0  0.37813  0.95797  0.85177  1.0000
  Fe  Fe93      1.0  0.26957  0.97731  0.59943  1.0000
  Fe  Fe94      1.0  0.26599  0.97741  0.53102  1.0000
  Fe  Fe95      1.0  0.28265  0.97727  0.95821  1.0000
  C   C1465     1.0  0.46403  0.97164  0.47625  1.0000
  Fe  Fe96      1.0  0.71725  0.44481  0.45288  1.0000
  S   S193      1.0  0.68724  0.40919  0.45405  1.0000
  C   C1466     1.0  0.64751  0.00647  0.45563  1.0000
  S   S194      1.0  0.71012  0.40273  0.00645  1.0000
  Fe  Fe97      1.0  0.52033  0.32424  0.34995  1.0000
  S   S195      1.0  0.52441  0.30275  0.30645  1.0000
  C   C1467     1.0  0.49811  0.24283  0.47384  1.0000
  Fe  Fe98      1.0  0.51905  0.31526  0.41836  1.0000
  H   H1166     1.0  0.57871  0.35364  0.00927  1.0000
  H   H1167     1.0  0.68986  0.43913  0.08406  1.0000
  Fe  Fe99      1.0  0.54194  0.36833  0.38780  1.0000
  S   S196      1.0  0.57194  0.40378  0.38576  1.0000
  S   S197      1.0  0.55414  0.32298  0.38406  1.0000
  Fe  Fe100     1.0  0.55048  0.36755  0.06974  1.0000
  S   S198      1.0  0.55509  0.32914  0.10064  1.0000
  S   S199      1.0  0.58186  0.40021  0.05496  1.0000
  Fe  Fe101     1.0  0.52091  0.31333  0.07325  1.0000
  S   S200      1.0  0.52430  0.26828  0.06013  1.0000
  Fe  Fe102     1.0  0.51864  0.34745  0.12811  1.0000
  H   H1168     1.0  0.64571  0.97926  0.08254  1.0000
  S   S201      1.0  0.51877  0.35082  0.04080  1.0000
  S   S202      1.0  0.51611  0.38651  0.09842  1.0000
  H   H1169     1.0  0.51307  0.43460  0.26556  1.0000
  C   C1468     1.0  0.62970  0.41147  0.11910  1.0000
  H   H1170     1.0  0.61165  0.31273  0.01926  1.0000
  C   C1469     1.0  0.52157  0.25451  0.02491  1.0000
  C   C1470     1.0  0.52966  0.45997  0.07943  1.0000
  C   C1471     1.0  0.65539  0.27497  0.99427  1.0000
  C   C1472     1.0  0.63375  0.03169  0.44524  1.0000
  C   C1473     1.0  0.52345  0.31936  0.27008  1.0000
  H   H1171     1.0  0.61227  0.44592  0.38603  1.0000
  H   H1172     1.0  0.71456  0.27039  0.03558  1.0000
  C   C1474     1.0  0.63439  0.38261  0.11864  1.0000
  C   C1475     1.0  0.56621  0.47086  0.11250  1.0000
  C   C1476     1.0  0.52028  0.34422  0.21148  1.0000
  H   H1173     1.0  0.58057  0.22101  0.97729  1.0000
  H   H1174     1.0  0.51204  0.47833  0.23353  1.0000
  C   C1477     1.0  0.71188  0.39899  0.09268  1.0000
  C   C1478     1.0  0.73752  0.44901  0.28530  1.0000
  H   H1175     1.0  0.52315  0.36125  0.28337  1.0000
  H   H1176     1.0  0.57485  0.36262  0.15629  1.0000
  C   C1479     1.0  0.67463  0.40252  0.02052  1.0000
  C   C1480     1.0  0.66103  0.37734  0.02260  1.0000
  C   C1481     1.0  0.63300  0.37599  0.03404  1.0000
  C   C1482     1.0  0.61786  0.40009  0.04237  1.0000
  C   C1483     1.0  0.63125  0.42538  0.03965  1.0000
  C   C1484     1.0  0.65961  0.42660  0.02922  1.0000
  C   C1485     1.0  0.70606  0.30129  0.99997  1.0000
  H   H1177     1.0  0.62297  0.35648  0.03601  1.0000
  H   H1178     1.0  0.61949  0.44419  0.04541  1.0000
  H   H1179     1.0  0.66962  0.44623  0.02741  1.0000
  C   C1486     1.0  0.60435  0.40459  0.40432  1.0000
  C   C1487     1.0  0.61472  0.38222  0.42291  1.0000
  C   C1488     1.0  0.64007  0.38402  0.43791  1.0000
  C   C1489     1.0  0.65573  0.40793  0.43403  1.0000
  C   C1490     1.0  0.64573  0.43004  0.41484  1.0000
  C   C1491     1.0  0.62003  0.42848  0.40036  1.0000
  H   H1180     1.0  0.60325  0.36352  0.42567  1.0000
  C   C1492     1.0  0.52119  0.31527  0.21656  1.0000
  H   H1181     1.0  0.65755  0.44855  0.41154  1.0000
  C   C1493     1.0  0.70739  0.33111  0.10261  1.0000
  C   C1494     1.0  0.69391  0.33119  0.07555  1.0000
  C   C1495     1.0  0.66864  0.31794  0.07373  1.0000
  C   C1496     1.0  0.65651  0.30458  0.09891  1.0000
  C   C1497     1.0  0.66967  0.30448  0.12598  1.0000
  C   C1498     1.0  0.69503  0.31764  0.12787  1.0000
  H   H1182     1.0  0.69731  0.38849  0.08015  1.0000
  H   H1183     1.0  0.56481  0.40391  0.99397  1.0000
  H   H1184     1.0  0.70304  0.34147  0.05576  1.0000
  H   H1185     1.0  0.65850  0.31800  0.05273  1.0000
  H   H1186     1.0  0.63687  0.29437  0.09746  1.0000
  H   H1187     1.0  0.66023  0.29409  0.14553  1.0000
  H   H1188     1.0  0.72539  0.31177  0.00235  1.0000
  C   C1499     1.0  0.58992  0.23578  0.07462  1.0000
  C   C1500     1.0  0.60098  0.20833  0.07868  1.0000
  C   C1501     1.0  0.61833  0.19674  0.05664  1.0000
  C   C1502     1.0  0.62448  0.21256  0.03047  1.0000
  C   C1503     1.0  0.61312  0.24008  0.02605  1.0000
  C   C1504     1.0  0.59597  0.25165  0.04845  1.0000
  H   H1189     1.0  0.51033  0.29350  0.00110  1.0000
  H   H1190     1.0  0.67835  0.08475  0.42658  1.0000
  H   H1191     1.0  0.73235  0.35583  0.16660  1.0000
  C   C1505     1.0  0.57802  0.33575  0.99623  1.0000
  H   H1192     1.0  0.70056  0.43769  0.31161  1.0000
  C   C1506     1.0  0.72639  0.44203  0.11022  1.0000
  H   H1193     1.0  0.52091  0.38295  0.23210  1.0000
  C   C1507     1.0  0.51837  0.44014  0.45922  1.0000
  H   H1194     1.0  0.61776  0.15415  0.41743  1.0000
  H   H1195     1.0  0.59078  0.25879  0.45289  1.0000
  H   H1196     1.0  0.57838  0.98730  0.02748  1.0000
  H   H1197     1.0  0.67229  0.35875  0.01534  1.0000
  H   H1198     1.0  0.53285  0.98073  0.99323  1.0000
  S   S203      1.0  0.51710  0.36131  0.17556  1.0000
  H   H1199     1.0  0.64769  0.36670  0.45249  1.0000
  H   H1200     1.0  0.66824  0.99519  0.01189  1.0000
  C   C1508     1.0  0.64176  0.03274  0.00715  1.0000
  C   C1509     1.0  0.59617  0.99969  0.02102  1.0000
  H   H1201     1.0  0.61052  0.06693  0.00179  1.0000
  H   H1202     1.0  0.57586  0.24458  0.09138  1.0000
  H   H1203     1.0  0.59574  0.19593  0.09873  1.0000
  H   H1204     1.0  0.62670  0.17535  0.05963  1.0000
  H   H1205     1.0  0.63781  0.20314  0.01353  1.0000
  H   H1206     1.0  0.58640  0.27254  0.04561  1.0000
  C   C1510     1.0  0.70832  0.03446  0.46229  1.0000
  H   H1207     1.0  0.59079  0.42864  0.19514  1.0000
  H   H1208     1.0  0.53204  0.21239  0.04178  1.0000
  C   C1511     1.0  0.67463  0.26496  0.01595  1.0000
  C   C1512     1.0  0.62245  0.47068  0.46508  1.0000
  H   H1209     1.0  0.56481  0.25594  0.40713  1.0000
  Fe  Fe103     1.0  0.74091  0.43739  0.00811  1.0000
  C   C1513     1.0  0.64662  0.00403  0.01278  1.0000
  C   C1514     1.0  0.50082  0.43621  0.97600  1.0000
  C   C1515     1.0  0.61415  0.04481  0.00730  1.0000
  H   H1210     1.0  0.72264  0.44369  0.35927  1.0000
  C   C1516     1.0  0.58529  0.40510  0.14623  1.0000
  P   P50       1.0  0.59824  0.46038  0.13220  1.0000
  C   C1517     1.0  0.59567  0.28900  0.98552  1.0000
  P   P51       1.0  0.62143  0.26011  0.99205  1.0000
  C   C1518     1.0  0.52264  0.34832  0.26493  1.0000
  C   C1519     1.0  0.72220  0.44380  0.31179  1.0000
  C   C1520     1.0  0.69989  0.27807  0.01870  1.0000
  C   C1521     1.0  0.57115  0.23703  0.42019  1.0000
  C   C1522     1.0  0.59132  0.02828  0.01429  1.0000
  C   C1523     1.0  0.71466  0.03350  0.40921  1.0000
  C   C1524     1.0  0.59028  0.37628  0.14612  1.0000
  H   H1211     1.0  0.64485  0.42462  0.10773  1.0000
  C   C1525     1.0  0.51423  0.27132  0.99965  1.0000
  C   C1526     1.0  0.61474  0.36504  0.13225  1.0000
  H   H1212     1.0  0.50500  0.41896  0.02092  1.0000
  S   S204      1.0  0.50827  0.36112  0.42344  1.0000
  C   C1527     1.0  0.73539  0.38439  0.10568  1.0000
  H   H1213     1.0  0.52044  0.30235  0.19812  1.0000
  C   C1528     1.0  0.64860  0.11985  0.41887  1.0000
  C   C1529     1.0  0.66250  0.09869  0.43641  1.0000
  H   H1214     1.0  0.55235  0.21013  0.39168  1.0000
  C   C1530     1.0  0.62381  0.98724  0.01959  1.0000
  C   C1531     1.0  0.70744  0.42771  0.09497  1.0000
  C   C1532     1.0  0.58932  0.45700  0.23552  1.0000
  C   C1533     1.0  0.52638  0.22567  0.02244  1.0000
  C   C1534     1.0  0.73186  0.05608  0.40884  1.0000
  H   H1215     1.0  0.62166  0.97929  0.35112  1.0000
  P   P52       1.0  0.74089  0.34707  0.10392  1.0000
  C   C1535     1.0  0.55139  0.45133  0.09869  1.0000
  C   C1536     1.0  0.67379  0.98414  0.40019  1.0000
  C   C1537     1.0  0.62795  0.13782  0.43149  1.0000
  C   C1538     1.0  0.70311  0.02220  0.43603  1.0000
  H   H1216     1.0  0.61807  0.34272  0.13160  1.0000
  H   H1217     1.0  0.51880  0.44465  0.06860  1.0000
  H   H1218     1.0  0.52765  0.19153  0.99370  1.0000
  C   C1539     1.0  0.59158  0.45030  0.19905  1.0000
  H   H1219     1.0  0.67012  0.24726  0.03095  1.0000
  C   C1540     1.0  0.59657  0.31248  0.00195  1.0000
  H   H1220     1.0  0.62862  0.99519  0.40061  1.0000
  C   C1541     1.0  0.52633  0.44323  0.42915  1.0000
  H   H1221     1.0  0.58699  0.43996  0.25209  1.0000
  H   H1222     1.0  0.56992  0.03771  0.01468  1.0000
  H   H1223     1.0  0.71083  0.02487  0.38850  1.0000
  C   C1542     1.0  0.62090  0.13455  0.46180  1.0000
  C   C1543     1.0  0.62661  0.47770  0.11211  1.0000
  H   H1224     1.0  0.64193  0.04313  0.42573  1.0000
  H   H1225     1.0  0.55718  0.42942  0.10165  1.0000
  C   C1544     1.0  0.60959  0.04248  0.46018  1.0000
  H   H1226     1.0  0.65289  0.37389  0.10709  1.0000
  C   C1545     1.0  0.52283  0.30295  0.24567  1.0000
  S   S205      1.0  0.53096  0.28886  0.46096  1.0000
  C   C1546     1.0  0.52390  0.21374  0.99517  1.0000
  H   H1227     1.0  0.54818  0.44626  0.42236  1.0000
  C   C1547     1.0  0.56401  0.21121  0.41162  1.0000
  H   H1228     1.0  0.59936  0.06221  0.45238  1.0000
  H   H1229     1.0  0.65385  0.12238  0.39545  1.0000
  H   H1230     1.0  0.52339  0.28055  0.24934  1.0000
  H   H1231     1.0  0.56557  0.41333  0.15602  1.0000
  C   C1548     1.0  0.60518  0.42301  0.13310  1.0000
  C   C1549     1.0  0.52124  0.36059  0.23583  1.0000
  H   H1232     1.0  0.56239  0.45258  0.00790  1.0000
  C   C1550     1.0  0.50642  0.44117  0.40750  1.0000
  C   C1551     1.0  0.57145  0.18696  0.42902  1.0000
  C   C1552     1.0  0.73748  0.06769  0.43518  1.0000
  H   H1233     1.0  0.54880  0.39098  0.45131  1.0000
  C   C1553     1.0  0.58593  0.23861  0.44602  1.0000
  H   H1234     1.0  0.65951  0.04556  0.00180  1.0000
  C   C1554     1.0  0.72547  0.05706  0.46180  1.0000
  H   H1235     1.0  0.63695  0.47140  0.20002  1.0000
  H   H1236     1.0  0.70488  0.31693  0.14899  1.0000
  H   H1237     1.0  0.65451  0.47501  0.14911  1.0000
  H   H1238     1.0  0.72344  0.46439  0.11120  1.0000
  C   C1555     1.0  0.58620  0.18837  0.45515  1.0000
  H   H1239     1.0  0.64463  0.46364  0.46641  1.0000
  H   H1240     1.0  0.56526  0.16715  0.42240  1.0000
  P   P53       1.0  0.67968  0.99394  0.43702  1.0000
  C   C1556     1.0  0.59344  0.21444  0.46347  1.0000
  C   C1557     1.0  0.59579  0.47346  0.16873  1.0000
  C   C1558     1.0  0.64670  0.98671  0.38825  1.0000
  S   S206      1.0  0.51065  0.36999  0.35140  1.0000
  H   H1241     1.0  0.51316  0.44246  0.38441  1.0000
  C   C1559     1.0  0.57626  0.44642  0.98966  1.0000
  C   C1560     1.0  0.57768  0.41889  0.98185  1.0000
  H   H1242     1.0  0.72767  0.44701  0.26448  1.0000
  C   C1561     1.0  0.65586  0.09547  0.46661  1.0000
  C   C1562     1.0  0.73463  0.44706  0.33864  1.0000
  H   H1243     1.0  0.74120  0.06419  0.38813  1.0000
  H   H1244     1.0  0.56631  0.34234  0.46199  1.0000
  C   C1563     1.0  0.55779  0.38497  0.47251  1.0000
  C   C1564     1.0  0.57261  0.46203  0.47345  1.0000
  C   C1565     1.0  0.68720  0.31116  0.97815  1.0000
  H   H1245     1.0  0.53332  0.17482  0.47478  1.0000
  C   C1566     1.0  0.60137  0.45293  0.47512  1.0000
  C   C1567     1.0  0.66205  0.29799  0.97517  1.0000
  C   C1568     1.0  0.69529  0.30465  0.60443  1.0000
  C   C1569     1.0  0.49986  0.01235  0.93339  1.0000
  S   S207      1.0  0.70146  0.07181  0.53909  1.0000
  Fe  Fe104     1.0  0.53944  0.09470  0.58915  1.0000
  S   S208      1.0  0.54859  0.13845  0.59741  1.0000
  S   S209      1.0  0.56920  0.06240  0.56758  1.0000
  C   C1570     1.0  0.52914  0.45099  0.52136  1.0000
  H   H1246     1.0  0.66741  0.00790  0.78600  1.0000
  Fe  Fe105     1.0  0.52586  0.13018  0.64188  1.0000
  C   C1571     1.0  0.51725  0.06681  0.74765  1.0000
  C   C1572     1.0  0.66461  0.09594  0.92359  1.0000
  S   S210      1.0  0.51967  0.08555  0.63430  1.0000
  Fe  Fe106     1.0  0.56408  0.12533  0.90766  1.0000
  S   S211      1.0  0.54821  0.16402  0.88082  1.0000
  S   S212      1.0  0.61258  0.12047  0.90845  1.0000
  C   C1573     1.0  0.55061  0.13516  0.74603  1.0000
  H   H1247     1.0  0.63529  0.09193  0.65740  1.0000
  Fe  Fe107     1.0  0.51494  0.13788  0.86470  1.0000
  H   H1248     1.0  0.66420  0.46676  0.52469  1.0000
  S   S213      1.0  0.53662  0.13496  0.94772  1.0000
  S   S214      1.0  0.53246  0.09854  0.88925  1.0000
  P   P54       1.0  0.54495  0.43979  0.48696  1.0000
  C   C1574     1.0  0.58504  0.17465  0.53559  1.0000
  H   H1249     1.0  0.51837  0.07668  0.70073  1.0000
  C   C1575     1.0  0.53223  0.13770  0.72211  1.0000
  S   S215      1.0  0.69655  0.01911  0.95492  1.0000
  S   S216      1.0  0.54676  0.13806  0.68517  1.0000
  Fe  Fe108     1.0  0.50535  0.15062  0.57932  1.0000
  C   C1576     1.0  0.64829  0.47447  0.66791  1.0000
  H   H1250     1.0  0.52647  0.99093  0.65936  1.0000
  H   H1251     1.0  0.71155  0.46490  0.85830  1.0000
  H   H1252     1.0  0.68134  0.37435  0.60742  1.0000
  H   H1253     1.0  0.57589  0.41154  0.53627  1.0000
  C   C1577     1.0  0.52639  0.22614  0.52612  1.0000
  H   H1254     1.0  0.68843  0.04680  0.86442  1.0000
  H   H1255     1.0  0.74372  0.13244  0.49675  1.0000
  H   H1256     1.0  0.67226  0.11641  0.91841  1.0000
  H   H1257     1.0  0.53713  0.22025  0.54642  1.0000
  C   C1578     1.0  0.66525  0.06825  0.54951  1.0000
  C   C1579     1.0  0.65260  0.04289  0.54893  1.0000
  C   C1580     1.0  0.62328  0.04153  0.55498  1.0000
  C   C1581     1.0  0.60632  0.06524  0.56201  1.0000
  C   C1582     1.0  0.61908  0.09046  0.56335  1.0000
  C   C1583     1.0  0.64837  0.09195  0.55693  1.0000
  H   H1258     1.0  0.66527  0.02445  0.54329  1.0000
  H   H1259     1.0  0.61359  0.02199  0.55414  1.0000
  H   H1260     1.0  0.60633  0.10892  0.56871  1.0000
  H   H1261     1.0  0.65796  0.11164  0.55749  1.0000
  C   C1584     1.0  0.67414  0.04731  0.94021  1.0000
  C   C1585     1.0  0.73710  0.00281  0.73841  1.0000
  H   H1262     1.0  0.60779  0.43214  0.48376  1.0000
  C   C1586     1.0  0.63561  0.09186  0.92102  1.0000
  C   C1587     1.0  0.62607  0.06522  0.92749  1.0000
  C   C1588     1.0  0.64530  0.04306  0.93669  1.0000
  H   H1263     1.0  0.69198  0.32926  0.96372  1.0000
  C   C1589     1.0  0.66554  0.45218  0.67980  1.0000
  H   H1264     1.0  0.60393  0.06163  0.92530  1.0000
  H   H1265     1.0  0.70891  0.06849  0.60460  1.0000
  C   C1590     1.0  0.54000  0.13532  0.77557  1.0000
  C   C1591     1.0  0.63676  0.99220  0.48122  1.0000
  H   H1266     1.0  0.60374  0.99154  0.51518  1.0000
  C   C1592     1.0  0.50395  0.21091  0.51825  1.0000
  H   H1267     1.0  0.52614  0.02704  0.96591  1.0000
  H   H1268     1.0  0.66132  0.21246  0.90511  1.0000
  H   H1269     1.0  0.66665  0.07914  0.48042  1.0000
  H   H1270     1.0  0.49757  0.07982  0.84241  1.0000
  C   C1593     1.0  0.62964  0.05721  0.82335  1.0000
  C   C1594     1.0  0.69323  0.35495  0.60350  1.0000
  H   H1271     1.0  0.67886  0.98221  0.73632  1.0000
  C   C1595     1.0  0.64825  0.07620  0.64639  1.0000
  H   H1272     1.0  0.55445  0.13335  0.79362  1.0000
  H   H1273     1.0  0.59786  0.38904  0.95359  1.0000
  C   C1596     1.0  0.53522  0.15273  0.48091  1.0000
  H   H1274     1.0  0.62171  0.03568  0.78486  1.0000
  H   H1275     1.0  0.50619  0.27254  0.95302  1.0000
  Fe  Fe109     1.0  0.51923  0.17217  0.92022  1.0000
  H   H1276     1.0  0.67951  0.10446  0.62990  1.0000
  C   C1597     1.0  0.71100  0.44048  0.57600  1.0000
  H   H1277     1.0  0.65668  0.43700  0.69563  1.0000
  H   H1278     1.0  0.73011  0.36632  0.64931  1.0000
  H   H1279     1.0  0.54527  0.02701  0.62349  1.0000
  C   C1598     1.0  0.69631  0.40420  0.54672  1.0000
  H   H1280     1.0  0.59505  0.36307  0.54589  1.0000
  C   C1599     1.0  0.63986  0.04888  0.64740  1.0000
  H   H1281     1.0  0.50802  0.28687  0.55659  1.0000
  C   C1600     1.0  0.57339  0.39652  0.52007  1.0000
  H   H1282     1.0  0.71753  0.03283  0.76676  1.0000
  C   C1601     1.0  0.65597  0.02847  0.63239  1.0000
  C   C1602     1.0  0.72611  0.01160  0.76550  1.0000
  C   C1603     1.0  0.66266  0.02293  0.80233  1.0000
  C   C1604     1.0  0.68017  0.32984  0.60912  1.0000
  C   C1605     1.0  0.66611  0.46587  0.91839  1.0000
  C   C1606     1.0  0.51662  0.23057  0.96989  1.0000
  H   H1283     1.0  0.62075  0.04389  0.65994  1.0000
  P   P55       1.0  0.64525  0.99302  0.63406  1.0000
  C   C1607     1.0  0.73667  0.32963  0.58858  1.0000
  C   C1608     1.0  0.58427  0.36909  0.52559  1.0000
  C   C1609     1.0  0.52029  0.25830  0.48197  1.0000
  H   H1284     1.0  0.69428  0.02056  0.60583  1.0000
  C   C1610     1.0  0.71342  0.98435  0.88477  1.0000
  C   C1611     1.0  0.53453  0.24954  0.50805  1.0000
  C   C1612     1.0  0.50010  0.06191  0.77293  1.0000
  C   C1613     1.0  0.70914  0.97892  0.85532  1.0000
  C   C1614     1.0  0.58149  0.34951  0.50478  1.0000
  C   C1615     1.0  0.57592  0.28924  0.96313  1.0000
  H   H1285     1.0  0.70783  0.43300  0.68137  1.0000
  C   C1616     1.0  0.64850  0.06025  0.84569  1.0000
  S   S217      1.0  0.51317  0.21697  0.93474  1.0000
  C   C1617     1.0  0.72353  0.30455  0.59420  1.0000
  H   H1286     1.0  0.56238  0.98439  0.57938  1.0000
  H   H1287     1.0  0.71983  0.00441  0.89043  1.0000
  H   H1288     1.0  0.50971  0.05753  0.79416  1.0000
  Fe  Fe110     1.0  0.73696  0.03743  0.54372  1.0000
  C   C1618     1.0  0.62113  0.23657  0.96289  1.0000
  H   H1289     1.0  0.66189  0.24669  0.94303  1.0000
  C   C1619     1.0  0.64387  0.23405  0.94233  1.0000
  C   C1620     1.0  0.70299  0.45963  0.88033  1.0000
  H   H1290     1.0  0.64279  0.07438  0.86279  1.0000
  C   C1621     1.0  0.68204  0.02651  0.82423  1.0000
  C   C1622     1.0  0.58874  0.01204  0.62841  1.0000
  H   H1291     1.0  0.62911  0.18923  0.58927  1.0000
  H   H1292     1.0  0.55176  0.26123  0.51457  1.0000
  C   C1623     1.0  0.50536  0.32175  0.52435  1.0000
  C   C1624     1.0  0.61220  0.00272  0.49567  1.0000
  H   H1293     1.0  0.58038  0.03648  0.49736  1.0000
  C   C1625     1.0  0.55736  0.31257  0.95746  1.0000
  C   C1626     1.0  0.63665  0.03845  0.80176  1.0000
  S   S218      1.0  0.73805  0.99156  0.53798  1.0000
  C   C1627     1.0  0.68121  0.03570  0.61741  1.0000
  H   H1294     1.0  0.59660  0.02786  0.61273  1.0000
  H   H1295     1.0  0.65372  0.00719  0.69460  1.0000
  C   C1628     1.0  0.74318  0.02657  0.83540  1.0000
  H   H1296     1.0  0.66617  0.41732  0.51329  1.0000
  C   C1629     1.0  0.66429  0.98701  0.69165  1.0000
  H   H1297     1.0  0.63031  0.11041  0.50260  1.0000
  H   H1298     1.0  0.54189  0.31234  0.94050  1.0000
  C   C1630     1.0  0.67705  0.47210  0.88966  1.0000
  C   C1631     1.0  0.63514  0.11326  0.47919  1.0000
  C   C1632     1.0  0.70734  0.43432  0.92800  1.0000
  H   H1299     1.0  0.72797  0.46777  0.64493  1.0000
  H   H1300     1.0  0.57325  0.13311  0.74169  1.0000
  H   H1301     1.0  0.71925  0.41991  0.94299  1.0000
  H   H1302     1.0  0.56258  0.17441  0.53175  1.0000
  C   C1633     1.0  0.59827  0.21952  0.96156  1.0000
  C   C1634     1.0  0.62079  0.19781  0.91964  1.0000
  H   H1303     1.0  0.68515  0.28520  0.60881  1.0000
  H   H1304     1.0  0.62068  0.18257  0.90318  1.0000
  C   C1635     1.0  0.51078  0.13837  0.78162  1.0000
  C   C1636     1.0  0.56816  0.35744  0.47832  1.0000
  C   C1637     1.0  0.68135  0.44665  0.93740  1.0000
  H   H1305     1.0  0.72427  0.06524  0.81577  1.0000
  H   H1306     1.0  0.62605  0.47599  0.67445  1.0000
  H   H1307     1.0  0.57450  0.27153  0.95006  1.0000
  H   H1308     1.0  0.63765  0.02256  0.94182  1.0000
  H   H1309     1.0  0.50274  0.03072  0.86173  1.0000
  C   C1638     1.0  0.62252  0.18318  0.56816  1.0000
  H   H1310     1.0  0.62755  0.42309  0.92630  1.0000
  C   C1639     1.0  0.59633  0.41054  0.95917  1.0000
  H   H1311     1.0  0.57803  0.18952  0.57904  1.0000
  C   C1640     1.0  0.59804  0.20036  0.93992  1.0000
  C   C1641     1.0  0.69281  0.45976  0.56054  1.0000
  H   H1312     1.0  0.72904  0.98165  0.47555  1.0000
  H   H1313     1.0  0.58993  0.32826  0.50890  1.0000
  H   H1314     1.0  0.69772  0.38290  0.54054  1.0000
  H   H1315     1.0  0.74693  0.39048  0.52187  1.0000
  C   C1642     1.0  0.55961  0.01161  0.63458  1.0000
  C   C1643     1.0  0.72659  0.99319  0.79088  1.0000
  C   C1644     1.0  0.53143  0.47823  0.52961  1.0000
  H   H1316     1.0  0.70585  0.07747  0.93589  1.0000
  C   C1645     1.0  0.54908  0.99125  0.65469  1.0000
  C   C1646     1.0  0.67829  0.42362  0.53120  1.0000
  P   P56       1.0  0.71495  0.00563  0.82625  1.0000
  C   C1647     1.0  0.56189  0.13865  0.48474  1.0000
  C   C1648     1.0  0.64275  0.17536  0.54666  1.0000
  H   H1317     1.0  0.60434  0.21638  0.48368  1.0000
  C   C1649     1.0  0.55973  0.40456  0.49360  1.0000
  H   H1318     1.0  0.72349  0.44789  0.59287  1.0000
  C   C1650     1.0  0.67446  0.04475  0.84638  1.0000
  C   C1651     1.0  0.55836  0.33577  0.97403  1.0000
  C   C1652     1.0  0.50498  0.07253  0.72021  1.0000
  C   C1653     1.0  0.50439  0.46781  0.57492  1.0000
  C   C1654     1.0  0.69430  0.44980  0.67164  1.0000
  H   H1319     1.0  0.65832  0.32993  0.61718  1.0000
  C   C1655     1.0  0.68976  0.06295  0.61685  1.0000
  H   H1320     1.0  0.72938  0.06634  0.48216  1.0000
  C   C1656     1.0  0.50304  0.14068  0.72817  1.0000
  C   C1657     1.0  0.56320  0.11054  0.49530  1.0000
  P   P57       1.0  0.59390  0.15715  0.47869  1.0000
  H   H1321     1.0  0.60942  0.06911  0.82315  1.0000
  C   C1658     1.0  0.71331  0.41256  0.56888  1.0000
  C   C1659     1.0  0.68376  0.07387  0.93333  1.0000
  H   H1322     1.0  0.51233  0.41110  0.53447  1.0000
  Fe  Fe111     1.0  0.50325  0.11135  0.92717  1.0000
  H   H1323     1.0  0.54006  0.06663  0.74934  1.0000
  C   C1660     1.0  0.67316  0.08325  0.63104  1.0000
  C   C1661     1.0  0.72150  0.35502  0.59294  1.0000
  H   H1324     1.0  0.64757  0.30606  0.95825  1.0000
  C   C1662     1.0  0.51205  0.11047  0.49562  1.0000
  S   S219      1.0  0.74441  0.44734  0.49238  1.0000
  C   C1663     1.0  0.59371  0.18318  0.56246  1.0000
  C   C1664     1.0  0.63418  0.16748  0.51948  1.0000
  C   C1665     1.0  0.51179  0.25939  0.97240  1.0000
  H   H1325     1.0  0.73848  0.43149  0.89237  1.0000
  C   C1666     1.0  0.64367  0.21466  0.92080  1.0000
  C   C1667     1.0  0.71817  0.44082  0.89951  1.0000
  H   H1326     1.0  0.67343  0.44143  0.95968  1.0000
  C   C1668     1.0  0.60765  0.99237  0.64256  1.0000
  C   C1669     1.0  0.51651  0.00913  0.95835  1.0000
  C   C1670     1.0  0.60522  0.16662  0.51395  1.0000
  P   P58       1.0  0.73833  0.38753  0.58688  1.0000
  C   C1671     1.0  0.70567  0.46934  0.65115  1.0000
  Fe  Fe112     1.0  0.74390  0.01234  0.96400  1.0000
  C   C1672     1.0  0.61203  0.45759  0.95166  1.0000
  H   H1327     1.0  0.66510  0.17538  0.55106  1.0000
  C   C1673     1.0  0.51437  0.43222  0.54034  1.0000
  H   H1328     1.0  0.52772  0.32526  0.52465  1.0000
  C   C1674     1.0  0.67693  0.45147  0.53777  1.0000
  C   C1675     1.0  0.74227  0.05518  0.82710  1.0000
  H   H1329     1.0  0.58025  0.18734  0.93895  1.0000
  C   C1676     1.0  0.53837  0.09652  0.50054  1.0000
  H   H1330     1.0  0.53952  0.07508  0.50948  1.0000
  C   C1677     1.0  0.52015  0.98314  0.97377  1.0000
  C   C1678     1.0  0.50202  0.44063  0.56698  1.0000
  H   H1331     1.0  0.58479  0.46473  0.89916  1.0000
  H   H1332     1.0  0.51504  0.42040  0.96678  1.0000
  C   C1679     1.0  0.61336  0.42984  0.94400  1.0000
  C   C1680     1.0  0.51045  0.13858  0.48597  1.0000
  H   H1333     1.0  0.58315  0.09943  0.50031  1.0000
  H   H1334     1.0  0.65019  0.16205  0.50289  1.0000
  C   C1681     1.0  0.59331  0.46576  0.97461  1.0000
  C   C1682     1.0  0.74285  0.38419  0.64852  1.0000
  H   H1335     1.0  0.73527  0.28501  0.59066  1.0000
  H   H1336     1.0  0.69917  0.02655  0.48323  1.0000
  C   C1683     1.0  0.59884  0.02800  0.48543  1.0000
  H   H1337     1.0  0.51578  0.98886  0.55649  1.0000
  H   H1338     1.0  0.54372  0.35363  0.96995  1.0000
  H   H1339     1.0  0.73649  0.01702  0.71888  1.0000
  H   H1340     1.0  0.53759  0.90146  0.21424  1.0000
  S   S220      1.0  0.53072  0.76857  0.26288  1.0000
  Fe  Fe113     1.0  0.54953  0.74301  0.34163  1.0000
  S   S221      1.0  0.58038  0.73923  0.30358  1.0000
  S   S222      1.0  0.56868  0.72739  0.38457  1.0000
  Fe  Fe114     1.0  0.56541  0.78293  0.29015  1.0000
  S   S223      1.0  0.59440  0.81763  0.27282  1.0000
  Fe  Fe115     1.0  0.54388  0.72490  0.27940  1.0000
  H   H1341     1.0  0.60876  0.96261  0.44433  1.0000
  S   S224      1.0  0.53593  0.78760  0.32991  1.0000
  H   H1342     1.0  0.57908  0.85819  0.06388  1.0000
  H   H1343     1.0  0.59264  0.85462  0.32811  1.0000
  H   H1344     1.0  0.62191  0.86866  0.26089  1.0000
  H   H1345     1.0  0.57036  0.51511  0.11538  1.0000
  H   H1346     1.0  0.52190  0.87763  0.13655  1.0000
  C   C1684     1.0  0.74544  0.78699  0.29009  1.0000
  C   C1685     1.0  0.59109  0.93863  0.98904  1.0000
  S   S225      1.0  0.71758  0.85400  0.30302  1.0000
  S   S226      1.0  0.69867  0.62167  0.21544  1.0000
  S   S227      1.0  0.69093  0.62042  0.30174  1.0000
  Fe  Fe116     1.0  0.69709  0.66635  0.19718  1.0000
  S   S228      1.0  0.66128  0.68221  0.16615  1.0000
  S   S229      1.0  0.70647  0.68245  0.24061  1.0000
  H   H1347     1.0  0.66374  0.78736  0.44327  1.0000
  H   H1348     1.0  0.54450  0.88034  0.02935  1.0000
  C   C1686     1.0  0.67738  0.89555  0.34378  1.0000
  S   S230      1.0  0.55130  0.76227  0.19141  1.0000
  C   C1687     1.0  0.70307  0.69341  0.46357  1.0000
  C   C1688     1.0  0.54399  0.85752  0.22404  1.0000
  H   H1349     1.0  0.62980  0.76924  0.08971  1.0000
  Fe  Fe117     1.0  0.53824  0.64162  0.09179  1.0000
  S   S231      1.0  0.55292  0.59850  0.10806  1.0000
  S   S232      1.0  0.52857  0.67779  0.12015  1.0000
  Fe  Fe118     1.0  0.52948  0.62456  0.02910  1.0000
  H   H1350     1.0  0.68260  0.89376  0.46616  1.0000
  Fe  Fe119     1.0  0.51676  0.58544  0.08259  1.0000
  Fe  Fe120     1.0  0.57782  0.59757  0.06499  1.0000
  S   S233      1.0  0.56596  0.64203  0.05030  1.0000
  H   H1351     1.0  0.71035  0.95462  0.34306  1.0000
  H   H1352     1.0  0.68994  0.80282  0.31367  1.0000
  H   H1353     1.0  0.53207  0.52710  0.22816  1.0000
  H   H1354     1.0  0.62604  0.92977  0.40799  1.0000
  S   S234      1.0  0.72251  0.63753  0.11280  1.0000
  C   C1689     1.0  0.56270  0.77390  0.11820  1.0000
  H   H1355     1.0  0.66922  0.88386  0.27257  1.0000
  C   C1690     1.0  0.54066  0.88149  0.05290  1.0000
  H   H1356     1.0  0.73746  0.63929  0.04664  1.0000
  H   H1357     1.0  0.50363  0.81106  0.10792  1.0000
  C   C1691     1.0  0.65033  0.59554  0.07207  1.0000
  C   C1692     1.0  0.67858  0.58738  0.06453  1.0000
  C   C1693     1.0  0.70119  0.60054  0.07595  1.0000
  C   C1694     1.0  0.69560  0.62162  0.09533  1.0000
  C   C1695     1.0  0.66739  0.63025  0.10194  1.0000
  C   C1696     1.0  0.64482  0.61740  0.09036  1.0000
  H   H1358     1.0  0.68315  0.57056  0.05032  1.0000
  H   H1359     1.0  0.72289  0.59361  0.07084  1.0000
  H   H1360     1.0  0.66311  0.64685  0.11653  1.0000
  H   H1361     1.0  0.62321  0.62400  0.09623  1.0000
  C   C1697     1.0  0.67194  0.57051  0.44049  1.0000
  C   C1698     1.0  0.70091  0.57564  0.44178  1.0000
  H   H1362     1.0  0.61971  0.55518  0.39335  1.0000
  H   H1363     1.0  0.58938  0.74035  0.10245  1.0000
  H   H1364     1.0  0.71463  0.57483  0.42227  1.0000
  H   H1365     1.0  0.72994  0.68221  0.42663  1.0000
  C   C1699     1.0  0.62877  0.96591  0.08942  1.0000
  H   H1366     1.0  0.58660  0.95068  0.14995  1.0000
  C   C1700     1.0  0.71225  0.58168  0.46843  1.0000
  S   S235      1.0  0.51207  0.64152  0.98539  1.0000
  C   C1701     1.0  0.56829  0.83158  0.18606  1.0000
  H   H1367     1.0  0.54980  0.85119  0.37038  1.0000
  H   H1368     1.0  0.71254  0.71298  0.46512  1.0000
  C   C1702     1.0  0.56783  0.85550  0.16674  1.0000
  C   C1703     1.0  0.58165  0.73972  0.18381  1.0000
  C   C1704     1.0  0.60662  0.74239  0.19894  1.0000
  C   C1705     1.0  0.63143  0.72548  0.19319  1.0000
  C   C1706     1.0  0.63114  0.70489  0.17316  1.0000
  C   C1707     1.0  0.60650  0.70272  0.15741  1.0000
  C   C1708     1.0  0.58205  0.72014  0.16257  1.0000
  H   H1369     1.0  0.60660  0.75752  0.21538  1.0000
  H   H1370     1.0  0.65070  0.72801  0.20447  1.0000
  H   H1371     1.0  0.60607  0.68719  0.14147  1.0000
  H   H1372     1.0  0.56359  0.71863  0.14979  1.0000
  H   H1373     1.0  0.58234  0.92354  0.06252  1.0000
  S   S236      1.0  0.62220  0.57799  0.05875  1.0000
  C   C1709     1.0  0.64836  0.89219  0.34778  1.0000
  H   H1374     1.0  0.62214  0.84149  0.42645  1.0000
  H   H1375     1.0  0.54217  0.80973  0.13637  1.0000
  C   C1710     1.0  0.50030  0.56593  0.27498  1.0000
  H   H1376     1.0  0.61710  0.87553  0.07912  1.0000
  C   C1711     1.0  0.73049  0.88988  0.16923  1.0000
  C   C1712     1.0  0.72093  0.76449  0.24311  1.0000
  C   C1713     1.0  0.70899  0.59378  0.32418  1.0000
  C   C1714     1.0  0.69495  0.58120  0.34903  1.0000
  C   C1715     1.0  0.70759  0.55788  0.36514  1.0000
  H   H1377     1.0  0.67402  0.58913  0.35549  1.0000
  H   H1378     1.0  0.69602  0.54738  0.38310  1.0000
  C   C1716     1.0  0.54199  0.68120  0.21931  1.0000
  H   H1379     1.0  0.50927  0.73410  0.10647  1.0000
  C   C1717     1.0  0.51652  0.69676  0.17503  1.0000
  C   C1718     1.0  0.53120  0.67615  0.15909  1.0000
  C   C1719     1.0  0.55023  0.65712  0.17382  1.0000
  C   C1720     1.0  0.55529  0.65948  0.20392  1.0000
  H   H1380     1.0  0.56220  0.64166  0.16162  1.0000
  H   H1381     1.0  0.57045  0.64518  0.21508  1.0000
  C   C1721     1.0  0.54734  0.70885  0.41013  1.0000
  C   C1722     1.0  0.52753  0.72314  0.42791  1.0000
  C   C1723     1.0  0.51549  0.70939  0.45305  1.0000
  C   C1724     1.0  0.52328  0.68148  0.46048  1.0000
  C   C1725     1.0  0.54235  0.66686  0.44213  1.0000
  C   C1726     1.0  0.55407  0.68049  0.41674  1.0000
  H   H1382     1.0  0.52275  0.74521  0.42335  1.0000
  C   C1727     1.0  0.71499  0.79068  0.98888  1.0000
  H   H1383     1.0  0.54847  0.64528  0.44773  1.0000
  H   H1384     1.0  0.56931  0.66941  0.40287  1.0000
  C   C1728     1.0  0.62855  0.82740  0.28170  1.0000
  C   C1729     1.0  0.64790  0.80905  0.29668  1.0000
  C   C1730     1.0  0.67501  0.81749  0.30265  1.0000
  C   C1731     1.0  0.68308  0.84450  0.29416  1.0000
  C   C1732     1.0  0.66366  0.86293  0.27908  1.0000
  C   C1733     1.0  0.63671  0.85431  0.27266  1.0000
  H   H1385     1.0  0.64199  0.78825  0.30333  1.0000
  Fe  Fe121     1.0  0.71124  0.63748  0.25806  1.0000
  C   C1734     1.0  0.56313  0.83935  0.38619  1.0000
  H   H1386     1.0  0.54517  0.76106  0.12438  1.0000
  H   H1387     1.0  0.52690  0.60069  0.27030  1.0000
  C   C1735     1.0  0.64630  0.80068  0.19619  1.0000
  C   C1736     1.0  0.64406  0.79229  0.16765  1.0000
  C   C1737     1.0  0.66825  0.78941  0.14920  1.0000
  C   C1738     1.0  0.69493  0.79410  0.15955  1.0000
  C   C1739     1.0  0.69736  0.80153  0.18856  1.0000
  C   C1740     1.0  0.67282  0.80539  0.20658  1.0000
  P   P59       1.0  0.73085  0.80904  0.20265  1.0000
  C   C1741     1.0  0.72856  0.84650  0.19965  1.0000
  C   C1742     1.0  0.60132  0.88107  0.99897  1.0000
  H   H1388     1.0  0.63202  0.65945  0.02686  1.0000
  C   C1743     1.0  0.73041  0.73463  0.07674  1.0000
  H   H1389     1.0  0.66497  0.89218  0.07648  1.0000
  C   C1744     1.0  0.58650  0.50662  0.45134  1.0000
  H   H1390     1.0  0.73566  0.90097  0.14841  1.0000
  C   C1745     1.0  0.71647  0.86125  0.22273  1.0000
  C   C1746     1.0  0.71200  0.89019  0.21948  1.0000
  C   C1747     1.0  0.71934  0.90456  0.19283  1.0000
  C   C1748     1.0  0.63634  0.68046  0.98355  1.0000
  H   H1391     1.0  0.72242  0.74678  0.99703  1.0000
  C   C1749     1.0  0.59126  0.49011  0.24649  1.0000
  H   H1392     1.0  0.60559  0.85877  0.00220  1.0000
  H   H1393     1.0  0.52774  0.60603  0.32382  1.0000
  Fe  Fe122     1.0  0.74725  0.88773  0.28540  1.0000
  C   C1750     1.0  0.74577  0.73268  0.10245  1.0000
  H   H1394     1.0  0.58080  0.52764  0.44272  1.0000
  H   H1395     1.0  0.62755  0.80294  0.21057  1.0000
  H   H1396     1.0  0.62357  0.78732  0.16031  1.0000
  H   H1397     1.0  0.66638  0.78281  0.12716  1.0000
  H   H1398     1.0  0.71354  0.79145  0.14520  1.0000
  H   H1399     1.0  0.67416  0.81165  0.22894  1.0000
  H   H1400     1.0  0.71174  0.75492  0.22515  1.0000
  H   H1401     1.0  0.54031  0.75069  0.06464  1.0000
  C   C1751     1.0  0.72417  0.92054  0.01923  1.0000
  C   C1752     1.0  0.49895  0.81867  0.08565  1.0000
  H   H1402     1.0  0.70306  0.90146  0.23769  1.0000
  H   H1403     1.0  0.71633  0.92704  0.19046  1.0000
  C   C1753     1.0  0.69446  0.96267  0.45624  1.0000
  H   H1404     1.0  0.72876  0.92980  0.06430  1.0000
  H   H1405     1.0  0.67004  0.87867  0.17070  1.0000
  C   C1754     1.0  0.74368  0.82675  0.42998  1.0000
  H   H1406     1.0  0.58977  0.78228  0.97872  1.0000
  S   S237      1.0  0.52598  0.85234  0.44842  1.0000
  H   H1407     1.0  0.54147  0.53057  0.36122  1.0000
  C   C1755     1.0  0.60333  0.83420  0.41791  1.0000
  H   H1408     1.0  0.53289  0.52975  0.08142  1.0000
  H   H1409     1.0  0.72483  0.81621  0.42576  1.0000
  H   H1410     1.0  0.71501  0.68005  0.06892  1.0000
  C   C1756     1.0  0.58403  0.81813  0.11896  1.0000
  S   S238      1.0  0.73975  0.93375  0.27382  1.0000
  C   C1757     1.0  0.65487  0.88177  0.40010  1.0000
  H   H1411     1.0  0.57756  0.81191  0.17941  1.0000
  C   C1758     1.0  0.54490  0.58809  0.19198  1.0000
  C   C1759     1.0  0.54608  0.56685  0.17264  1.0000
  C   C1760     1.0  0.52127  0.55549  0.16484  1.0000
  C   C1761     1.0  0.69248  0.91306  0.46842  1.0000
  C   C1762     1.0  0.59302  0.93494  0.07800  1.0000
  C   C1763     1.0  0.51869  0.59875  0.20274  1.0000
  C   C1764     1.0  0.53739  0.50782  0.08691  1.0000
  C   C1765     1.0  0.68591  0.93917  0.05031  1.0000
  C   C1766     1.0  0.54831  0.92982  0.43737  1.0000
  H   H1412     1.0  0.69026  0.50411  0.12357  1.0000
  H   H1413     1.0  0.60485  0.48417  0.07062  1.0000
  H   H1414     1.0  0.73615  0.78862  0.04875  1.0000
  H   H1415     1.0  0.70834  0.55204  0.10938  1.0000
  H   H1416     1.0  0.56421  0.59735  0.19737  1.0000
  H   H1417     1.0  0.56609  0.56025  0.16236  1.0000
  H   H1418     1.0  0.52228  0.53957  0.14913  1.0000
  H   H1419     1.0  0.51835  0.61607  0.21653  1.0000
  H   H1420     1.0  0.60280  0.52062  0.14824  1.0000
  C   C1767     1.0  0.73171  0.72875  0.12980  1.0000
  C   C1768     1.0  0.66915  0.52855  0.99080  1.0000
  C   C1769     1.0  0.54814  0.90551  0.29711  1.0000
  C   C1770     1.0  0.56443  0.88051  0.30060  1.0000
  H   H1421     1.0  0.53437  0.90923  0.27852  1.0000
  H   H1422     1.0  0.56337  0.86514  0.28460  1.0000
  C   C1771     1.0  0.59650  0.72959  0.03893  1.0000
  C   C1772     1.0  0.58968  0.70716  0.05848  1.0000
  C   C1773     1.0  0.61098  0.69214  0.07441  1.0000
  C   C1774     1.0  0.63912  0.69931  0.07057  1.0000
  C   C1775     1.0  0.64610  0.72203  0.05128  1.0000
  C   C1776     1.0  0.62460  0.73699  0.03538  1.0000
  P   P60       1.0  0.68274  0.72970  0.04483  1.0000
  C   C1777     1.0  0.68737  0.76248  0.02408  1.0000
  C   C1778     1.0  0.70084  0.73301  0.07837  1.0000
  C   C1779     1.0  0.55867  0.49927  0.10660  1.0000
  C   C1780     1.0  0.61044  0.77873  0.09872  1.0000
  C   C1781     1.0  0.68670  0.73148  0.10607  1.0000
  C   C1782     1.0  0.70922  0.76479  0.00262  1.0000
  H   H1423     1.0  0.51998  0.76431  0.01573  1.0000
  C   C1783     1.0  0.59882  0.50846  0.16872  1.0000
  C   C1784     1.0  0.67732  0.81263  0.01795  1.0000
  C   C1785     1.0  0.67171  0.78671  0.03200  1.0000
  C   C1786     1.0  0.69986  0.70004  0.02776  1.0000
  C   C1787     1.0  0.69816  0.69710  0.99742  1.0000
  H   H1424     1.0  0.56326  0.92475  0.11348  1.0000
  C   C1788     1.0  0.72486  0.65253  0.00257  1.0000
  C   C1789     1.0  0.72656  0.65535  0.03273  1.0000
  C   C1790     1.0  0.71389  0.67877  0.04532  1.0000
  H   H1425     1.0  0.57997  0.74132  0.02665  1.0000
  H   H1426     1.0  0.56781  0.70176  0.06187  1.0000
  H   H1427     1.0  0.60565  0.67494  0.08985  1.0000
  H   H1428     1.0  0.65547  0.68717  0.08273  1.0000
  H   H1429     1.0  0.62954  0.75411  0.01996  1.0000
  H   H1430     1.0  0.50197  0.71174  0.16381  1.0000
  C   C1791     1.0  0.59498  0.95050  0.12743  1.0000
  H   H1431     1.0  0.66398  0.73030  0.10833  1.0000
  H   H1432     1.0  0.68829  0.49908  0.32942  1.0000
  H   H1433     1.0  0.66496  0.83121  0.02372  1.0000
  H   H1434     1.0  0.65538  0.78564  0.04916  1.0000
  C   C1792     1.0  0.61823  0.96585  0.11858  1.0000
  S   S239      1.0  0.70511  0.49069  0.44920  1.0000
  C   C1793     1.0  0.70575  0.92086  0.99586  1.0000
  C   C1794     1.0  0.56661  0.49410  0.20699  1.0000
  C   C1795     1.0  0.51480  0.89307  0.06338  1.0000
  C   C1796     1.0  0.64177  0.72499  0.26850  1.0000
  C   C1797     1.0  0.62689  0.70157  0.26401  1.0000
  C   C1798     1.0  0.62535  0.68021  0.28614  1.0000
  C   C1799     1.0  0.63813  0.68232  0.31302  1.0000
  C   C1800     1.0  0.65268  0.70601  0.31793  1.0000
  C   C1801     1.0  0.65488  0.72702  0.29520  1.0000
  P   P61       1.0  0.67099  0.70888  0.35167  1.0000
  C   C1802     1.0  0.66446  0.74474  0.36104  1.0000
  C   C1803     1.0  0.65641  0.68513  0.37996  1.0000
  C   C1804     1.0  0.63729  0.69475  0.40189  1.0000
  C   C1805     1.0  0.62371  0.67591  0.42149  1.0000
  C   C1806     1.0  0.62807  0.87643  0.09927  1.0000
  C   C1807     1.0  0.58668  0.90908  0.40780  1.0000
  C   C1808     1.0  0.66255  0.65635  0.37881  1.0000
  C   C1809     1.0  0.68648  0.76171  0.36677  1.0000
  C   C1810     1.0  0.68048  0.78951  0.37291  1.0000
  C   C1811     1.0  0.65261  0.80086  0.37253  1.0000
  C   C1812     1.0  0.63065  0.78434  0.36642  1.0000
  C   C1813     1.0  0.63657  0.75652  0.36061  1.0000
  C   C1814     1.0  0.70783  0.69847  0.34468  1.0000
  C   C1815     1.0  0.71616  0.68518  0.31897  1.0000
  C   C1816     1.0  0.66714  0.93959  0.02694  1.0000
  H   H1435     1.0  0.66027  0.73797  0.45868  1.0000
  H   H1436     1.0  0.50083  0.56316  0.25162  1.0000
  C   C1817     1.0  0.72847  0.70310  0.36483  1.0000
  H   H1437     1.0  0.64256  0.74198  0.25174  1.0000
  H   H1438     1.0  0.61573  0.70006  0.24387  1.0000
  H   H1439     1.0  0.61379  0.66225  0.28246  1.0000
  H   H1440     1.0  0.63651  0.66535  0.32955  1.0000
  H   H1441     1.0  0.66654  0.74511  0.29819  1.0000
  H   H1442     1.0  0.63214  0.71667  0.40370  1.0000
  H   H1443     1.0  0.60886  0.68353  0.43820  1.0000
  C   C1818     1.0  0.58788  0.85003  0.39605  1.0000
  H   H1444     1.0  0.67765  0.64841  0.36241  1.0000
  H   H1445     1.0  0.70835  0.75424  0.36553  1.0000
  H   H1446     1.0  0.69762  0.80264  0.37640  1.0000
  H   H1447     1.0  0.64818  0.82271  0.37568  1.0000
  H   H1448     1.0  0.60904  0.79317  0.36515  1.0000
  H   H1449     1.0  0.61936  0.74423  0.35515  1.0000
  H   H1450     1.0  0.70075  0.67995  0.30367  1.0000
  C   C1819     1.0  0.56536  0.48901  0.46139  1.0000
  C   C1820     1.0  0.69250  0.96353  0.35565  1.0000
  H   H1451     1.0  0.51152  0.71618  0.21656  1.0000
  H   H1452     1.0  0.72259  0.71202  0.38550  1.0000
  H   H1453     1.0  0.50132  0.72079  0.46764  1.0000
  C   C1821     1.0  0.59766  0.52519  0.20054  1.0000
  C   C1822     1.0  0.74329  0.80772  0.05613  1.0000
  H   H1454     1.0  0.59973  0.54765  0.19845  1.0000
  H   H1455     1.0  0.68612  0.90121  0.32199  1.0000
  C   C1823     1.0  0.65369  0.57240  0.46552  1.0000
  C   C1824     1.0  0.53907  0.57013  0.38116  1.0000
  C   C1825     1.0  0.55463  0.58941  0.39444  1.0000
  C   C1826     1.0  0.58358  0.58395  0.39857  1.0000
  C   C1827     1.0  0.59729  0.55937  0.38956  1.0000
  H   H1456     1.0  0.62669  0.81903  0.09980  1.0000
  H   H1457     1.0  0.71796  0.89273  0.36403  1.0000
  H   H1458     1.0  0.54475  0.60869  0.40172  1.0000
  H   H1459     1.0  0.59542  0.59875  0.40909  1.0000
  C   C1828     1.0  0.67930  0.64287  0.45875  1.0000
  H   H1460     1.0  0.52650  0.93011  0.44534  1.0000
  C   C1829     1.0  0.58151  0.89165  0.97843  1.0000
  C   C1830     1.0  0.72865  0.54905  0.11956  1.0000
  C   C1831     1.0  0.70100  0.65084  0.43914  1.0000
  C   C1832     1.0  0.71289  0.67617  0.44155  1.0000
  C   C1833     1.0  0.67027  0.88751  0.12345  1.0000
  C   C1834     1.0  0.62169  0.48614  0.21007  1.0000
  H   H1461     1.0  0.74185  0.73550  0.05560  1.0000
  C   C1835     1.0  0.73664  0.58408  0.31704  1.0000
  C   C1836     1.0  0.58063  0.89360  0.34750  1.0000
  H   H1462     1.0  0.56332  0.77774  0.42761  1.0000
  H   H1463     1.0  0.62279  0.86061  0.17358  1.0000
  Fe  Fe123     1.0  0.50214  0.77022  0.30369  1.0000
  H   H1464     1.0  0.70831  0.63732  0.42205  1.0000
  H   H1465     1.0  0.66351  0.56590  0.41975  1.0000
  C   C1837     1.0  0.66950  0.77975  0.46538  1.0000
  H   H1466     1.0  0.58773  0.96069  0.98360  1.0000
  Fe  Fe124     1.0  0.74483  0.61975  0.20286  1.0000
  C   C1838     1.0  0.59456  0.80828  0.42921  1.0000
  C   C1839     1.0  0.55440  0.52086  0.22777  1.0000
  C   C1840     1.0  0.57686  0.53868  0.24679  1.0000
  C   C1841     1.0  0.61310  0.53394  0.24859  1.0000
  C   C1842     1.0  0.63470  0.50933  0.23213  1.0000
  P   P62       1.0  0.63175  0.56235  0.26096  1.0000
  C   C1843     1.0  0.63743  0.58520  0.22806  1.0000
  C   C1844     1.0  0.61255  0.58243  0.28848  1.0000
  C   C1845     1.0  0.58840  0.59956  0.28074  1.0000
  C   C1846     1.0  0.57732  0.61961  0.29945  1.0000
  C   C1847     1.0  0.58956  0.62232  0.32647  1.0000
  C   C1848     1.0  0.61322  0.60521  0.33454  1.0000
  C   C1849     1.0  0.62464  0.58539  0.31575  1.0000
  C   C1850     1.0  0.62992  0.61382  0.22814  1.0000
  C   C1851     1.0  0.62761  0.63006  0.20168  1.0000
  C   C1852     1.0  0.63467  0.61848  0.17495  1.0000
  C   C1853     1.0  0.64525  0.59086  0.17472  1.0000
  C   C1854     1.0  0.64677  0.57426  0.20122  1.0000
  C   C1855     1.0  0.66447  0.54646  0.27520  1.0000
  C   C1856     1.0  0.66363  0.52636  0.29909  1.0000
  C   C1857     1.0  0.71571  0.53943  0.27242  1.0000
  C   C1858     1.0  0.69068  0.55283  0.26189  1.0000
  H   H1467     1.0  0.56681  0.55555  0.25834  1.0000
  H   H1468     1.0  0.65743  0.50924  0.23418  1.0000
  H   H1469     1.0  0.57987  0.59962  0.25896  1.0000
  H   H1470     1.0  0.56010  0.63414  0.29236  1.0000
  H   H1471     1.0  0.58153  0.63853  0.34050  1.0000
  H   H1472     1.0  0.62361  0.60822  0.35476  1.0000
  H   H1473     1.0  0.64403  0.57386  0.32181  1.0000
  H   H1474     1.0  0.62617  0.62405  0.24842  1.0000
  H   H1475     1.0  0.62113  0.65198  0.20196  1.0000
  H   H1476     1.0  0.63319  0.63149  0.15463  1.0000
  H   H1477     1.0  0.65263  0.58263  0.15401  1.0000
  H   H1478     1.0  0.65499  0.55297  0.20052  1.0000
  H   H1479     1.0  0.64362  0.52134  0.30983  1.0000
  C   C1859     1.0  0.62858  0.64736  0.41905  1.0000
  H   H1480     1.0  0.69204  0.56843  0.24375  1.0000
  C   C1860     1.0  0.68875  0.51338  0.30995  1.0000
  H   H1481     1.0  0.53527  0.80546  0.39002  1.0000
  C   C1861     1.0  0.58205  0.54019  0.37606  1.0000
  H   H1482     1.0  0.63168  0.89070  0.03001  1.0000
  H   H1483     1.0  0.72367  0.84964  0.46500  1.0000
  C   C1862     1.0  0.55818  0.88112  0.17754  1.0000
  C   C1863     1.0  0.56050  0.86928  0.07270  1.0000
  C   C1864     1.0  0.60859  0.80680  0.10487  1.0000
  C   C1865     1.0  0.52263  0.48827  0.07353  1.0000
  C   C1866     1.0  0.64861  0.63162  0.99483  1.0000
  Fe  Fe125     1.0  0.50375  0.77498  0.18656  1.0000
  C   C1867     1.0  0.69533  0.89096  0.36756  1.0000
  C   C1868     1.0  0.73491  0.54761  0.35732  1.0000
  S   S240      1.0  0.55005  0.68389  0.25678  1.0000
  H   H1484     1.0  0.74746  0.75367  0.18477  1.0000
  S   S241      1.0  0.54293  0.57996  0.04095  1.0000
  H   H1485     1.0  0.55904  0.96267  0.46372  1.0000
  C   C1869     1.0  0.71822  0.96286  0.47376  1.0000
  H   H1486     1.0  0.69116  0.89552  0.12221  1.0000
  C   C1870     1.0  0.58089  0.87461  0.32546  1.0000
  C   C1871     1.0  0.55304  0.54559  0.37172  1.0000
  C   C1872     1.0  0.54871  0.92506  0.31825  1.0000
  C   C1873     1.0  0.58756  0.76233  0.10559  1.0000
  P   P63       1.0  0.59868  0.88409  0.38161  1.0000
  C   C1874     1.0  0.57029  0.79777  0.41881  1.0000
  C   C1875     1.0  0.67747  0.93058  0.99960  1.0000
  H   H1487     1.0  0.53540  0.94409  0.31595  1.0000
  C   C1876     1.0  0.55459  0.81332  0.39736  1.0000
  C   C1877     1.0  0.56502  0.91927  0.34326  1.0000
  C   C1878     1.0  0.55521  0.86966  0.10334  1.0000
  H   H1488     1.0  0.65027  0.61411  0.01095  1.0000
  H   H1489     1.0  0.64070  0.51294  0.04601  1.0000
  C   C1879     1.0  0.61707  0.94946  0.06920  1.0000
  C   C1880     1.0  0.63123  0.86825  0.15224  1.0000
  C   C1881     1.0  0.56105  0.80157  0.12511  1.0000
  H   H1490     1.0  0.59004  0.49293  0.27021  1.0000
  C   C1882     1.0  0.70227  0.72962  0.13170  1.0000
  C   C1883     1.0  0.51527  0.58694  0.28553  1.0000
  H   H1491     1.0  0.64646  0.87834  0.42241  1.0000
  C   C1884     1.0  0.64388  0.50408  0.06829  1.0000
  C   C1885     1.0  0.65832  0.87833  0.15068  1.0000
  C   C1886     1.0  0.74470  0.67802  0.31284  1.0000
  C   C1887     1.0  0.60459  0.92884  0.41672  1.0000
  C   C1888     1.0  0.54602  0.88204  0.20607  1.0000
  S   S242      1.0  0.53602  0.58992  0.47411  1.0000
  C   C1889     1.0  0.72725  0.82216  0.07715  1.0000
  C   C1890     1.0  0.50855  0.89197  0.09368  1.0000
  C   C1891     1.0  0.61559  0.86768  0.12655  1.0000
  P   P64       1.0  0.58095  0.85361  0.12894  1.0000
  P   P65       1.0  0.50176  0.57691  0.37481  1.0000
  H   H1492     1.0  0.74346  0.72363  0.14952  1.0000
  H   H1493     1.0  0.63517  0.89528  0.32872  1.0000
  S   S243      1.0  0.51409  0.72556  0.31901  1.0000
  C   C1892     1.0  0.65536  0.88606  0.09771  1.0000
  C   C1893     1.0  0.63674  0.88524  0.37600  1.0000
  C   C1894     1.0  0.55572  0.83250  0.21421  1.0000
  H   H1494     1.0  0.56426  0.93441  0.35971  1.0000
  H   H1495     1.0  0.69168  0.72738  0.15318  1.0000
  H   H1496     1.0  0.72391  0.85845  0.10221  1.0000
  H   H1497     1.0  0.55461  0.81349  0.22821  1.0000
  C   C1895     1.0  0.59469  0.94804  0.43690  1.0000
  H   H1498     1.0  0.68764  0.52682  0.00437  1.0000
  H   H1499     1.0  0.54383  0.89623  0.40975  1.0000
  H   H1500     1.0  0.68317  0.52329  0.07229  1.0000
  C   C1896     1.0  0.61060  0.92816  0.01027  1.0000
  C   C1897     1.0  0.71054  0.67329  0.98495  1.0000
  C   C1898     1.0  0.71474  0.51982  0.29653  1.0000
  H   H1501     1.0  0.59275  0.52110  0.36922  1.0000
  H   H1502     1.0  0.74249  0.84979  0.15367  1.0000
  C   C1899     1.0  0.52837  0.87990  0.11352  1.0000
  S   S244      1.0  0.53892  0.82252  0.00565  1.0000
  C   C1900     1.0  0.73199  0.79092  0.23885  1.0000
  C   C1901     1.0  0.55830  0.91025  0.41768  1.0000
  H   H1503     1.0  0.71764  0.57906  0.15204  1.0000
  C   C1902     1.0  0.66781  0.50999  0.08315  1.0000
  C   C1903     1.0  0.68407  0.88414  0.39576  1.0000
  H   H1504     1.0  0.70759  0.81417  0.08609  1.0000
  H   H1505     1.0  0.65327  0.61545  0.39714  1.0000
  H   H1506     1.0  0.69802  0.88104  0.41424  1.0000
  H   H1507     1.0  0.70359  0.83463  0.98549  1.0000
  C   C1904     1.0  0.67166  0.49922  0.11216  1.0000
  C   C1905     1.0  0.68169  0.93754  0.45367  1.0000
  C   C1906     1.0  0.51939  0.81592  0.06277  1.0000
  H   H1508     1.0  0.61808  0.63286  0.43446  1.0000
  C   C1907     1.0  0.71424  0.92968  0.04640  1.0000
  H   H1509     1.0  0.55914  0.90014  0.16361  1.0000
  H   H1510     1.0  0.63146  0.51129  0.44559  1.0000
  H   H1511     1.0  0.53328  0.85766  0.24555  1.0000
  H   H1512     1.0  0.71029  0.85014  0.24300  1.0000
  H   H1513     1.0  0.54017  0.80640  0.06734  1.0000
  H   H1514     1.0  0.68711  0.71308  0.98358  1.0000
  H   H1515     1.0  0.73587  0.54537  0.26267  1.0000
  S   S245      1.0  0.61689  0.56854  0.46152  1.0000
  C   C1908     1.0  0.69908  0.81462  0.99644  1.0000
  C   C1909     1.0  0.73461  0.76075  0.29399  1.0000
  H   H1516     1.0  0.73415  0.51055  0.30582  1.0000
  C   C1910     1.0  0.64835  0.63757  0.39802  1.0000
  C   C1911     1.0  0.51510  0.59047  0.31576  1.0000
  H   H1517     1.0  0.51672  0.53069  0.41911  1.0000
  C   C1912     1.0  0.61504  0.49746  0.45308  1.0000
  C   C1913     1.0  0.56663  0.94832  0.44752  1.0000
  H   H1518     1.0  0.66944  0.62389  0.45622  1.0000
  H   H1519     1.0  0.66243  0.95925  0.32207  1.0000
  H   H1520     1.0  0.60644  0.79628  0.44615  1.0000
  C   C1914     1.0  0.51794  0.74926  0.06149  1.0000
  C   C1915     1.0  0.63833  0.65742  0.00391  1.0000
  H   H1521     1.0  0.62833  0.70013  0.99118  1.0000
  C   C1916     1.0  0.58205  0.93556  0.10698  1.0000
  C   C1917     1.0  0.52205  0.69944  0.20493  1.0000
  H   H1522     1.0  0.71462  0.72896  0.27332  1.0000
  H   H1523     1.0  0.66342  0.93677  0.44024  1.0000
  H   H1524     1.0  0.71743  0.96920  0.39302  1.0000
  C   C1918     1.0  0.73375  0.56425  0.14401  1.0000
  C   C1919     1.0  0.65016  0.55168  0.99230  1.0000
  H   H1525     1.0  0.50697  0.83763  0.34308  1.0000
  C   C1920     1.0  0.50643  0.75699  0.03400  1.0000
  H   H1526     1.0  0.67909  0.94580  0.07167  1.0000
  C   C1921     1.0  0.51293  0.82538  0.03389  1.0000
  C   C1922     1.0  0.74303  0.84550  0.45214  1.0000
  S   S246      1.0  0.74312  0.66385  0.18186  1.0000
  C   C1923     1.0  0.72235  0.74957  0.27051  1.0000
  H   H1527     1.0  0.50599  0.49518  0.05844  1.0000
  C   C1924     1.0  0.61585  0.89922  0.01478  1.0000
  H   H1528     1.0  0.61089  0.57178  0.97739  1.0000
  H   H1529     1.0  0.65409  0.56753  0.00698  1.0000
  H   H1530     1.0  0.66370  0.93100  0.98104  1.0000
  H   H1531     1.0  0.62777  0.97817  0.13417  1.0000
  C   C1925     1.0  0.66735  0.75166  0.47440  1.0000
  C   C1926     1.0  0.62342  0.48790  0.08258  1.0000
  H   H1532     1.0  0.73458  0.63424  0.99299  1.0000
  C   C1927     1.0  0.73469  0.86093  0.17245  1.0000
  H   H1533     1.0  0.49908  0.92616  0.18773  1.0000
  C   C1928     1.0  0.73653  0.84698  0.08633  1.0000
  C   C1929     1.0  0.69652  0.97203  0.38388  1.0000
  Fe  Fe126     1.0  0.74418  0.49419  0.41951  1.0000
  P   P66       1.0  0.62998  0.95093  0.03119  1.0000
  C   C1930     1.0  0.66554  0.96625  0.34382  1.0000
  H   H1534     1.0  0.59189  0.48695  0.98110  1.0000
  C   C1931     1.0  0.74476  0.80189  0.26244  1.0000
  C   C1932     1.0  0.49903  0.57384  0.33563  1.0000
  H   H1535     1.0  0.50381  0.57327  0.99559  1.0000
  C   C1933     1.0  0.64262  0.97766  0.36018  1.0000
  C   C1934     1.0  0.50043  0.74023  0.08516  1.0000
  S   S247      1.0  0.74199  0.51329  0.07598  1.0000
  H   H1536     1.0  0.73594  0.74894  0.31509  1.0000
  S   S248      1.0  0.50061  0.62850  0.06888  1.0000
  C   C1935     1.0  0.62587  0.55397  0.97555  1.0000
  S   S249      1.0  0.73428  0.48389  0.00233  1.0000
  H   H1537     1.0  0.57431  0.87357  0.46994  1.0000
  H   H1538     1.0  0.55105  0.48394  0.19488  1.0000
  H   H1539     1.0  0.54337  0.49663  0.46018  1.0000
  H   H1540     1.0  0.50967  0.94021  0.97629  1.0000
  S   S250      1.0  0.49887  0.89060  0.37157  1.0000
  C   C1936     1.0  0.65131  0.48286  0.12654  1.0000
  H   H1541     1.0  0.62485  0.85811  0.47431  1.0000
  H   H1542     1.0  0.49897  0.90131  0.04794  1.0000
  H   H1543     1.0  0.74631  0.91381  0.01617  1.0000
  Fe  Fe127     1.0  0.53790  0.68592  0.70027  1.0000
  H   H1544     1.0  0.68824  0.91253  0.86776  1.0000
  S   S251      1.0  0.58020  0.66076  0.71263  1.0000
  C   C1937     1.0  0.67590  0.55847  0.65736  1.0000
  S   S252      1.0  0.54250  0.73095  0.68845  1.0000
  H   H1545     1.0  0.73780  0.69104  0.84794  1.0000
  C   C1938     1.0  0.70169  0.54569  0.88588  1.0000
  C   C1939     1.0  0.63878  0.95495  0.55679  1.0000
  H   H1546     1.0  0.59750  0.73457  0.96338  1.0000
  S   S253      1.0  0.71504  0.63342  0.70950  1.0000
  S   S254      1.0  0.71267  0.86244  0.66332  1.0000
  H   H1547     1.0  0.69744  0.50650  0.62324  1.0000
  C   C1940     1.0  0.65394  0.97653  0.59992  1.0000
  C   C1941     1.0  0.65987  0.49467  0.64802  1.0000
  Fe  Fe128     1.0  0.50725  0.88127  0.48104  1.0000
  H   H1548     1.0  0.67160  0.93283  0.53192  1.0000
  C   C1942     1.0  0.69424  0.58231  0.49383  1.0000
  Fe  Fe129     1.0  0.52878  0.87868  0.91073  1.0000
  S   S255      1.0  0.55817  0.91099  0.89276  1.0000
  S   S256      1.0  0.54630  0.83552  0.92202  1.0000
  C   C1943     1.0  0.69263  0.94709  0.71176  1.0000
  S   S257      1.0  0.53553  0.90633  0.50751  1.0000
  H   H1549     1.0  0.50133  0.82849  0.82849  1.0000
  Fe  Fe130     1.0  0.55853  0.58965  0.55526  1.0000
  S   S258      1.0  0.57953  0.58880  0.59897  1.0000
  Fe  Fe131     1.0  0.57964  0.58029  0.49248  1.0000
  Fe  Fe132     1.0  0.51933  0.56497  0.51352  1.0000
  S   S259      1.0  0.57726  0.61765  0.51909  1.0000
  S   S260      1.0  0.51342  0.60004  0.54330  1.0000
  Fe  Fe133     1.0  0.51679  0.67346  0.80841  1.0000
  Fe  Fe134     1.0  0.58412  0.67391  0.80005  1.0000
  S   S261      1.0  0.58678  0.62780  0.79193  1.0000
  S   S262      1.0  0.62077  0.70371  0.80544  1.0000
  Fe  Fe135     1.0  0.54838  0.63711  0.76334  1.0000
  S   S263      1.0  0.52900  0.61399  0.72669  1.0000
  Fe  Fe136     1.0  0.55507  0.62351  0.82982  1.0000
  S   S264      1.0  0.55635  0.58977  0.86702  1.0000
  S   S265      1.0  0.54715  0.68354  0.77049  1.0000
  S   S266      1.0  0.55318  0.66837  0.83918  1.0000
  Fe  Fe137     1.0  0.69827  0.85649  0.55328  1.0000
  S   S267      1.0  0.69889  0.82202  0.58912  1.0000
  S   S268      1.0  0.66587  0.86460  0.51707  1.0000
  H   H1550     1.0  0.55957  0.95547  0.68415  1.0000
  Fe  Fe138     1.0  0.71016  0.84479  0.90743  1.0000
  S   S269      1.0  0.67963  0.86946  0.93628  1.0000
  S   S270      1.0  0.70198  0.80475  0.88841  1.0000
  C   C1944     1.0  0.70371  0.82255  0.71043  1.0000
  C   C1945     1.0  0.70166  0.81378  0.74083  1.0000
  H   H1551     1.0  0.70007  0.80815  0.69399  1.0000
  H   H1552     1.0  0.69669  0.79266  0.74715  1.0000
  H   H1553     1.0  0.50245  0.61428  0.67001  1.0000
  C   C1946     1.0  0.68900  0.70213  0.57321  1.0000
  C   C1947     1.0  0.54221  0.60260  0.90006  1.0000
  C   C1948     1.0  0.55017  0.58953  0.92730  1.0000
  C   C1949     1.0  0.54141  0.60143  0.95375  1.0000
  C   C1950     1.0  0.52355  0.62570  0.95300  1.0000
  C   C1951     1.0  0.51439  0.63782  0.92582  1.0000
  C   C1952     1.0  0.52392  0.62649  0.89942  1.0000
  H   H1554     1.0  0.56415  0.57094  0.92783  1.0000
  S   S271      1.0  0.49803  0.69482  0.72923  1.0000
  C   C1953     1.0  0.56465  0.59788  0.63339  1.0000
  C   C1954     1.0  0.58273  0.59764  0.65714  1.0000
  C   C1955     1.0  0.57191  0.60274  0.68548  1.0000
  C   C1956     1.0  0.54311  0.60935  0.69045  1.0000
  C   C1957     1.0  0.52486  0.60943  0.66659  1.0000
  C   C1958     1.0  0.53558  0.60375  0.63811  1.0000
  H   H1555     1.0  0.60520  0.59288  0.65390  1.0000
  H   H1556     1.0  0.58577  0.60097  0.70374  1.0000
  C   C1959     1.0  0.68148  0.68509  0.48357  1.0000
  H   H1557     1.0  0.52142  0.60361  0.61999  1.0000
  Fe  Fe139     1.0  0.72441  0.82195  0.84661  1.0000
  C   C1960     1.0  0.66499  0.57828  0.49230  1.0000
  H   H1558     1.0  0.70288  0.58654  0.51466  1.0000
  H   H1559     1.0  0.65129  0.57992  0.51176  1.0000
  C   C1961     1.0  0.57187  0.89471  0.51016  1.0000
  C   C1962     1.0  0.58566  0.87893  0.48866  1.0000
  C   C1963     1.0  0.61450  0.87036  0.49102  1.0000
  C   C1964     1.0  0.62982  0.87679  0.51522  1.0000
  C   C1965     1.0  0.61619  0.89251  0.53681  1.0000
  C   C1966     1.0  0.58747  0.90181  0.53401  1.0000
  H   H1560     1.0  0.66596  0.48678  0.87442  1.0000
  C   C1967     1.0  0.65652  0.62860  0.96523  1.0000
  H   H1561     1.0  0.62792  0.89757  0.55546  1.0000
  C   C1968     1.0  0.65333  0.61094  0.86565  1.0000
  C   C1969     1.0  0.59351  0.89993  0.90037  1.0000
  C   C1970     1.0  0.60387  0.87245  0.89692  1.0000
  C   C1971     1.0  0.63111  0.86329  0.90626  1.0000
  C   C1972     1.0  0.64762  0.88140  0.91993  1.0000
  C   C1973     1.0  0.63748  0.90901  0.92263  1.0000
  C   C1974     1.0  0.61093  0.91847  0.91201  1.0000
  C   C1975     1.0  0.58278  0.52285  0.85246  1.0000
  H   H1562     1.0  0.70268  0.58589  0.67743  1.0000
  C   C1976     1.0  0.63240  0.97013  0.58153  1.0000
  C   C1977     1.0  0.70833  0.73639  0.77063  1.0000
  C   C1978     1.0  0.69320  0.74748  0.79467  1.0000
  C   C1979     1.0  0.66649  0.73772  0.80448  1.0000
  C   C1980     1.0  0.65438  0.71594  0.79114  1.0000
  C   C1981     1.0  0.66992  0.70400  0.76792  1.0000
  C   C1982     1.0  0.69646  0.71408  0.75782  1.0000
  H   H1563     1.0  0.70226  0.76343  0.80605  1.0000
  H   H1564     1.0  0.65528  0.74698  0.82281  1.0000
  H   H1565     1.0  0.66156  0.68674  0.75797  1.0000
  H   H1566     1.0  0.70795  0.70426  0.73994  1.0000
  H   H1567     1.0  0.63712  0.57710  0.59659  1.0000
  S   S272      1.0  0.56307  0.55154  0.52926  1.0000
  Fe  Fe140     1.0  0.72392  0.84899  0.61597  1.0000
  H   H1568     1.0  0.69479  0.80175  0.52812  1.0000
  C   C1983     1.0  0.61751  0.64901  0.86484  1.0000
  C   C1984     1.0  0.50708  0.96034  0.96424  1.0000
  C   C1985     1.0  0.50702  0.95602  0.81078  1.0000
  C   C1986     1.0  0.71721  0.54834  0.93583  1.0000
  C   C1987     1.0  0.57558  0.49703  0.86548  1.0000
  H   H1569     1.0  0.54904  0.84381  0.66847  1.0000
  S   S273      1.0  0.72052  0.88471  0.58069  1.0000
  H   H1570     1.0  0.71192  0.51008  0.91588  1.0000
  S   S274      1.0  0.50429  0.88233  0.95355  1.0000
  H   H1571     1.0  0.57053  0.53306  0.83462  1.0000
  H   H1572     1.0  0.68051  0.75439  0.92769  1.0000
  C   C1988     1.0  0.51392  0.78502  0.83568  1.0000
  H   H1573     1.0  0.60843  0.87491  0.59842  1.0000
  H   H1574     1.0  0.53775  0.73395  0.51002  1.0000
  H   H1575     1.0  0.64789  0.57974  0.90203  1.0000
  H   H1576     1.0  0.74087  0.95198  0.80800  1.0000
  C   C1989     1.0  0.61794  0.65439  0.71456  1.0000
  C   C1990     1.0  0.62948  0.62819  0.72568  1.0000
  C   C1991     1.0  0.65898  0.62139  0.72447  1.0000
  C   C1992     1.0  0.67761  0.64093  0.71260  1.0000
  C   C1993     1.0  0.66633  0.66757  0.70296  1.0000
  C   C1994     1.0  0.63679  0.67437  0.70436  1.0000
  H   H1577     1.0  0.61557  0.61294  0.73529  1.0000
  H   H1578     1.0  0.66726  0.60104  0.73266  1.0000
  H   H1579     1.0  0.68056  0.68316  0.69460  1.0000
  H   H1580     1.0  0.62847  0.69500  0.69721  1.0000
  S   S275      1.0  0.72992  0.86282  0.86550  1.0000
  S   S276      1.0  0.51765  0.62833  0.80141  1.0000
  S   S277      1.0  0.70368  0.81921  0.80132  1.0000
  C   C1995     1.0  0.71088  0.84963  0.70153  1.0000
  Fe  Fe141     1.0  0.53238  0.62450  0.50463  1.0000
  C   C1996     1.0  0.57906  0.69592  0.62102  1.0000
  C   C1997     1.0  0.59390  0.67115  0.63022  1.0000
  C   C1998     1.0  0.62230  0.67136  0.63743  1.0000
  C   C1999     1.0  0.63552  0.69656  0.63684  1.0000
  C   C2000     1.0  0.62026  0.72174  0.62915  1.0000
  C   C2001     1.0  0.59231  0.72099  0.62012  1.0000
  P   P67       1.0  0.63659  0.75472  0.62863  1.0000
  C   C2002     1.0  0.62028  0.77830  0.65459  1.0000
  C   C2003     1.0  0.67284  0.75013  0.63986  1.0000
  C   C2004     1.0  0.67830  0.74288  0.66973  1.0000
  C   C2005     1.0  0.70529  0.74527  0.68042  1.0000
  S   S278      1.0  0.50231  0.78145  0.73630  1.0000
  C   C2006     1.0  0.69509  0.75833  0.62068  1.0000
  C   C2007     1.0  0.63626  0.79876  0.66559  1.0000
  C   C2008     1.0  0.62403  0.81706  0.68553  1.0000
  C   C2009     1.0  0.59575  0.81512  0.69485  1.0000
  C   C2010     1.0  0.57962  0.79509  0.68392  1.0000
  C   C2011     1.0  0.59173  0.77712  0.66349  1.0000
  C   C2012     1.0  0.63299  0.77223  0.59237  1.0000
  C   C2013     1.0  0.62503  0.75801  0.56828  1.0000
  C   C2014     1.0  0.61863  0.77260  0.54141  1.0000
  C   C2015     1.0  0.62073  0.80136  0.53816  1.0000
  C   C2016     1.0  0.62893  0.81549  0.56191  1.0000
  C   C2017     1.0  0.63494  0.80109  0.58882  1.0000
  H   H1581     1.0  0.55718  0.69577  0.61481  1.0000
  H   H1582     1.0  0.58334  0.65185  0.63195  1.0000
  H   H1583     1.0  0.63357  0.65209  0.64502  1.0000
  H   H1584     1.0  0.65720  0.69623  0.64354  1.0000
  H   H1585     1.0  0.58080  0.73981  0.61213  1.0000
  H   H1586     1.0  0.66135  0.73687  0.68514  1.0000
  H   H1587     1.0  0.61045  0.55638  0.85331  1.0000
  H   H1588     1.0  0.69155  0.76374  0.59756  1.0000
  H   H1589     1.0  0.65834  0.80064  0.65895  1.0000
  H   H1590     1.0  0.63692  0.83207  0.69444  1.0000
  H   H1591     1.0  0.58654  0.82865  0.71106  1.0000
  H   H1592     1.0  0.55783  0.79304  0.69166  1.0000
  H   H1593     1.0  0.57875  0.76237  0.65476  1.0000
  H   H1594     1.0  0.62299  0.73583  0.57029  1.0000
  H   H1595     1.0  0.61184  0.76167  0.52314  1.0000
  H   H1596     1.0  0.61577  0.81274  0.51739  1.0000
  H   H1597     1.0  0.63002  0.83774  0.55990  1.0000
  H   H1598     1.0  0.64041  0.81277  0.60699  1.0000
  C   C2018     1.0  0.70826  0.61637  0.83042  1.0000
  H   H1599     1.0  0.65616  0.52865  0.52512  1.0000
  H   H1600     1.0  0.71284  0.65714  0.76619  1.0000
  H   H1601     1.0  0.71587  0.55636  0.57268  1.0000
  C   C2019     1.0  0.63119  0.51671  0.59603  1.0000
  H   H1602     1.0  0.72261  0.88816  0.71773  1.0000
  C   C2020     1.0  0.70704  0.83157  0.76309  1.0000
  C   C2021     1.0  0.64731  0.57587  0.80944  1.0000
  C   C2022     1.0  0.64023  0.56082  0.78586  1.0000
  C   C2023     1.0  0.65960  0.54070  0.77499  1.0000
  C   C2024     1.0  0.68610  0.53578  0.78763  1.0000
  C   C2025     1.0  0.69340  0.55121  0.81085  1.0000
  H   H1603     1.0  0.69584  0.53305  0.86865  1.0000
  C   C2026     1.0  0.52497  0.74536  0.52572  1.0000
  Fe  Fe142     1.0  0.73501  0.49339  0.48673  1.0000
  H   H1604     1.0  0.70144  0.52065  0.77880  1.0000
  H   H1605     1.0  0.64994  0.92313  0.93324  1.0000
  H   H1606     1.0  0.69180  0.48144  0.56548  1.0000
  H   H1607     1.0  0.59095  0.85811  0.88724  1.0000
  H   H1608     1.0  0.53993  0.69110  0.92950  1.0000
  H   H1609     1.0  0.74467  0.70264  0.89926  1.0000
  C   C2027     1.0  0.62033  0.50465  0.53810  1.0000
  C   C2028     1.0  0.50389  0.80792  0.78756  1.0000
  C   C2029     1.0  0.66464  0.60342  0.61635  1.0000
  C   C2030     1.0  0.68296  0.60606  0.63925  1.0000
  H   H1610     1.0  0.65992  0.62090  0.60065  1.0000
  H   H1611     1.0  0.69249  0.62561  0.64159  1.0000
  H   H1612     1.0  0.66060  0.64903  0.92186  1.0000
  H   H1613     1.0  0.71897  0.87254  0.77078  1.0000
  C   C2031     1.0  0.71207  0.66808  0.54225  1.0000
  C   C2032     1.0  0.70131  0.93774  0.90103  1.0000
  C   C2033     1.0  0.60550  0.53600  0.86287  1.0000
  P   P68       1.0  0.63840  0.52420  0.63341  1.0000
  C   C2034     1.0  0.67923  0.79787  0.48482  1.0000
  H   H1614     1.0  0.52048  0.96549  0.88212  1.0000
  H   H1615     1.0  0.71543  0.65867  0.52138  1.0000
  H   H1616     1.0  0.54229  0.49341  0.51554  1.0000
  H   H1617     1.0  0.51080  0.67676  0.55696  1.0000
  C   C2035     1.0  0.61455  0.74843  0.95976  1.0000
  C   C2036     1.0  0.69192  0.93501  0.68486  1.0000
  H   H1618     1.0  0.60322  0.93976  0.91454  1.0000
  H   H1619     1.0  0.52149  0.54209  0.87078  1.0000
  C   C2037     1.0  0.73892  0.96619  0.78876  1.0000
  C   C2038     1.0  0.65651  0.78624  0.94928  1.0000
  H   H1620     1.0  0.52496  0.74099  0.83522  1.0000
  H   H1621     1.0  0.65349  0.65209  0.49661  1.0000
  C   C2039     1.0  0.72743  0.65646  0.56630  1.0000
  C   C2040     1.0  0.68715  0.78779  0.51306  1.0000
  H   H1622     1.0  0.57716  0.91414  0.55057  1.0000
  H   H1623     1.0  0.52144  0.73924  0.78148  1.0000
  C   C2041     1.0  0.63996  0.50982  0.95496  1.0000
  C   C2042     1.0  0.64507  0.67792  0.95393  1.0000
  H   H1624     1.0  0.51772  0.94862  0.79109  1.0000
  P   P69       1.0  0.64211  0.70725  0.92704  1.0000
  C   C2043     1.0  0.64004  0.73995  0.94489  1.0000
  C   C2044     1.0  0.67231  0.70344  0.90119  1.0000
  C   C2045     1.0  0.69996  0.70543  0.91079  1.0000
  C   C2046     1.0  0.72347  0.70051  0.89184  1.0000
  C   C2047     1.0  0.71972  0.69366  0.86303  1.0000
  C   C2048     1.0  0.69251  0.69079  0.85347  1.0000
  C   C2049     1.0  0.66898  0.69566  0.87234  1.0000
  C   C2050     1.0  0.70948  0.96378  0.90744  1.0000
  C   C2051     1.0  0.70069  0.57483  0.88167  1.0000
  C   C2052     1.0  0.60993  0.77563  0.96846  1.0000
  C   C2053     1.0  0.50447  0.94772  0.57210  1.0000
  C   C2054     1.0  0.60791  0.70682  0.91053  1.0000
  C   C2055     1.0  0.58503  0.69543  0.92687  1.0000
  C   C2056     1.0  0.55750  0.69949  0.91656  1.0000
  C   C2057     1.0  0.55257  0.71478  0.88982  1.0000
  C   C2058     1.0  0.57523  0.72547  0.87307  1.0000
  C   C2059     1.0  0.60268  0.72168  0.88342  1.0000
  H   H1625     1.0  0.50029  0.65005  0.60419  1.0000
  H   H1626     1.0  0.74281  0.60876  0.86078  1.0000
  H   H1627     1.0  0.61105  0.95601  0.67322  1.0000
  H   H1628     1.0  0.70354  0.71133  0.93275  1.0000
  P   P70       1.0  0.63314  0.48270  0.93112  1.0000
  C   C2060     1.0  0.51260  0.75518  0.57642  1.0000
  H   H1629     1.0  0.68960  0.68539  0.83107  1.0000
  H   H1630     1.0  0.64843  0.69340  0.86391  1.0000
  C   C2061     1.0  0.72404  0.66797  0.59362  1.0000
  C   C2062     1.0  0.66411  0.50764  0.97224  1.0000
  C   C2063     1.0  0.50304  0.90041  0.65846  1.0000
  H   H1631     1.0  0.58807  0.68411  0.94803  1.0000
  H   H1632     1.0  0.53123  0.71822  0.88190  1.0000
  H   H1633     1.0  0.57163  0.73712  0.85210  1.0000
  H   H1634     1.0  0.61954  0.73117  0.87039  1.0000
  C   C2064     1.0  0.68866  0.58357  0.65961  1.0000
  Fe  Fe143     1.0  0.50760  0.82239  0.90118  1.0000
  H   H1635     1.0  0.65138  0.64583  0.83269  1.0000
  P   P71       1.0  0.68439  0.59303  0.84996  1.0000
  H   H1636     1.0  0.70249  0.69960  0.61832  1.0000
  H   H1637     1.0  0.58483  0.64684  0.89894  1.0000
  C   C2065     1.0  0.59086  0.48458  0.88924  1.0000
  C   C2066     1.0  0.63988  0.59915  0.89131  1.0000
  H   H1638     1.0  0.49892  0.91919  0.64460  1.0000
  C   C2067     1.0  0.67384  0.57095  0.82237  1.0000
  C   C2068     1.0  0.58737  0.53574  0.70680  1.0000
  C   C2069     1.0  0.71574  0.91349  0.48639  1.0000
  C   C2070     1.0  0.51916  0.48652  0.55630  1.0000
  H   H1639     1.0  0.54424  0.72388  0.56392  1.0000
  P   P72       1.0  0.67144  0.70496  0.51453  1.0000
  C   C2071     1.0  0.63430  0.69936  0.52145  1.0000
  C   C2072     1.0  0.69273  0.69120  0.54538  1.0000
  C   C2073     1.0  0.61490  0.70751  0.49930  1.0000
  C   C2074     1.0  0.58673  0.70064  0.50267  1.0000
  C   C2075     1.0  0.57752  0.68576  0.52826  1.0000
  C   C2076     1.0  0.59665  0.67714  0.55025  1.0000
  C   C2077     1.0  0.62501  0.68376  0.54688  1.0000
  C   C2078     1.0  0.67496  0.74135  0.50301  1.0000
  C   C2079     1.0  0.68525  0.75967  0.52208  1.0000
  H   H1640     1.0  0.67366  0.71921  0.57661  1.0000
  H   H1641     1.0  0.69364  0.94911  0.82713  1.0000
  C   C2080     1.0  0.51305  0.92306  0.58813  1.0000
  H   H1642     1.0  0.55568  0.68026  0.53061  1.0000
  H   H1643     1.0  0.58964  0.66448  0.56945  1.0000
  H   H1644     1.0  0.63954  0.67602  0.56381  1.0000
  H   H1645     1.0  0.69204  0.75252  0.54383  1.0000
  C   C2081     1.0  0.58550  0.76553  0.75337  1.0000
  C   C2082     1.0  0.61213  0.75713  0.74169  1.0000
  C   C2083     1.0  0.63521  0.77324  0.74488  1.0000
  C   C2084     1.0  0.63164  0.79765  0.75984  1.0000
  C   C2085     1.0  0.60486  0.80658  0.77099  1.0000
  C   C2086     1.0  0.58202  0.78998  0.76825  1.0000
  P   P73       1.0  0.60172  0.83404  0.79595  1.0000
  C   C2087     1.0  0.60608  0.81559  0.83120  1.0000
  C   C2088     1.0  0.62814  0.85903  0.78886  1.0000
  C   C2089     1.0  0.64042  0.87062  0.81244  1.0000
  C   C2090     1.0  0.65918  0.89170  0.80695  1.0000
  C   C2091     1.0  0.66534  0.90178  0.77803  1.0000
  C   C2092     1.0  0.65300  0.89048  0.75443  1.0000
  C   C2093     1.0  0.63450  0.86908  0.75980  1.0000
  C   C2094     1.0  0.58251  0.81020  0.84985  1.0000
  C   C2095     1.0  0.58616  0.79506  0.87678  1.0000
  C   C2096     1.0  0.61304  0.78505  0.88497  1.0000
  C   C2097     1.0  0.63625  0.78839  0.86563  1.0000
  C   C2098     1.0  0.63286  0.80386  0.83881  1.0000
  C   C2099     1.0  0.56883  0.85491  0.79599  1.0000
  C   C2100     1.0  0.55104  0.85671  0.77189  1.0000
  C   C2101     1.0  0.52548  0.87293  0.77294  1.0000
  C   C2102     1.0  0.51729  0.88679  0.79810  1.0000
  C   C2103     1.0  0.53545  0.88584  0.82167  1.0000
  C   C2104     1.0  0.56140  0.87053  0.82034  1.0000
  H   H1646     1.0  0.56790  0.75240  0.75193  1.0000
  H   H1647     1.0  0.61506  0.73756  0.73130  1.0000
  H   H1648     1.0  0.65614  0.76605  0.73710  1.0000
  H   H1649     1.0  0.65001  0.80871  0.76422  1.0000
  H   H1650     1.0  0.56200  0.79521  0.77912  1.0000
  H   H1651     1.0  0.63581  0.86326  0.83508  1.0000
  H   H1652     1.0  0.66952  0.89959  0.82513  1.0000
  H   H1653     1.0  0.68073  0.91735  0.77399  1.0000
  H   H1654     1.0  0.65897  0.89729  0.73199  1.0000
  H   H1655     1.0  0.62547  0.86007  0.74141  1.0000
  H   H1656     1.0  0.56128  0.81705  0.84357  1.0000
  H   H1657     1.0  0.56811  0.79012  0.89098  1.0000
  H   H1658     1.0  0.61528  0.77318  0.90551  1.0000
  H   H1659     1.0  0.65658  0.77816  0.87084  1.0000
  H   H1660     1.0  0.65090  0.80599  0.82370  1.0000
  H   H1661     1.0  0.55653  0.84514  0.75274  1.0000
  S   S279      1.0  0.50924  0.66534  0.49293  1.0000
  C   C2105     1.0  0.50482  0.52780  0.87544  1.0000
  H   H1662     1.0  0.52937  0.89655  0.84127  1.0000
  H   H1663     1.0  0.57535  0.87027  0.83874  1.0000
  C   C2106     1.0  0.56629  0.80971  0.59235  1.0000
  C   C2107     1.0  0.55411  0.81170  0.56475  1.0000
  C   C2108     1.0  0.54107  0.83685  0.55403  1.0000
  C   C2109     1.0  0.53979  0.85988  0.57112  1.0000
  C   C2110     1.0  0.55231  0.85829  0.59881  1.0000
  C   C2111     1.0  0.56603  0.83296  0.60903  1.0000
  P   P74       1.0  0.55063  0.88785  0.62159  1.0000
  C   C2112     1.0  0.58522  0.88968  0.63677  1.0000
  C   C2113     1.0  0.53980  0.92001  0.60092  1.0000
  C   C2114     1.0  0.55750  0.94241  0.59800  1.0000
  H   H1664     1.0  0.63231  0.59189  0.81689  1.0000
  H   H1665     1.0  0.68012  0.62690  0.79396  1.0000
  C   C2115     1.0  0.56007  0.53731  0.69587  1.0000
  H   H1666     1.0  0.73194  0.79201  0.97239  1.0000
  C   C2116     1.0  0.58766  0.89768  0.66567  1.0000
  C   C2117     1.0  0.61420  0.89703  0.67830  1.0000
  C   C2118     1.0  0.63850  0.88869  0.66210  1.0000
  C   C2119     1.0  0.63638  0.88117  0.63317  1.0000
  C   C2120     1.0  0.60982  0.88162  0.62052  1.0000
  C   C2121     1.0  0.52604  0.88152  0.65242  1.0000
  C   C2122     1.0  0.53133  0.85834  0.67222  1.0000
  S   S280      1.0  0.72233  0.51958  0.52558  1.0000
  H   H1667     1.0  0.72097  0.58956  0.94981  1.0000
  H   H1668     1.0  0.50506  0.51512  0.83097  1.0000
  H   H1669     1.0  0.50690  0.79629  0.66459  1.0000
  H   H1670     1.0  0.57575  0.78994  0.60084  1.0000
  H   H1671     1.0  0.55464  0.79369  0.55173  1.0000
  H   H1672     1.0  0.53189  0.83842  0.53242  1.0000
  H   H1673     1.0  0.52939  0.87878  0.56211  1.0000
  H   H1674     1.0  0.57661  0.83095  0.62980  1.0000
  H   H1675     1.0  0.57812  0.94072  0.60773  1.0000
  C   C2123     1.0  0.50894  0.78269  0.77418  1.0000
  S   S281      1.0  0.74174  0.74927  0.75576  1.0000
  H   H1676     1.0  0.73864  0.76903  0.61719  1.0000
  H   H1677     1.0  0.56908  0.90385  0.67876  1.0000
  H   H1678     1.0  0.61596  0.90271  0.70075  1.0000
  H   H1679     1.0  0.65899  0.88768  0.67211  1.0000
  H   H1680     1.0  0.65540  0.87445  0.62086  1.0000
  H   H1681     1.0  0.70992  0.94429  0.56394  1.0000
  H   H1682     1.0  0.65441  0.52947  0.75629  1.0000
  C   C2124     1.0  0.61090  0.53160  0.68772  1.0000
  C   C2125     1.0  0.65173  0.57841  0.61409  1.0000
  C   C2126     1.0  0.72197  0.76100  0.63164  1.0000
  C   C2127     1.0  0.64287  0.52073  0.54339  1.0000
  C   C2128     1.0  0.57980  0.53085  0.64665  1.0000
  C   C2129     1.0  0.51779  0.75888  0.79144  1.0000
  C   C2130     1.0  0.71899  0.64704  0.78724  1.0000
  C   C2131     1.0  0.51368  0.85358  0.69706  1.0000
  C   C2132     1.0  0.71554  0.86774  0.72380  1.0000
  H   H1683     1.0  0.51705  0.63631  0.87855  1.0000
  C   C2133     1.0  0.66670  0.94559  0.55039  1.0000
  Fe  Fe144     1.0  0.74337  0.59366  0.71920  1.0000
  H   H1684     1.0  0.60884  0.66843  0.85468  1.0000
  C   C2134     1.0  0.71383  0.85879  0.75422  1.0000
  H   H1685     1.0  0.70429  0.93630  0.72965  1.0000
  H   H1686     1.0  0.70600  0.61304  0.90260  1.0000
  C   C2135     1.0  0.70042  0.62985  0.80324  1.0000
  C   C2136     1.0  0.52232  0.96976  0.56900  1.0000
  C   C2137     1.0  0.72705  0.75463  0.66150  1.0000
  H   H1687     1.0  0.54198  0.54235  0.71029  1.0000
  H   H1688     1.0  0.68040  0.54150  0.67368  1.0000
  C   C2138     1.0  0.72873  0.93831  0.48889  1.0000
  H   H1689     1.0  0.66647  0.53859  0.57566  1.0000
  H   H1690     1.0  0.51766  0.83521  0.71188  1.0000
  H   H1691     1.0  0.55793  0.48690  0.85738  1.0000
  Fe  Fe145     1.0  0.51951  0.83801  0.96301  1.0000
  C   C2139     1.0  0.61570  0.61239  0.90363  1.0000
  H   H1692     1.0  0.61552  0.50110  0.51564  1.0000
  C   C2140     1.0  0.64192  0.63609  0.85252  1.0000
  H   H1693     1.0  0.57071  0.87758  0.96572  1.0000
  H   H1694     1.0  0.71455  0.54829  0.81929  1.0000
  C   C2141     1.0  0.65721  0.55567  0.63456  1.0000
  H   H1695     1.0  0.53528  0.53797  0.65705  1.0000
  C   C2142     1.0  0.73897  0.51890  0.55996  1.0000
  C   C2143     1.0  0.67695  0.94835  0.66162  1.0000
  H   H1696     1.0  0.73390  0.55329  0.62364  1.0000
  S   S282      1.0  0.52451  0.75602  0.61243  1.0000
  C   C2144     1.0  0.60427  0.63714  0.89014  1.0000
  S   S283      1.0  0.50737  0.77835  0.47766  1.0000
  C   C2145     1.0  0.52010  0.76003  0.82205  1.0000
  C   C2146     1.0  0.68829  0.95210  0.56834  1.0000
  C   C2147     1.0  0.52825  0.73938  0.55617  1.0000
  C   C2148     1.0  0.64852  0.52650  0.57222  1.0000
  H   H1697     1.0  0.72435  0.53805  0.95646  1.0000
  H   H1698     1.0  0.57634  0.53134  0.62325  1.0000
  H   H1699     1.0  0.50044  0.65646  0.92510  1.0000
  C   C2149     1.0  0.68845  0.49152  0.63914  1.0000
  H   H1700     1.0  0.51141  0.87373  0.75486  1.0000
  C   C2150     1.0  0.62070  0.53309  0.95698  1.0000
  C   C2151     1.0  0.55629  0.53478  0.66584  1.0000
  H   H1701     1.0  0.54380  0.94792  0.83758  1.0000
  H   H1702     1.0  0.62002  0.56547  0.77549  1.0000
  C   C2152     1.0  0.60733  0.52889  0.65748  1.0000
  H   H1703     1.0  0.66399  0.60842  0.95814  1.0000
  C   C2153     1.0  0.62104  0.52348  0.88628  1.0000
  H   H1704     1.0  0.51100  0.81517  0.61278  1.0000
  C   C2154     1.0  0.63093  0.79452  0.96319  1.0000
  C   C2155     1.0  0.60437  0.49301  0.56177  1.0000
  C   C2156     1.0  0.66113  0.75922  0.94004  1.0000
  Fe  Fe146     1.0  0.51396  0.72649  0.65114  1.0000
  H   H1705     1.0  0.63880  0.84193  0.90400  1.0000
  S   S284      1.0  0.51309  0.78443  0.87460  1.0000
  C   C2157     1.0  0.56772  0.97127  0.66858  1.0000
  H   H1706     1.0  0.69942  0.92155  0.91855  1.0000
  H   H1707     1.0  0.57209  0.70646  0.48513  1.0000
  H   H1708     1.0  0.62199  0.94970  0.54302  1.0000
  C   C2158     1.0  0.50832  0.96552  0.86235  1.0000
  C   C2159     1.0  0.50662  0.76748  0.51543  1.0000
  H   H1709     1.0  0.59030  0.53922  0.72975  1.0000
  H   H1710     1.0  0.70918  0.74110  0.70366  1.0000
  H   H1711     1.0  0.52060  0.50781  0.56212  1.0000
  C   C2160     1.0  0.65463  0.65166  0.94479  1.0000
  Fe  Fe147     1.0  0.74098  0.80768  0.56858  1.0000
  H   H1712     1.0  0.72371  0.89467  0.49852  1.0000
  C   C2161     1.0  0.52178  0.95573  0.83689  1.0000
  C   C2162     1.0  0.73544  0.61978  0.84074  1.0000
  C   C2163     1.0  0.71009  0.53256  0.91288  1.0000
  Fe  Fe148     1.0  0.50303  0.73990  0.71508  1.0000
  H   H1713     1.0  0.67616  0.93761  0.64160  1.0000
  C   C2164     1.0  0.70771  0.59049  0.90501  1.0000
  Fe  Fe149     1.0  0.74456  0.78951  0.90624  1.0000
  C   C2165     1.0  0.71588  0.57730  0.93194  1.0000
  H   H1714     1.0  0.60557  0.60334  0.92341  1.0000
  H   H1715     1.0  0.74191  0.63844  0.56367  1.0000
  H   H1716     1.0  0.63871  0.53388  0.89391  1.0000
  C   C2166     1.0  0.69529  0.93268  0.87216  1.0000
  S   S285      1.0  0.73896  0.84049  0.53187  1.0000
  H   H1717     1.0  0.70917  0.67076  0.96165  1.0000
  S   S286      1.0  0.73025  0.54929  0.72348  1.0000
  H   H1718     1.0  0.71344  0.91389  0.97467  1.0000
  S   S287      1.0  0.51146  0.68029  0.66035  1.0000
  C   C2167     1.0  0.66977  0.65950  0.48117  1.0000
  C   C2168     1.0  0.73079  0.53945  0.57961  1.0000
  H   H1719     1.0  0.60153  0.53502  0.94450  1.0000
  C   C2169     1.0  0.61347  0.49798  0.90008  1.0000
  C   C2170     1.0  0.70492  0.69081  0.59704  1.0000
  C   C2171     1.0  0.68208  0.96796  0.59259  1.0000
  H   H1720     1.0  0.70324  0.91532  0.68155  1.0000
  H   H1721     1.0  0.63192  0.53133  0.69640  1.0000
  C   C2172     1.0  0.61015  0.49857  0.59069  1.0000
  H   H1722     1.0  0.67241  0.80128  0.94464  1.0000
  C   C2173     1.0  0.54875  0.96713  0.58195  1.0000
  C   C2174     1.0  0.69872  0.95334  0.84932  1.0000
  H   H1723     1.0  0.73609  0.65913  0.61225  1.0000
  H   H1724     1.0  0.67909  0.48988  0.97163  1.0000
  H   H1725     1.0  0.62148  0.71832  0.47887  1.0000
  C   C2175     1.0  0.74112  0.53786  0.60846  1.0000
  H   H1726     1.0  0.54871  0.59206  0.97463  1.0000
  C   C2176     1.0  0.50633  0.80918  0.81823  1.0000
  H   H1727     1.0  0.62722  0.81581  0.96923  1.0000
  H   H1728     1.0  0.59795  0.48902  0.60882  1.0000
  H   H1729     1.0  0.49936  0.53814  0.92012  1.0000
  H   H1730     1.0  0.69916  0.97214  0.60652  1.0000
  H   H1731     1.0  0.68073  0.81969  0.47810  1.0000
  H   H1732     1.0  0.64717  0.97296  0.49010  1.0000
  H   H1733     1.0  0.49933  0.52868  0.97343  1.0000
  C   C2177     1.0  0.67847  0.97296  0.71533  1.0000
  C   C2178     1.0  0.66373  0.97489  0.66444  1.0000
  H   H1734     1.0  0.71277  0.96794  0.93006  1.0000
  H   H1735     1.0  0.56185  0.92841  0.95661  1.0000
  C   C2179     1.0  0.59691  0.97170  0.66241  1.0000
  C   C2180     1.0  0.74558  0.65095  0.79799  1.0000
  H   H1736     1.0  0.49886  0.90621  0.59035  1.0000
  H   H1737     1.0  0.58737  0.47998  0.55764  1.0000
  H   H1738     1.0  0.61065  0.97652  0.58638  1.0000
  H   H1739     1.0  0.74722  0.93837  0.50241  1.0000
  C   C2181     1.0  0.57635  0.92038  0.97354  1.0000
  H   H1740     1.0  0.82863  0.01664  0.44228  1.0000
  Fe  Fe150     1.0  0.78099  0.45398  0.45994  1.0000
  H   H1741     1.0  0.77664  0.46184  0.26498  1.0000
  C   C2182     1.0  0.84198  0.00579  0.36347  1.0000
  S   S288      1.0  0.76620  0.43857  0.04869  1.0000
  Fe  Fe151     1.0  0.80448  0.44020  0.01807  1.0000
  S   S289      1.0  0.83872  0.40537  0.02599  1.0000
  S   S290      1.0  0.76637  0.02262  0.00458  1.0000
  Fe  Fe152     1.0  0.96992  0.35427  0.40823  1.0000
  S   S291      1.0  0.92415  0.37105  0.39959  1.0000
  H   H1742     1.0  0.82643  0.99791  0.34974  1.0000
  H   H1743     1.0  0.84977  0.04361  0.04542  1.0000
  C   C2183     1.0  0.82104  0.47615  0.37348  1.0000
  S   S292      1.0  0.96455  0.40093  0.07272  1.0000
  C   C2184     1.0  0.86010  0.98724  0.37988  1.0000
  C   C2185     1.0  0.98242  0.32864  0.25630  1.0000
  C   C2186     1.0  0.80830  0.12591  0.46118  1.0000
  S   S293      1.0  0.98405  0.32695  0.19581  1.0000
  P   P75       1.0  0.81341  0.47286  0.31301  1.0000
  H   H1744     1.0  0.81759  0.12813  0.43909  1.0000
  C   C2187     1.0  0.77499  0.99906  0.38706  1.0000
  C   C2188     1.0  0.92013  0.98036  0.47426  1.0000
  C   C2189     1.0  0.85682  0.99985  0.03941  1.0000
  C   C2190     1.0  0.87342  0.40480  0.03966  1.0000
  C   C2191     1.0  0.88664  0.42910  0.04435  1.0000
  C   C2192     1.0  0.91461  0.42748  0.05434  1.0000
  C   C2193     1.0  0.92930  0.40162  0.06058  1.0000
  C   C2194     1.0  0.91589  0.37729  0.05638  1.0000
  C   C2195     1.0  0.88822  0.37892  0.04565  1.0000
  H   H1745     1.0  0.87552  0.44911  0.03981  1.0000
  H   H1746     1.0  0.92500  0.44639  0.05718  1.0000
  H   H1747     1.0  0.92701  0.35727  0.06092  1.0000
  H   H1748     1.0  0.87821  0.35999  0.04198  1.0000
  C   C2196     1.0  0.85242  0.41773  0.45153  1.0000
  C   C2197     1.0  0.84838  0.40980  0.42305  1.0000
  C   C2198     1.0  0.87057  0.39551  0.40763  1.0000
  C   C2199     1.0  0.89712  0.38915  0.42033  1.0000
  C   C2200     1.0  0.90118  0.39715  0.44882  1.0000
  H   H1749     1.0  0.97655  0.35028  0.99475  1.0000
  C   C2201     1.0  0.75487  0.39919  0.12012  1.0000
  C   C2202     1.0  0.75017  0.42783  0.12264  1.0000
  H   H1750     1.0  0.91915  0.98406  0.17889  1.0000
  H   H1751     1.0  0.90698  0.45842  0.11860  1.0000
  H   H1752     1.0  0.76973  0.38101  0.05674  1.0000
  C   C2203     1.0  0.86390  0.04449  0.38239  1.0000
  S   S294      1.0  0.97706  0.32346  0.11184  1.0000
  H   H1753     1.0  0.76656  0.14028  0.44695  1.0000
  C   C2204     1.0  0.88247  0.02592  0.39842  1.0000
  C   C2205     1.0  0.99404  0.33004  0.28432  1.0000
  H   H1754     1.0  0.89725  0.07747  0.43345  1.0000
  H   H1755     1.0  0.77390  0.38877  0.12910  1.0000
  C   C2206     1.0  0.88825  0.00187  0.14844  1.0000
  C   C2207     1.0  0.87617  0.97884  0.03031  1.0000
  C   C2208     1.0  0.78639  0.35285  0.02534  1.0000
  H   H1756     1.0  0.98000  0.15785  0.42189  1.0000
  H   H1757     1.0  0.85491  0.47232  0.26260  1.0000
  C   C2209     1.0  0.76641  0.33285  0.18915  1.0000
  C   C2210     1.0  0.94415  0.00867  0.43629  1.0000
  C   C2211     1.0  0.87629  0.11647  0.44504  1.0000
  C   C2212     1.0  0.86252  0.44055  0.32923  1.0000
  H   H1758     1.0  0.81538  0.42282  0.27980  1.0000
  C   C2213     1.0  0.77185  0.35956  0.05147  1.0000
  H   H1759     1.0  0.86703  0.38915  0.38579  1.0000
  H   H1760     1.0  0.77882  0.01848  0.42818  1.0000
  H   H1761     1.0  0.81942  0.29393  0.15638  1.0000
  C   C2214     1.0  0.90414  0.98478  0.02188  1.0000
  C   C2215     1.0  0.96474  0.19978  0.42937  1.0000
  C   C2216     1.0  0.88664  0.15647  0.41177  1.0000
  H   H1762     1.0  0.79524  0.36919  0.01086  1.0000
  C   C2217     1.0  0.92445  0.98864  0.44429  1.0000
  H   H1763     1.0  0.86695  0.45670  0.34344  1.0000
  S   S295      1.0  0.77948  0.43667  0.97736  1.0000
  C   C2218     1.0  0.87334  0.14515  0.43746  1.0000
  C   C2219     1.0  0.95856  0.02078  0.45805  1.0000
  C   C2220     1.0  0.85288  0.39826  0.29253  1.0000
  C   C2221     1.0  0.91287  0.43507  0.21418  1.0000
  H   H1764     1.0  0.79411  0.19534  0.45508  1.0000
  H   H1765     1.0  0.89970  0.41514  0.34247  1.0000
  C   C2222     1.0  0.77811  0.30426  0.03656  1.0000
  C   C2223     1.0  0.78507  0.31646  0.13351  1.0000
  H   H1766     1.0  0.98349  0.26735  0.28900  1.0000
  H   H1767     1.0  0.75912  0.99756  0.14477  1.0000
  C   C2224     1.0  0.83370  0.42149  0.29351  1.0000
  C   C2225     1.0  0.84371  0.03440  0.36486  1.0000
  H   H1768     1.0  0.89788  0.03410  0.41180  1.0000
  C   C2226     1.0  0.90326  0.13923  0.39368  1.0000
  H   H1769     1.0  0.93382  0.01747  0.01675  1.0000
  C   C2227     1.0  0.88766  0.46698  0.10871  1.0000
  H   H1770     1.0  0.75423  0.29456  0.07670  1.0000
  C   C2228     1.0  0.89300  0.03312  0.03180  1.0000
  C   C2229     1.0  0.77635  0.45422  0.20111  1.0000
  H   H1771     1.0  0.97378  0.03616  0.45181  1.0000
  H   H1772     1.0  0.79310  0.31022  0.11226  1.0000
  C   C2230     1.0  0.94587  0.21672  0.44558  1.0000
  H   H1773     1.0  0.82934  0.04864  0.35231  1.0000
  H   H1774     1.0  0.94851  0.01468  0.41323  1.0000
  C   C2231     1.0  0.83678  0.46866  0.10339  1.0000
  S   S296      1.0  0.98166  0.31288  0.38936  1.0000
  C   C2232     1.0  0.76326  0.31098  0.06256  1.0000
  C   C2233     1.0  0.78970  0.32522  0.01796  1.0000
  H   H1775     1.0  0.75114  0.08486  0.43502  1.0000
  C   C2234     1.0  0.80026  0.30727  0.15857  1.0000
  C   C2235     1.0  0.76031  0.33389  0.13610  1.0000
  C   C2236     1.0  0.98666  0.47625  0.21727  1.0000
  H   H1776     1.0  0.84918  0.38182  0.27835  1.0000
  C   C2237     1.0  0.88079  0.99709  0.39727  1.0000
  H   H1777     1.0  0.80129  0.32017  0.99782  1.0000
  C   C2238     1.0  0.75117  0.34208  0.16415  1.0000
  C   C2239     1.0  0.90677  0.11071  0.40142  1.0000
  H   H1778     1.0  0.87217  0.23390  0.43286  1.0000
  C   C2240     1.0  0.89354  0.09939  0.42717  1.0000
  C   C2241     1.0  0.77789  0.46091  0.31265  1.0000
  C   C2242     1.0  0.76234  0.45548  0.33906  1.0000
  H   H1779     1.0  0.76565  0.99658  0.09006  1.0000
  H   H1780     1.0  0.78069  0.28283  0.03077  1.0000
  C   C2243     1.0  0.79394  0.47480  0.18972  1.0000
  H   H1781     1.0  0.92146  0.39259  0.45886  1.0000
  H   H1782     1.0  0.96003  0.32584  0.25476  1.0000
  H   H1783     1.0  0.82515  0.22077  0.41863  1.0000
  Fe  Fe153     1.0  0.99226  0.36328  0.09003  1.0000
  C   C2244     1.0  0.76035  0.33869  0.07039  1.0000
  H   H1784     1.0  0.92007  0.09743  0.38765  1.0000
  C   C2245     1.0  0.86260  0.34662  0.13609  1.0000
  C   C2246     1.0  0.84806  0.34495  0.11014  1.0000
  C   C2247     1.0  0.83564  0.36903  0.09598  1.0000
  C   C2248     1.0  0.83863  0.39497  0.10701  1.0000
  C   C2249     1.0  0.85395  0.39696  0.13257  1.0000
  C   C2250     1.0  0.86517  0.37244  0.14755  1.0000
  P   P76       1.0  0.85777  0.43037  0.14721  1.0000
  C   C2251     1.0  0.88926  0.42806  0.16889  1.0000
  C   C2252     1.0  0.89924  0.47465  0.98132  1.0000
  C   C2253     1.0  0.83213  0.21555  0.44091  1.0000
  H   H1785     1.0  0.91377  0.14807  0.37391  1.0000
  H   H1786     1.0  0.83437  0.06732  0.44025  1.0000
  C   C2254     1.0  0.92709  0.20479  0.46677  1.0000
  H   H1787     1.0  0.77312  0.01858  0.37389  1.0000
  C   C2255     1.0  0.88867  0.43824  0.19713  1.0000
  H   H1788     1.0  0.77112  0.45855  0.36005  1.0000
  C   C2256     1.0  0.93778  0.42183  0.20311  1.0000
  C   C2257     1.0  0.93862  0.41199  0.17489  1.0000
  C   C2258     1.0  0.91451  0.41511  0.15780  1.0000
  C   C2259     1.0  0.82649  0.43949  0.16941  1.0000
  C   C2260     1.0  0.80895  0.41884  0.18143  1.0000
  C   C2261     1.0  0.78396  0.42623  0.19722  1.0000
  H   H1789     1.0  0.86123  0.15878  0.45176  1.0000
  C   C2262     1.0  0.83822  0.44275  0.31208  1.0000
  H   H1790     1.0  0.91225  0.44250  0.23613  1.0000
  H   H1791     1.0  0.87249  0.32799  0.14698  1.0000
  H   H1792     1.0  0.84683  0.32512  0.10067  1.0000
  H   H1793     1.0  0.82485  0.36781  0.07555  1.0000
  H   H1794     1.0  0.82969  0.41335  0.09489  1.0000
  H   H1795     1.0  0.87650  0.37318  0.16772  1.0000
  C   C2263     1.0  0.84403  0.05403  0.45775  1.0000
  C   C2264     1.0  0.77806  0.99909  0.41783  1.0000
  C   C2265     1.0  0.81897  0.46752  0.17404  1.0000
  H   H1796     1.0  0.86518  0.06669  0.38345  1.0000
  S   S297      1.0  0.75472  0.44770  0.42107  1.0000
  C   C2266     1.0  0.96492  0.17086  0.43405  1.0000
  C   C2267     1.0  0.91254  0.01206  0.02305  1.0000
  C   C2268     1.0  0.88148  0.41717  0.32843  1.0000
  H   H1797     1.0  0.95789  0.40162  0.16625  1.0000
  H   H1798     1.0  0.91559  0.40724  0.13593  1.0000
  H   H1799     1.0  0.81431  0.39710  0.17830  1.0000
  H   H1800     1.0  0.77029  0.41029  0.20609  1.0000
  S   S298      1.0  0.82143  0.98533  0.97804  1.0000
  H   H1801     1.0  0.76537  0.43932  0.13334  1.0000
  H   H1802     1.0  0.95644  0.41897  0.21639  1.0000
  H   H1803     1.0  0.80281  0.30833  0.20572  1.0000
  H   H1804     1.0  0.82804  0.41430  0.41310  1.0000
  C   C2269     1.0  0.87664  0.39602  0.31014  1.0000
  H   H1805     1.0  0.89918  0.05438  0.03136  1.0000
  H   H1806     1.0  0.89990  0.02015  0.14243  1.0000
  H   H1807     1.0  0.85382  0.01463  0.11964  1.0000
  C   C2270     1.0  0.97315  0.98713  0.98678  1.0000
  C   C2271     1.0  0.85862  0.22320  0.44911  1.0000
  H   H1808     1.0  0.98069  0.32815  0.30411  1.0000
  C   C2272     1.0  0.76525  0.45749  0.28569  1.0000
  H   H1809     1.0  0.89127  0.37780  0.30986  1.0000
  H   H1810     1.0  0.88452  0.17868  0.40617  1.0000
  C   C2273     1.0  0.86116  0.45687  0.11734  1.0000
  H   H1811     1.0  0.97985  0.20931  0.41387  1.0000
  H   H1812     1.0  0.94654  0.23906  0.44169  1.0000
  H   H1813     1.0  0.82050  0.45373  0.37534  1.0000
  C   C2274     1.0  0.87886  0.41116  0.46436  1.0000
  C   C2275     1.0  0.86514  0.02705  0.03980  1.0000
  C   C2276     1.0  0.84056  0.02542  0.45887  1.0000
  H   H1814     1.0  0.81605  0.46139  0.10953  1.0000
  C   C2277     1.0  0.89442  0.30946  0.46124  1.0000
  C   C2278     1.0  0.86227  0.99886  0.13568  1.0000
  H   H1815     1.0  0.83508  0.99517  0.04522  1.0000
  C   C2279     1.0  0.94600  0.15882  0.45480  1.0000
  C   C2280     1.0  0.89916  0.98131  0.16893  1.0000
  C   C2281     1.0  0.99065  0.47282  0.18706  1.0000
  H   H1816     1.0  0.86955  0.44832  0.20617  1.0000
  H   H1817     1.0  0.98242  0.39753  0.01069  1.0000
  S   S299      1.0  0.99454  0.34368  0.44970  1.0000
  H   H1818     1.0  0.75675  0.46012  0.21278  1.0000
  S   S300      1.0  0.82508  0.43506  0.47243  1.0000
  C   C2282     1.0  0.79095  0.31545  0.18636  1.0000
  H   H1819     1.0  0.86274  0.99024  0.28017  1.0000
  H   H1820     1.0  0.82550  0.47845  0.42031  1.0000
  C   C2283     1.0  0.90898  0.47448  0.46703  1.0000
  H   H1821     1.0  0.94618  0.13641  0.45855  1.0000
  H   H1822     1.0  0.75921  0.33922  0.21071  1.0000
  H   H1823     1.0  0.87655  0.98079  0.22890  1.0000
  H   H1824     1.0  0.90765  0.45374  0.98761  1.0000
  S   S301      1.0  0.83271  0.06552  0.97860  1.0000
  H   H1825     1.0  0.99286  0.26937  0.15320  1.0000
  C   C2284     1.0  0.81466  0.20121  0.46142  1.0000
  H   H1826     1.0  0.92153  0.45505  0.46553  1.0000
  C   C2285     1.0  0.92705  0.17573  0.47098  1.0000
  C   C2286     1.0  0.77926  0.13254  0.46547  1.0000
  H   H1827     1.0  0.87910  0.32417  0.45058  1.0000
  H   H1828     1.0  0.99564  0.22285  0.13327  1.0000
  H   H1829     1.0  0.92577  0.33978  0.46275  1.0000
  H   H1830     1.0  0.86752  0.27540  0.46237  1.0000
  C   C2287     1.0  0.92073  0.31840  0.46823  1.0000
  C   C2288     1.0  0.88814  0.28165  0.46763  1.0000
  C   C2289     1.0  0.89568  0.14189  0.54551  1.0000
  S   S302      1.0  0.77978  0.02387  0.93272  1.0000
  C   C2290     1.0  0.91291  0.10154  0.50636  1.0000
  H   H1831     1.0  0.99701  0.00393  0.56718  1.0000
  Fe  Fe154     1.0  0.79976  0.03503  0.55984  1.0000
  S   S303      1.0  0.82662  0.06560  0.58040  1.0000
  C   C2291     1.0  0.94311  0.11205  0.77641  1.0000
  S   S304      1.0  0.75933  0.03084  0.58631  1.0000
  S   S305      1.0  0.77738  0.04416  0.51692  1.0000
  C   C2292     1.0  0.92735  0.09452  0.76116  1.0000
  P   P77       1.0  0.85173  0.98967  0.67039  1.0000
  S   S306      1.0  0.96044  0.05874  0.57974  1.0000
  H   H1832     1.0  0.87514  0.00546  0.52172  1.0000
  H   H1833     1.0  0.87876  0.99090  0.72793  1.0000
  S   S307      1.0  0.96370  0.05982  0.93714  1.0000
  Fe  Fe155     1.0  0.98701  0.09070  0.59816  1.0000
  H   H1834     1.0  0.77248  0.11310  0.53878  1.0000
  H   H1835     1.0  0.90975  0.98143  0.64461  1.0000
  H   H1836     1.0  0.79310  0.07724  0.64908  1.0000
  C   C2293     1.0  0.84738  0.46159  0.59754  1.0000
  C   C2294     1.0  0.76744  0.04200  0.65697  1.0000
  C   C2295     1.0  0.86754  0.21721  0.47814  1.0000
  C   C2296     1.0  0.86683  0.01909  0.50369  1.0000
  C   C2297     1.0  0.86359  0.06133  0.58432  1.0000
  C   C2298     1.0  0.87916  0.03713  0.57690  1.0000
  C   C2299     1.0  0.90898  0.03620  0.57641  1.0000
  C   C2300     1.0  0.92325  0.05903  0.58453  1.0000
  C   C2301     1.0  0.90757  0.08214  0.59463  1.0000
  C   C2302     1.0  0.87783  0.08344  0.59412  1.0000
  H   H1837     1.0  0.86823  0.01955  0.57060  1.0000
  H   H1838     1.0  0.92098  0.01795  0.56919  1.0000
  H   H1839     1.0  0.91837  0.09954  0.60156  1.0000
  H   H1840     1.0  0.86585  0.10201  0.60050  1.0000
  C   C2303     1.0  0.85295  0.00621  0.81887  1.0000
  H   H1841     1.0  0.92564  0.10537  0.95850  1.0000
  C   C2304     1.0  0.91382  0.08693  0.95823  1.0000
  C   C2305     1.0  0.92728  0.06233  0.94872  1.0000
  C   C2306     1.0  0.91147  0.03860  0.94858  1.0000
  C   C2307     1.0  0.88268  0.03939  0.95766  1.0000
  H   H1842     1.0  0.91433  0.99433  0.80719  1.0000
  C   C2308     1.0  0.87624  0.13290  0.52629  1.0000
  H   H1843     1.0  0.92140  0.01941  0.94133  1.0000
  C   C2309     1.0  0.83748  0.08798  0.90254  1.0000
  H   H1844     1.0  0.85241  0.07022  0.78207  1.0000
  C   C2310     1.0  0.78817  0.05849  0.84807  1.0000
  C   C2311     1.0  0.75285  0.39251  0.67496  1.0000
  H   H1845     1.0  0.83661  0.37585  0.51115  1.0000
  H   H1846     1.0  0.91994  0.08578  0.49144  1.0000
  C   C2312     1.0  0.94061  0.29971  0.48207  1.0000
  C   C2313     1.0  0.87835  0.01073  0.68382  1.0000
  C   C2314     1.0  0.88813  0.00603  0.71265  1.0000
  C   C2315     1.0  0.91065  0.02052  0.72174  1.0000
  C   C2316     1.0  0.92351  0.03995  0.70216  1.0000
  C   C2317     1.0  0.91379  0.04495  0.67350  1.0000
  C   C2318     1.0  0.89136  0.03045  0.66437  1.0000
  C   C2319     1.0  0.78936  0.02997  0.85598  1.0000
  H   H1847     1.0  0.85481  0.14198  0.52684  1.0000
  H   H1848     1.0  0.93869  0.13737  0.56028  1.0000
  H   H1849     1.0  0.81635  0.43646  0.53925  1.0000
  H   H1850     1.0  0.84095  0.36879  0.56553  1.0000
  C   C2320     1.0  0.81902  0.01039  0.66396  1.0000
  C   C2321     1.0  0.81872  0.03937  0.65811  1.0000
  C   C2322     1.0  0.87093  0.06339  0.85812  1.0000
  H   H1851     1.0  0.78878  0.44811  0.64797  1.0000
  Fe  Fe156     1.0  0.99541  0.09406  0.92974  1.0000
  H   H1852     1.0  0.93146  0.98525  0.51896  1.0000
  H   H1853     1.0  0.86256  0.02437  0.88261  1.0000
  H   H1854     1.0  0.95348  0.18670  0.57606  1.0000
  C   C2323     1.0  0.92747  0.02326  0.87121  1.0000
  H   H1855     1.0  0.91832  0.01654  0.74391  1.0000
  H   H1856     1.0  0.94116  0.05106  0.70902  1.0000
  H   H1857     1.0  0.92393  0.05978  0.65811  1.0000
  H   H1858     1.0  0.88472  0.03400  0.64175  1.0000
  S   S308      1.0  0.97545  0.12879  0.62284  1.0000
  H   H1859     1.0  0.84969  0.45752  0.62112  1.0000
  C   C2324     1.0  0.93453  0.27197  0.48822  1.0000
  H   H1860     1.0  0.90688  0.47142  0.51446  1.0000
  C   C2325     1.0  0.76712  0.38566  0.53197  1.0000
  H   H1861     1.0  0.83809  0.05005  0.65563  1.0000
  C   C2326     1.0  0.85906  0.04683  0.88135  1.0000
  H   H1862     1.0  0.75858  0.32911  0.58080  1.0000
  C   C2327     1.0  0.86244  0.03250  0.80939  1.0000
  C   C2328     1.0  0.87058  0.04765  0.50254  1.0000
  C   C2329     1.0  0.99322  0.98661  0.58307  1.0000
  C   C2330     1.0  0.94393  0.10886  0.80717  1.0000
  H   H1863     1.0  0.76369  0.09324  0.82763  1.0000
  H   H1864     1.0  0.80742  0.02004  0.86742  1.0000
  H   H1865     1.0  0.76532  0.46799  0.84546  1.0000
  C   C2331     1.0  0.95368  0.97877  0.86798  1.0000
  C   C2332     1.0  0.90852  0.26255  0.48054  1.0000
  C   C2333     1.0  0.84703  0.04906  0.78809  1.0000
  C   C2334     1.0  0.90756  0.21954  0.52699  1.0000
  C   C2335     1.0  0.88857  0.23219  0.54719  1.0000
  C   C2336     1.0  0.89262  0.22788  0.57757  1.0000
  C   C2337     1.0  0.91587  0.21124  0.58794  1.0000
  C   C2338     1.0  0.93516  0.19910  0.56796  1.0000
  C   C2339     1.0  0.93129  0.20344  0.53758  1.0000
  Fe  Fe157     1.0  0.77972  0.99775  0.51331  1.0000
  H   H1866     1.0  0.76854  0.99189  0.85559  1.0000
  H   H1867     1.0  0.95380  0.10147  0.52594  1.0000
  C   C2340     1.0  0.92838  0.08862  0.82276  1.0000
  C   C2341     1.0  0.88470  0.11253  0.50663  1.0000
  C   C2342     1.0  0.79611  0.37605  0.57478  1.0000
  P   P78       1.0  0.86106  0.10254  0.47944  1.0000
  H   H1868     1.0  0.79845  0.37319  0.59843  1.0000
  H   H1869     1.0  0.88903  0.15722  0.56106  1.0000
  Fe  Fe158     1.0  0.79541  0.97885  0.93840  1.0000
  C   C2343     1.0  0.82027  0.37329  0.55623  1.0000
  H   H1870     1.0  0.92933  0.08644  0.84665  1.0000
  H   H1871     1.0  0.97310  0.46957  0.70781  1.0000
  H   H1872     1.0  0.85700  0.19607  0.52050  1.0000
  C   C2344     1.0  0.91159  0.07434  0.77672  1.0000
  H   H1873     1.0  0.87079  0.24562  0.53940  1.0000
  H   H1874     1.0  0.87802  0.23780  0.59308  1.0000
  H   H1875     1.0  0.91937  0.20815  0.61144  1.0000
  C   C2345     1.0  0.79304  0.05505  0.65460  1.0000
  H   H1876     1.0  0.88215  0.41715  0.48643  1.0000
  C   C2346     1.0  0.81155  0.11106  0.51300  1.0000
  H   H1877     1.0  0.95043  0.25768  0.49848  1.0000
  H   H1878     1.0  0.87078  0.02111  0.95711  1.0000
  C   C2347     1.0  0.94675  0.00266  0.88302  1.0000
  H   H1879     1.0  0.82355  0.10170  0.53131  1.0000
  H   H1880     1.0  0.80537  0.07085  0.85328  1.0000
  H   H1881     1.0  0.94719  0.19462  0.52264  1.0000
  C   C2348     1.0  0.76755  0.01316  0.66219  1.0000
  H   H1882     1.0  0.96501  0.02178  0.50483  1.0000
  C   C2349     1.0  0.82939  0.99619  0.80626  1.0000
  C   C2350     1.0  0.84914  0.10466  0.87942  1.0000
  H   H1883     1.0  0.95688  0.12199  0.81889  1.0000
  H   H1884     1.0  0.95528  0.12772  0.76436  1.0000
  C   C2351     1.0  0.85921  0.06533  0.47955  1.0000
  C   C2352     1.0  0.76656  0.42158  0.62151  1.0000
  S   S309      1.0  0.80614  0.98923  0.55419  1.0000
  H   H1885     1.0  0.82499  0.09732  0.92018  1.0000
  C   C2353     1.0  0.83226  0.44392  0.58179  1.0000
  C   C2354     1.0  0.76936  0.38283  0.56279  1.0000
  H   H1886     1.0  0.88164  0.05589  0.52003  1.0000
  H   H1887     1.0  0.84837  0.98595  0.48327  1.0000
  H   H1888     1.0  0.86281  0.99387  0.83700  1.0000
  C   C2355     1.0  0.92371  0.13085  0.54503  1.0000
  C   C2356     1.0  0.76709  0.01401  0.84945  1.0000
  C   C2357     1.0  0.82859  0.44968  0.55156  1.0000
  H   H1889     1.0  0.87364  0.10568  0.83887  1.0000
  C   C2358     1.0  0.91485  0.02004  0.84424  1.0000
  H   H1890     1.0  0.81160  0.05185  0.75920  1.0000
  C   C2359     1.0  0.86547  0.09241  0.85698  1.0000
  Fe  Fe159     1.0  0.80417  0.02963  0.97350  1.0000
  H   H1891     1.0  0.84552  0.12705  0.87899  1.0000
  H   H1892     1.0  0.77671  0.42238  0.69521  1.0000
  H   H1893     1.0  0.92246  0.04164  0.88328  1.0000
  C   C2360     1.0  0.91140  0.07175  0.80771  1.0000
  H   H1894     1.0  0.95623  0.00527  0.90397  1.0000
  H   H1895     1.0  0.95754  0.99861  0.97308  1.0000
  H   H1896     1.0  0.92758  0.09665  0.73723  1.0000
  C   C2361     1.0  0.92297  0.99665  0.82854  1.0000
  C   C2362     1.0  0.78255  0.11751  0.51723  1.0000
  C   C2363     1.0  0.84219  0.05912  0.90318  1.0000
  C   C2364     1.0  0.82355  0.03890  0.77541  1.0000
  H   H1897     1.0  0.89966  0.06095  0.76451  1.0000
  H   H1898     1.0  0.83325  0.04617  0.92108  1.0000
  C   C2365     1.0  0.81470  0.01250  0.78455  1.0000
  H   H1899     1.0  0.82323  0.42593  0.59305  1.0000
  Fe  Fe160     1.0  0.76443  0.98529  0.57876  1.0000
  P   P79       1.0  0.89034  0.04687  0.82871  1.0000
  C   C2366     1.0  0.93227  0.11060  0.52556  1.0000
  H   H1900     1.0  0.79592  0.00494  0.77556  1.0000
  H   H1901     1.0  0.83737  0.47694  0.51349  1.0000
  C   C2367     1.0  0.81788  0.37699  0.52562  1.0000
  C   C2368     1.0  0.76940  0.41552  0.67471  1.0000
  H   H1902     1.0  0.78952  0.38625  0.48979  1.0000
  S   S310      1.0  0.98900  0.13807  0.90983  1.0000
  H   H1903     1.0  0.98142  0.01291  0.61833  1.0000
  C   C2369     1.0  0.79317  0.99741  0.66556  1.0000
  H   H1904     1.0  0.77332  0.46913  0.89923  1.0000
  C   C2370     1.0  0.85020  0.20208  0.49837  1.0000
  P   P80       1.0  0.90236  0.22614  0.48789  1.0000
  C   C2371     1.0  0.76467  0.07109  0.83358  1.0000
  C   C2372     1.0  0.79129  0.38291  0.51354  1.0000
  H   H1905     1.0  0.96102  0.30649  0.48765  1.0000
  C   C2373     1.0  0.88496  0.08763  0.96758  1.0000
  C   C2374     1.0  0.77630  0.42999  0.64799  1.0000
  C   C2375     1.0  0.86921  0.06387  0.96730  1.0000
  C   C2376     1.0  0.95376  0.01263  0.48789  1.0000
  C   C2377     1.0  0.82478  0.11552  0.48511  1.0000
  C   C2378     1.0  0.82382  0.19424  0.49004  1.0000
  C   C2379     1.0  0.84062  0.47272  0.53693  1.0000
  H   H1906     1.0  0.77203  0.43296  0.60090  1.0000
  H   H1907     1.0  0.91260  0.16620  0.48705  1.0000
  H   H1908     1.0  0.82461  0.98761  0.72916  1.0000
  H   H1909     1.0  0.87476  0.10673  0.97490  1.0000
  C   C2380     1.0  0.98441  0.99167  0.61197  1.0000
  C   C2381     1.0  0.85180  0.00800  0.48192  1.0000
  C   C2382     1.0  0.93476  0.99222  0.49592  1.0000
  C   C2383     1.0  0.76636  0.12823  0.49348  1.0000
  C   C2384     1.0  0.74955  0.39880  0.62155  1.0000
  H   H1910     1.0  0.74788  0.00272  0.66251  1.0000
  H   H1911     1.0  0.81047  0.18268  0.50579  1.0000
  H   H1912     1.0  0.74761  0.05404  0.65345  1.0000
  H   H1913     1.0  0.74760  0.38127  0.69574  1.0000
  H   H1914     1.0  0.85714  0.46204  0.97507  1.0000
  S   S311      1.0  0.95552  0.79974  0.34816  1.0000
  C   C2385     1.0  0.82132  0.64118  0.98453  1.0000
  C   C2386     1.0  0.80084  0.53501  0.24799  1.0000
  C   C2387     1.0  0.78563  0.76029  0.97858  1.0000
  H   H1915     1.0  0.85173  0.54971  0.02083  1.0000
  C   C2388     1.0  0.88959  0.48868  0.08683  1.0000
  H   H1916     1.0  0.76871  0.73239  0.10099  1.0000
  H   H1917     1.0  0.81515  0.80323  0.28018  1.0000
  H   H1918     1.0  0.78395  0.84305  0.35710  1.0000
  C   C2389     1.0  0.83054  0.88683  0.99100  1.0000
  Fe  Fe161     1.0  0.81188  0.89010  0.27943  1.0000
  S   S312      1.0  0.80900  0.93631  0.26688  1.0000
  S   S313      1.0  0.85157  0.86042  0.27655  1.0000
  Fe  Fe162     1.0  0.77343  0.92852  0.23727  1.0000
  C   C2390     1.0  0.82387  0.49008  0.39907  1.0000
  Fe  Fe163     1.0  0.77575  0.93916  0.30369  1.0000
  C   C2391     1.0  0.75705  0.69622  0.35831  1.0000
  S   S314      1.0  0.77856  0.88194  0.24725  1.0000
  S   S315      1.0  0.78098  0.89387  0.31790  1.0000
  H   H1919     1.0  0.98736  0.92768  0.33423  1.0000
  H   H1920     1.0  0.82355  0.53003  0.41753  1.0000
  C   C2392     1.0  0.81775  0.49523  0.27972  1.0000
  H   H1921     1.0  0.91597  0.89752  0.00802  1.0000
  S   S316      1.0  0.77955  0.71434  0.23923  1.0000
  H   H1922     1.0  0.81023  0.76930  0.01543  1.0000
  S   S317      1.0  0.97199  0.86936  0.13817  1.0000
  Fe  Fe164     1.0  0.75303  0.67799  0.22653  1.0000
  Fe  Fe165     1.0  0.93840  0.79249  0.21195  1.0000
  S   S318      1.0  0.93819  0.83878  0.21576  1.0000
  S   S319      1.0  0.89946  0.76724  0.20321  1.0000
  Fe  Fe166     1.0  0.97113  0.83940  0.17898  1.0000
  C   C2393     1.0  0.92276  0.91243  0.09012  1.0000
  Fe  Fe167     1.0  0.97458  0.83088  0.24652  1.0000
  S   S320      1.0  0.97098  0.86193  0.28320  1.0000
  S   S321      1.0  0.97003  0.79382  0.17376  1.0000
  S   S322      1.0  0.97380  0.78392  0.24394  1.0000
  H   H1923     1.0  0.95109  0.53402  0.07130  1.0000
  C   C2394     1.0  0.85918  0.94439  0.43903  1.0000
  S   S323      1.0  0.76439  0.63933  0.39828  1.0000
  Fe  Fe168     1.0  0.78734  0.67236  0.41959  1.0000
  S   S324      1.0  0.77318  0.71757  0.42908  1.0000
  Fe  Fe169     1.0  0.80676  0.62641  0.37669  1.0000
  S   S325      1.0  0.81922  0.59609  0.41543  1.0000
  S   S326      1.0  0.81288  0.60922  0.33014  1.0000
  Fe  Fe170     1.0  0.77774  0.61109  0.43725  1.0000
  Fe  Fe171     1.0  0.83856  0.63242  0.43366  1.0000
  H   H1924     1.0  0.84619  0.96324  0.43411  1.0000
  S   S327      1.0  0.82826  0.66183  0.39447  1.0000
  Fe  Fe172     1.0  0.83083  0.61840  0.09087  1.0000
  S   S328      1.0  0.84941  0.65592  0.10669  1.0000
  S   S329      1.0  0.85881  0.58508  0.07011  1.0000
  Fe  Fe173     1.0  0.82062  0.64823  0.14717  1.0000
  S   S330      1.0  0.83950  0.64946  0.19359  1.0000
  Fe  Fe174     1.0  0.81280  0.67944  0.08364  1.0000
  S   S331      1.0  0.81483  0.72015  0.05471  1.0000
  S   S332      1.0  0.80327  0.60993  0.13136  1.0000
  S   S333      1.0  0.79605  0.64213  0.06544  1.0000
  C   C2395     1.0  0.83191  0.55791  0.01183  1.0000
  C   C2396     1.0  0.79821  0.72699  0.02014  1.0000
  C   C2397     1.0  0.78437  0.70668  0.00670  1.0000
  Fe  Fe175     1.0  0.77046  0.63816  0.10796  1.0000
  C   C2398     1.0  0.89347  0.85415  0.16793  1.0000
  C   C2399     1.0  0.79901  0.75367  0.00568  1.0000
  C   C2400     1.0  0.81984  0.62128  0.29229  1.0000
  C   C2401     1.0  0.82710  0.64843  0.28381  1.0000
  C   C2402     1.0  0.83302  0.65655  0.25375  1.0000
  C   C2403     1.0  0.83040  0.63827  0.23124  1.0000
  C   C2404     1.0  0.82387  0.61084  0.23979  1.0000
  C   C2405     1.0  0.81895  0.60244  0.27004  1.0000
  H   H1925     1.0  0.82815  0.66331  0.30028  1.0000
  H   H1926     1.0  0.83915  0.67743  0.24787  1.0000
  H   H1927     1.0  0.82230  0.59621  0.22305  1.0000
  H   H1928     1.0  0.81359  0.58140  0.27624  1.0000
  C   C2406     1.0  0.94913  0.56643  0.10156  1.0000
  C   C2407     1.0  0.93839  0.55124  0.07989  1.0000
  C   C2408     1.0  0.91118  0.55813  0.06943  1.0000
  C   C2409     1.0  0.89403  0.57948  0.08144  1.0000
  C   C2410     1.0  0.90506  0.59526  0.10251  1.0000
  C   C2411     1.0  0.93277  0.58903  0.11222  1.0000
  H   H1929     1.0  0.90333  0.54657  0.05229  1.0000
  H   H1930     1.0  0.89215  0.61191  0.11172  1.0000
  H   H1931     1.0  0.94117  0.60139  0.12837  1.0000
  H   H1932     1.0  0.91005  0.49645  0.08030  1.0000
  C   C2412     1.0  0.95361  0.91346  0.22083  1.0000
  C   C2413     1.0  0.85760  0.95521  0.16467  1.0000
  C   C2414     1.0  0.87367  0.94851  0.29770  1.0000
  C   C2415     1.0  0.82079  0.53413  0.37022  1.0000
  C   C2416     1.0  0.84689  0.97567  0.14400  1.0000
  C   C2417     1.0  0.96696  0.86954  0.34290  1.0000
  C   C2418     1.0  0.97760  0.87114  0.37134  1.0000
  S   S334      1.0  0.96095  0.85139  0.47029  1.0000
  H   H1933     1.0  0.94507  0.87592  0.33886  1.0000
  H   H1934     1.0  0.96387  0.87871  0.38891  1.0000
  C   C2419     1.0  0.85578  0.77788  0.05967  1.0000
  H   H1935     1.0  0.93485  0.69889  0.45628  1.0000
  S   S335      1.0  0.79059  0.97285  0.47268  1.0000
  C   C2420     1.0  0.81812  0.49111  0.34592  1.0000
  H   H1936     1.0  0.78053  0.83532  0.30451  1.0000
  C   C2421     1.0  0.81296  0.72892  0.22896  1.0000
  C   C2422     1.0  0.82936  0.72099  0.20441  1.0000
  C   C2423     1.0  0.85540  0.73301  0.19696  1.0000
  C   C2424     1.0  0.86601  0.75304  0.21406  1.0000
  C   C2425     1.0  0.84959  0.76119  0.23868  1.0000
  C   C2426     1.0  0.82322  0.74939  0.24586  1.0000
  H   H1937     1.0  0.82181  0.70565  0.19091  1.0000
  H   H1938     1.0  0.86747  0.72626  0.17791  1.0000
  H   H1939     1.0  0.85712  0.77672  0.25202  1.0000
  H   H1940     1.0  0.81066  0.75606  0.26468  1.0000
  P   P81       1.0  0.89905  0.92993  0.20156  1.0000
  C   C2427     1.0  0.82316  0.51911  0.39751  1.0000
  C   C2428     1.0  0.83047  0.56693  0.98187  1.0000
  H   H1941     1.0  0.75106  0.66795  0.29300  1.0000
  C   C2429     1.0  0.78055  0.94891  0.42102  1.0000
  C   C2430     1.0  0.77760  0.94885  0.39024  1.0000
  H   H1942     1.0  0.88242  0.58330  0.01309  1.0000
  H   H1943     1.0  0.90549  0.66272  0.01344  1.0000
  C   C2431     1.0  0.90910  0.58863  0.46126  1.0000
  H   H1944     1.0  0.77733  0.92938  0.37989  1.0000
  C   C2432     1.0  0.76763  0.85831  0.45832  1.0000
  H   H1945     1.0  0.97882  0.60757  0.42751  1.0000
  C   C2433     1.0  0.79812  0.51779  0.27382  1.0000
  C   C2434     1.0  0.77291  0.95452  0.15426  1.0000
  C   C2435     1.0  0.93262  0.57105  0.47029  1.0000
  H   H1946     1.0  0.85802  0.96518  0.37875  1.0000
  H   H1947     1.0  0.87756  0.52676  0.42328  1.0000
  H   H1948     1.0  0.80046  0.53796  0.15768  1.0000
  C   C2436     1.0  0.78527  0.92945  0.11040  1.0000
  H   H1949     1.0  0.88555  0.90513  0.30830  1.0000
  H   H1950     1.0  0.95492  0.65470  0.02904  1.0000
  S   S336      1.0  0.78643  0.67659  0.12560  1.0000
  C   C2437     1.0  0.95218  0.61331  0.24659  1.0000
  C   C2438     1.0  0.86518  0.50043  0.07342  1.0000
  H   H1951     1.0  0.77075  0.55407  0.32757  1.0000
  C   C2439     1.0  0.78466  0.81177  0.17505  1.0000
  S   S337      1.0  0.75760  0.63375  0.24661  1.0000
  C   C2440     1.0  0.84613  0.92141  0.45256  1.0000
  C   C2441     1.0  0.92663  0.81617  0.32780  1.0000
  C   C2442     1.0  0.90664  0.83373  0.34205  1.0000
  C   C2443     1.0  0.88356  0.84737  0.32684  1.0000
  C   C2444     1.0  0.87986  0.84319  0.29716  1.0000
  C   C2445     1.0  0.89926  0.82474  0.28317  1.0000
  C   C2446     1.0  0.92256  0.81160  0.29837  1.0000
  H   H1952     1.0  0.90996  0.83721  0.36472  1.0000
  H   H1953     1.0  0.86855  0.86109  0.33780  1.0000
  H   H1954     1.0  0.89636  0.82065  0.26042  1.0000
  H   H1955     1.0  0.93759  0.79798  0.28751  1.0000
  C   C2447     1.0  0.82693  0.73751  0.38050  1.0000
  C   C2448     1.0  0.81085  0.73821  0.35526  1.0000
  C   C2449     1.0  0.82196  0.72586  0.33012  1.0000
  C   C2450     1.0  0.84933  0.71320  0.33010  1.0000
  C   C2451     1.0  0.86586  0.71272  0.35531  1.0000
  C   C2452     1.0  0.85431  0.72484  0.38059  1.0000
  P   P82       1.0  0.90178  0.69748  0.35444  1.0000
  C   C2453     1.0  0.92226  0.71057  0.38286  1.0000
  C   C2454     1.0  0.90191  0.65980  0.35867  1.0000
  C   C2455     1.0  0.92011  0.64409  0.37825  1.0000
  C   C2456     1.0  0.91971  0.61509  0.38128  1.0000
  C   C2457     1.0  0.90207  0.60137  0.36393  1.0000
  C   C2458     1.0  0.88504  0.61665  0.34340  1.0000
  C   C2459     1.0  0.88472  0.64569  0.34097  1.0000
  C   C2460     1.0  0.94298  0.72967  0.37552  1.0000
  C   C2461     1.0  0.96090  0.73728  0.39704  1.0000
  C   C2462     1.0  0.95822  0.72596  0.42610  1.0000
  C   C2463     1.0  0.93700  0.70767  0.43382  1.0000
  C   C2464     1.0  0.91871  0.70046  0.41247  1.0000
  C   C2465     1.0  0.91598  0.70795  0.31821  1.0000
  C   C2466     1.0  0.91032  0.73526  0.30619  1.0000
  C   C2467     1.0  0.91956  0.74295  0.27743  1.0000
  C   C2468     1.0  0.93589  0.72409  0.26112  1.0000
  C   C2469     1.0  0.94178  0.69697  0.27290  1.0000
  C   C2470     1.0  0.93132  0.68872  0.30111  1.0000
  H   H1956     1.0  0.81812  0.74676  0.40009  1.0000
  H   H1957     1.0  0.78969  0.74818  0.35525  1.0000
  H   H1958     1.0  0.80942  0.72615  0.31055  1.0000
  H   H1959     1.0  0.85767  0.70429  0.31009  1.0000
  H   H1960     1.0  0.86617  0.72446  0.40045  1.0000
  H   H1961     1.0  0.93477  0.65387  0.39126  1.0000
  H   H1962     1.0  0.93285  0.60334  0.39737  1.0000
  H   H1963     1.0  0.90142  0.57896  0.36648  1.0000
  H   H1964     1.0  0.87161  0.60611  0.32962  1.0000
  H   H1965     1.0  0.87110  0.65704  0.32517  1.0000
  H   H1966     1.0  0.94556  0.73872  0.35321  1.0000
  S   S338      1.0  0.76692  0.57831  0.18945  1.0000
  H   H1967     1.0  0.97236  0.73162  0.44265  1.0000
  H   H1968     1.0  0.78792  0.49654  0.19269  1.0000
  H   H1969     1.0  0.90243  0.68617  0.41883  1.0000
  H   H1970     1.0  0.89858  0.75057  0.31888  1.0000
  H   H1971     1.0  0.91425  0.76361  0.26763  1.0000
  H   H1972     1.0  0.94410  0.73061  0.23929  1.0000
  H   H1973     1.0  0.95469  0.68260  0.26010  1.0000
  H   H1974     1.0  0.93522  0.66746  0.30944  1.0000
  H   H1975     1.0  0.79174  0.51217  0.11377  1.0000
  H   H1976     1.0  0.90777  0.80971  0.01928  1.0000
  H   H1977     1.0  0.78715  0.67732  0.32794  1.0000
  S   S339      1.0  0.87928  0.64019  0.45617  1.0000
  C   C2471     1.0  0.88716  0.80660  0.02982  1.0000
  C   C2472     1.0  0.86590  0.82800  0.02812  1.0000
  C   C2473     1.0  0.83895  0.82432  0.04108  1.0000
  C   C2474     1.0  0.83451  0.79934  0.05808  1.0000
  P   P83       1.0  0.81303  0.85362  0.04141  1.0000
  C   C2475     1.0  0.77893  0.84191  0.05478  1.0000
  C   C2476     1.0  0.82726  0.87389  0.06860  1.0000
  C   C2477     1.0  0.82943  0.86201  0.09758  1.0000
  C   C2478     1.0  0.84142  0.87635  0.11910  1.0000
  C   C2479     1.0  0.85243  0.90213  0.11172  1.0000
  C   C2480     1.0  0.85014  0.91429  0.08305  1.0000
  C   C2481     1.0  0.83736  0.90038  0.06157  1.0000
  C   C2482     1.0  0.83885  0.49043  0.08166  1.0000
  C   C2483     1.0  0.87129  0.96971  0.27518  1.0000
  C   C2484     1.0  0.78266  0.93010  0.14143  1.0000
  H   H1978     1.0  0.82378  0.92279  0.45844  1.0000
  C   C2485     1.0  0.76865  0.81785  0.04450  1.0000
  C   C2486     1.0  0.80869  0.87183  0.00515  1.0000
  H   H1979     1.0  0.86684  0.95254  0.32004  1.0000
  C   C2487     1.0  0.84757  0.76052  0.46053  1.0000
  C   C2488     1.0  0.76156  0.79536  0.18250  1.0000
  C   C2489     1.0  0.83964  0.48969  0.25888  1.0000
  C   C2490     1.0  0.78291  0.87127  0.99065  1.0000
  C   C2491     1.0  0.89471  0.59220  0.99486  1.0000
  H   H1980     1.0  0.82605  0.81341  0.15405  1.0000
  C   C2492     1.0  0.96796  0.49762  0.22700  1.0000
  H   H1981     1.0  0.87077  0.84753  0.01688  1.0000
  H   H1982     1.0  0.81494  0.79618  0.07050  1.0000
  H   H1983     1.0  0.82154  0.84172  0.10358  1.0000
  H   H1984     1.0  0.84172  0.86765  0.14158  1.0000
  H   H1985     1.0  0.86227  0.91286  0.12829  1.0000
  H   H1986     1.0  0.85757  0.93483  0.07769  1.0000
  H   H1987     1.0  0.83463  0.91096  0.04008  1.0000
  H   H1988     1.0  0.76897  0.87623  0.08222  1.0000
  C   C2493     1.0  0.91672  0.49697  0.98078  1.0000
  H   H1989     1.0  0.99105  0.93433  0.14605  1.0000
  H   H1990     1.0  0.78492  0.83273  0.18194  1.0000
  H   H1991     1.0  0.78045  0.80677  0.02770  1.0000
  H   H1992     1.0  0.85090  0.88753  0.00077  1.0000
  H   H1993     1.0  0.75390  0.82191  0.25961  1.0000
  H   H1994     1.0  0.85725  0.76497  0.99281  1.0000
  H   H1995     1.0  0.76477  0.77257  0.44877  1.0000
  H   H1996     1.0  0.98523  0.73165  0.06025  1.0000
  C   C2494     1.0  0.89140  0.91620  0.26200  1.0000
  C   C2495     1.0  0.95133  0.93405  0.17079  1.0000
  H   H1997     1.0  0.81943  0.55668  0.36895  1.0000
  H   H1998     1.0  0.78789  0.91155  0.15543  1.0000
  C   C2496     1.0  0.95956  0.61433  0.19361  1.0000
  C   C2497     1.0  0.96003  0.62744  0.21999  1.0000
  C   C2498     1.0  0.94164  0.57327  0.22019  1.0000
  C   C2499     1.0  0.95066  0.58725  0.19374  1.0000
  P   P84       1.0  0.92516  0.54060  0.21863  1.0000
  C   C2500     1.0  0.89788  0.54682  0.19170  1.0000
  C   C2501     1.0  0.88336  0.57307  0.18836  1.0000
  C   C2502     1.0  0.86334  0.57850  0.16664  1.0000
  C   C2503     1.0  0.85738  0.55783  0.14818  1.0000
  C   C2504     1.0  0.87104  0.53146  0.15188  1.0000
  C   C2505     1.0  0.89105  0.52580  0.17371  1.0000
  C   C2506     1.0  0.90655  0.53173  0.25327  1.0000
  C   C2507     1.0  0.88845  0.55194  0.26641  1.0000
  C   C2508     1.0  0.87653  0.54644  0.29468  1.0000
  C   C2509     1.0  0.88236  0.52068  0.30988  1.0000
  C   C2510     1.0  0.89834  0.49974  0.29602  1.0000
  C   C2511     1.0  0.90969  0.50499  0.26749  1.0000
  H   H1999     1.0  0.96586  0.62529  0.17296  1.0000
  H   H2000     1.0  0.81996  0.49990  0.07143  1.0000
  H   H2001     1.0  0.95011  0.57744  0.17310  1.0000
  H   H2002     1.0  0.88758  0.58970  0.20212  1.0000
  H   H2003     1.0  0.85271  0.59898  0.16399  1.0000
  H   H2004     1.0  0.84233  0.56229  0.13082  1.0000
  H   H2005     1.0  0.86633  0.51572  0.13734  1.0000
  H   H2006     1.0  0.90129  0.50515  0.17622  1.0000
  H   H2007     1.0  0.88397  0.57225  0.25517  1.0000
  H   H2008     1.0  0.86286  0.56231  0.30479  1.0000
  H   H2009     1.0  0.87410  0.51680  0.33222  1.0000
  C   C2512     1.0  0.98341  0.63411  0.32189  1.0000
  C   C2513     1.0  0.94633  0.94870  0.33969  1.0000
  C   C2514     1.0  0.88859  0.94303  0.43307  1.0000
  C   C2515     1.0  0.89146  0.89581  0.45575  1.0000
  C   C2516     1.0  0.86216  0.89709  0.46062  1.0000
  C   C2517     1.0  0.93492  0.61837  0.97794  1.0000
  H   H2010     1.0  0.77300  0.69967  0.37374  1.0000
  C   C2518     1.0  0.89442  0.69334  0.04465  1.0000
  C   C2519     1.0  0.91290  0.67443  0.03061  1.0000
  C   C2520     1.0  0.94086  0.66994  0.03938  1.0000
  C   C2521     1.0  0.95058  0.68454  0.06205  1.0000
  C   C2522     1.0  0.93233  0.70401  0.07593  1.0000
  C   C2523     1.0  0.90398  0.70778  0.06757  1.0000
  P   P85       1.0  0.94322  0.71966  0.10815  1.0000
  C   C2524     1.0  0.93141  0.69838  0.14012  1.0000
  C   C2525     1.0  0.98098  0.72297  0.10765  1.0000
  H   H2011     1.0  0.88724  0.73645  0.46518  1.0000
  C   C2526     1.0  0.92397  0.92873  0.03830  1.0000
  H   H2012     1.0  0.92316  0.60934  0.02376  1.0000
  H   H2013     1.0  0.95735  0.50612  0.30835  1.0000
  C   C2527     1.0  0.98755  0.85233  0.10821  1.0000
  C   C2528     1.0  0.92945  0.70921  0.16802  1.0000
  C   C2529     1.0  0.91756  0.69399  0.19217  1.0000
  C   C2530     1.0  0.90774  0.66783  0.18881  1.0000
  C   C2531     1.0  0.91013  0.65656  0.16131  1.0000
  C   C2532     1.0  0.92212  0.67161  0.13707  1.0000
  C   C2533     1.0  0.92697  0.75457  0.10825  1.0000
  C   C2534     1.0  0.94020  0.77709  0.09338  1.0000
  C   C2535     1.0  0.92724  0.80392  0.09302  1.0000
  C   C2536     1.0  0.90095  0.80850  0.10740  1.0000
  C   C2537     1.0  0.88807  0.78642  0.12285  1.0000
  C   C2538     1.0  0.90073  0.75951  0.12289  1.0000
  H   H2014     1.0  0.87246  0.69627  0.03839  1.0000
  C   C2539     1.0  0.99649  0.91667  0.19039  1.0000
  S   S340      1.0  0.76830  0.95633  0.19355  1.0000
  H   H2015     1.0  0.97207  0.67995  0.06918  1.0000
  H   H2016     1.0  0.88900  0.72115  0.07935  1.0000
  C   C2540     1.0  0.87593  0.75362  0.45321  1.0000
  H   H2017     1.0  0.90395  0.87734  0.46337  1.0000
  C   C2541     1.0  0.77138  0.71313  0.97939  1.0000
  H   H2018     1.0  0.93612  0.72988  0.17092  1.0000
  H   H2019     1.0  0.91440  0.70318  0.21312  1.0000
  H   H2020     1.0  0.89752  0.65664  0.20736  1.0000
  H   H2021     1.0  0.90182  0.63651  0.15867  1.0000
  H   H2022     1.0  0.92323  0.66249  0.11596  1.0000
  H   H2023     1.0  0.96048  0.77424  0.08197  1.0000
  H   H2024     1.0  0.93776  0.82105  0.08160  1.0000
  H   H2025     1.0  0.89055  0.82909  0.10674  1.0000
  H   H2026     1.0  0.86840  0.79009  0.13506  1.0000
  H   H2027     1.0  0.89008  0.74263  0.13452  1.0000
  C   C2542     1.0  0.88675  0.88348  0.39024  1.0000
  C   C2543     1.0  0.87203  0.90576  0.37528  1.0000
  C   C2544     1.0  0.84293  0.90503  0.37155  1.0000
  C   C2545     1.0  0.82900  0.88125  0.38134  1.0000
  C   C2546     1.0  0.84397  0.85811  0.39513  1.0000
  C   C2547     1.0  0.87258  0.86016  0.40115  1.0000
  P   P86       1.0  0.82682  0.82560  0.40054  1.0000
  C   C2548     1.0  0.84656  0.79799  0.42162  1.0000
  C   C2549     1.0  0.79366  0.83370  0.42001  1.0000
  C   C2550     1.0  0.81653  0.80609  0.30352  1.0000
  C   C2551     1.0  0.90821  0.61696  0.46613  1.0000
  C   C2552     1.0  0.98454  0.86386  0.07923  1.0000
  H   H2028     1.0  0.98583  0.69038  0.20170  1.0000
  C   C2553     1.0  0.79283  0.85239  0.44240  1.0000
  C   C2554     1.0  0.87502  0.79059  0.41430  1.0000
  C   C2555     1.0  0.97896  0.93821  0.37926  1.0000
  C   C2556     1.0  0.82160  0.81572  0.36342  1.0000
  C   C2557     1.0  0.84126  0.79757  0.34923  1.0000
  C   C2558     1.0  0.83854  0.79265  0.31953  1.0000
  H   H2029     1.0  0.85901  0.50258  0.21703  1.0000
  C   C2559     1.0  0.88444  0.95724  0.17625  1.0000
  H   H2030     1.0  0.91916  0.88888  0.15992  1.0000
  H   H2031     1.0  0.90939  0.88394  0.39293  1.0000
  H   H2032     1.0  0.88335  0.92329  0.36637  1.0000
  H   H2033     1.0  0.83133  0.92232  0.36001  1.0000
  H   H2034     1.0  0.80672  0.88052  0.37714  1.0000
  H   H2035     1.0  0.88460  0.84357  0.41299  1.0000
  H   H2036     1.0  0.81172  0.86220  0.44787  1.0000
  H   H2037     1.0  0.88607  0.80120  0.39597  1.0000
  S   S341      1.0  0.80246  0.48713  0.01394  1.0000
  H   H2038     1.0  0.85912  0.78741  0.36038  1.0000
  H   H2039     1.0  0.85410  0.77914  0.30859  1.0000
  C   C2560     1.0  0.76337  0.75851  0.46814  1.0000
  H   H2040     1.0  0.98160  0.59041  0.31955  1.0000
  C   C2561     1.0  0.76896  0.82072  0.41404  1.0000
  C   C2562     1.0  0.76223  0.85689  0.07513  1.0000
  H   H2041     1.0  0.79197  0.91023  0.10111  1.0000
  C   C2563     1.0  0.82291  0.52970  0.22760  1.0000
  C   C2564     1.0  0.75973  0.56048  0.15784  1.0000
  H   H2042     1.0  0.76299  0.56959  0.03391  1.0000
  H   H2043     1.0  0.91580  0.86921  0.09960  1.0000
  H   H2044     1.0  0.91165  0.76376  0.42449  1.0000
  C   C2565     1.0  0.94345  0.58614  0.24685  1.0000
  C   C2566     1.0  0.90470  0.91868  0.44216  1.0000
  Fe  Fe176     1.0  0.76201  0.48506  0.04159  1.0000
  H   H2045     1.0  0.92751  0.91726  0.43936  1.0000
  H   H2046     1.0  0.91125  0.85989  0.04681  1.0000
  C   C2567     1.0  0.76655  0.72978  0.46493  1.0000
  H   H2047     1.0  0.76556  0.85987  0.00029  1.0000
  C   C2568     1.0  0.76369  0.76729  0.17651  1.0000
  P   P87       1.0  0.92852  0.95688  0.01055  1.0000
  H   H2048     1.0  0.78611  0.55294  0.24399  1.0000
  S   S342      1.0  0.78527  0.95067  0.05208  1.0000
  C   C2569     1.0  0.93240  0.96018  0.38970  1.0000
  H   H2049     1.0  0.80930  0.55286  0.05382  1.0000
  C   C2570     1.0  0.78166  0.56886  0.01931  1.0000
  C   C2571     1.0  0.87897  0.96418  0.24602  1.0000
  H   H2050     1.0  0.78233  0.92929  0.43406  1.0000
  C   C2572     1.0  0.87550  0.52400  0.47078  1.0000
  C   C2573     1.0  0.99593  0.72957  0.08102  1.0000
  C   C2574     1.0  0.83305  0.78274  0.44502  1.0000
  H   H2051     1.0  0.89842  0.76473  0.04624  1.0000
  C   C2575     1.0  0.95763  0.51226  0.17639  1.0000
  C   C2576     1.0  0.93744  0.92628  0.19773  1.0000
  C   C2577     1.0  0.98439  0.85975  0.31957  1.0000
  C   C2578     1.0  0.91495  0.88063  0.05282  1.0000
  C   C2579     1.0  0.78745  0.75630  0.16112  1.0000
  H   H2052     1.0  0.90639  0.96849  0.35126  1.0000
  C   C2580     1.0  0.88967  0.76885  0.43028  1.0000
  H   H2053     1.0  0.93053  0.95429  0.07445  1.0000
  H   H2054     1.0  0.93737  0.57582  0.26777  1.0000
  C   C2581     1.0  0.79928  0.82875  0.34711  1.0000
  C   C2582     1.0  0.88406  0.51473  0.44318  1.0000
  H   H2055     1.0  0.85203  0.75863  0.07252  1.0000
  H   H2056     1.0  0.86659  0.51736  0.05672  1.0000
  C   C2583     1.0  0.91808  0.90203  0.03076  1.0000
  H   H2057     1.0  0.92511  0.91611  0.11307  1.0000
  C   C2584     1.0  0.95898  0.94930  0.39931  1.0000
  C   C2585     1.0  0.99521  0.72175  0.13423  1.0000
  C   C2586     1.0  0.77526  0.97398  0.37300  1.0000
  H   H2058     1.0  0.81125  0.78777  0.45140  1.0000
  H   H2059     1.0  0.96590  0.50044  0.25032  1.0000
  S   S343      1.0  0.75009  0.51572  0.37341  1.0000
  C   C2587     1.0  0.95208  0.51489  0.20667  1.0000
  H   H2060     1.0  0.96409  0.94856  0.42242  1.0000
  C   C2588     1.0  0.77552  0.52650  0.12201  1.0000
  H   H2061     1.0  0.94721  0.52640  0.16005  1.0000
  H   H2062     1.0  0.94382  0.90588  0.24142  1.0000
  C   C2589     1.0  0.88395  0.92185  0.29112  1.0000
  C   C2590     1.0  0.92646  0.96025  0.35957  1.0000
  H   H2063     1.0  0.89866  0.89511  0.25736  1.0000
  S   S344      1.0  0.77305  0.50055  0.45665  1.0000
  H   H2064     1.0  0.82812  0.76398  0.14108  1.0000
  H   H2065     1.0  0.95222  0.62382  0.26686  1.0000
  H   H2066     1.0  0.78363  0.68599  0.01732  1.0000
  C   C2591     1.0  0.76661  0.97842  0.13528  1.0000
  C   C2592     1.0  0.80832  0.80076  0.15951  1.0000
  H   H2067     1.0  0.86710  0.82107  0.18384  1.0000
  H   H2068     1.0  0.97480  0.88450  0.07526  1.0000
  H   H2069     1.0  0.93946  0.94245  0.15203  1.0000
  H   H2070     1.0  0.89167  0.58042  0.45063  1.0000
  H   H2071     1.0  0.86907  0.95804  0.02914  1.0000
  C   C2593     1.0  0.81848  0.52025  0.34455  1.0000
  H   H2072     1.0  0.98060  0.93370  0.03976  1.0000
  C   C2594     1.0  0.88194  0.78133  0.04513  1.0000
  H   H2073     1.0  0.82655  0.97357  0.13449  1.0000
  S   S345      1.0  0.98155  0.55498  0.11737  1.0000
  H   H2074     1.0  0.81653  0.53269  0.32398  1.0000
  H   H2075     1.0  0.85898  0.64264  0.00921  1.0000
  C   C2595     1.0  0.91729  0.88584  0.08247  1.0000
  H   H2076     1.0  0.78095  0.52240  0.28945  1.0000
  C   C2596     1.0  0.84211  0.50685  0.23291  1.0000
  C   C2597     1.0  0.99206  0.60861  0.31079  1.0000
  C   C2598     1.0  0.99363  0.84834  0.05526  1.0000
  H   H2077     1.0  0.96636  0.64860  0.21977  1.0000
  H   H2078     1.0  0.76937  0.80538  0.39769  1.0000
  C   C2599     1.0  0.79711  0.82431  0.31725  1.0000
  C   C2600     1.0  0.84864  0.64917  0.98874  1.0000
  H   H2079     1.0  0.99070  0.85708  0.03304  1.0000
  C   C2601     1.0  0.98073  0.92953  0.16729  1.0000
  C   C2602     1.0  0.92609  0.93382  0.06817  1.0000
  H   H2080     1.0  0.96671  0.63525  0.33873  1.0000
  C   C2603     1.0  0.86185  0.88673  0.20722  1.0000
  C   C2604     1.0  0.88591  0.89725  0.19251  1.0000
  C   C2605     1.0  0.85461  0.85954  0.20342  1.0000
  C   C2606     1.0  0.91800  0.60704  0.00100  1.0000
  C   C2607     1.0  0.80955  0.77308  0.15224  1.0000
  H   H2081     1.0  0.84493  0.93776  0.17135  1.0000
  C   C2608     1.0  0.88901  0.93730  0.23917  1.0000
  H   H2082     1.0  0.83210  0.48389  0.16507  1.0000
  C   C2609     1.0  0.98972  0.53438  0.29513  1.0000
  H   H2083     1.0  0.94119  0.94754  0.31673  1.0000
  C   C2610     1.0  0.77977  0.95331  0.09131  1.0000
  H   H2084     1.0  0.83730  0.85077  0.21650  1.0000
  H   H2085     1.0  0.82494  0.54345  0.20774  1.0000
  C   C2611     1.0  0.97253  0.93766  0.34952  1.0000
  H   H2086     1.0  0.78948  0.73434  0.15735  1.0000
  C   C2612     1.0  0.76515  0.68355  0.33246  1.0000
  H   H2087     1.0  0.97379  0.49730  0.35956  1.0000
  C   C2613     1.0  0.80776  0.55922  0.03051  1.0000
  C   C2614     1.0  0.77971  0.57706  0.98932  1.0000
  C   C2615     1.0  0.98598  0.95082  0.02431  1.0000
  S   S346      1.0  0.79869  0.64453  0.45876  1.0000
  H   H2088     1.0  0.98421  0.71781  0.15513  1.0000
  C   C2616     1.0  0.90069  0.88130  0.17166  1.0000
  H   H2089     1.0  0.75939  0.58389  0.98055  1.0000
  C   C2617     1.0  0.78037  0.54111  0.14703  1.0000
  H   H2090     1.0  0.97691  0.75198  0.39100  1.0000
  C   C2618     1.0  0.87114  0.84286  0.18474  1.0000
  H   H2091     1.0  0.99039  0.67783  0.32077  1.0000
  H   H2092     1.0  0.81074  0.62851  0.00170  1.0000
  C   C2619     1.0  0.98485  0.51122  0.34398  1.0000
  H   H2093     1.0  0.98147  0.53912  0.27332  1.0000
  H   H2094     1.0  0.90697  0.84108  0.15421  1.0000
  H   H2095     1.0  0.84962  0.89881  0.22295  1.0000
  C   C2620     1.0  0.98293  0.90876  0.21717  1.0000
  C   C2621     1.0  0.97571  0.51606  0.31505  1.0000
  H   H2096     1.0  0.98048  0.48952  0.14310  1.0000
  H   H2097     1.0  0.93318  0.54911  0.46671  1.0000
  C   C2622     1.0  0.97661  0.49124  0.16665  1.0000
  H   H2098     1.0  0.86860  0.83214  0.46670  1.0000
  H   H2099     1.0  0.92074  0.48810  0.25677  1.0000
  H   H2100     1.0  0.75390  0.79572  0.30879  1.0000
  H   H2101     1.0  0.93868  0.49337  0.98679  1.0000
  H   H2102     1.0  0.90669  0.48240  0.41992  1.0000
  H   H2103     1.0  0.95328  0.62953  0.98265  1.0000
  P   P88       1.0  0.90599  0.97280  0.41616  1.0000
  C   C2623     1.0  0.90061  0.48989  0.44129  1.0000
  H   H2104     1.0  0.85203  0.87993  0.47237  1.0000
  C   C2624     1.0  0.74969  0.53068  0.10785  1.0000
  C   C2625     1.0  0.96505  0.96599  0.00763  1.0000
  H   H2105     1.0  0.86208  0.54295  0.47158  1.0000
  H   H2106     1.0  0.74811  0.59391  0.29854  1.0000
  C   C2626     1.0  0.74950  0.56128  0.33360  1.0000
  S   S347      1.0  0.77313  0.97539  0.33393  1.0000
  C   C2627     1.0  0.78138  0.97399  0.43496  1.0000
  H   H2107     1.0  0.99490  0.89780  0.23479  1.0000
  H   H2108     1.0  0.99303  0.64283  0.38825  1.0000
  C   C2628     1.0  0.99673  0.65810  0.31181  1.0000
  S   S348      1.0  0.74861  0.58844  0.47098  1.0000
  H   H2109     1.0  0.90192  0.47944  0.30738  1.0000
  Fe  Fe177     1.0  0.78277  0.97789  0.00779  1.0000
  C   C2629     1.0  0.77027  0.97793  0.10411  1.0000
  H   H2110     1.0  0.94571  0.90392  0.92189  1.0000
  S   S349      1.0  0.97905  0.73291  0.70013  1.0000
  H   H2111     1.0  0.97232  0.97426  0.65457  1.0000
  H   H2112     1.0  0.81570  0.68702  0.49424  1.0000
  H   H2113     1.0  0.75433  0.92555  0.67656  1.0000
  S   S350      1.0  0.92909  0.68094  0.68336  1.0000
  Fe  Fe178     1.0  0.98365  0.79067  0.93010  1.0000
  Fe  Fe179     1.0  0.80672  0.57635  0.72204  1.0000
  S   S351      1.0  0.79728  0.53128  0.72607  1.0000
  S   S352      1.0  0.85468  0.57874  0.72252  1.0000
  Fe  Fe180     1.0  0.76600  0.54115  0.69041  1.0000
  S   S353      1.0  0.76851  0.50901  0.65556  1.0000
  C   C2630     1.0  0.81642  0.56138  0.60364  1.0000
  H   H2114     1.0  0.78136  0.66453  0.53003  1.0000
  S   S354      1.0  0.77761  0.58557  0.68401  1.0000
  H   H2115     1.0  0.84811  0.79027  0.61725  1.0000
  H   H2116     1.0  0.92804  0.96024  0.59968  1.0000
  C   C2631     1.0  0.98511  0.85005  0.79530  1.0000
  C   C2632     1.0  0.85638  0.49030  0.55241  1.0000
  H   H2117     1.0  0.80144  0.58170  0.94737  1.0000
  H   H2118     1.0  0.82454  0.96469  0.62258  1.0000
  C   C2633     1.0  0.76770  0.48768  0.85480  1.0000
  C   C2634     1.0  0.77138  0.74008  0.96543  1.0000
  Fe  Fe181     1.0  0.83675  0.79130  0.76966  1.0000
  S   S355      1.0  0.81567  0.77740  0.73011  1.0000
  S   S356      1.0  0.87257  0.76950  0.79649  1.0000
  Fe  Fe182     1.0  0.79490  0.84226  0.77624  1.0000
  S   S357      1.0  0.77114  0.82989  0.73731  1.0000
  S   S358      1.0  0.77939  0.88431  0.79596  1.0000
  Fe  Fe183     1.0  0.77402  0.78494  0.75601  1.0000
  Fe  Fe184     1.0  0.81313  0.82331  0.71474  1.0000
  S   S359      1.0  0.82233  0.84408  0.66853  1.0000
  S   S360      1.0  0.79574  0.79769  0.79596  1.0000
  S   S361      1.0  0.83723  0.83642  0.75260  1.0000
  Fe  Fe185     1.0  0.95108  0.83971  0.95524  1.0000
  H   H2119     1.0  0.85385  0.82993  0.97109  1.0000
  H   H2120     1.0  0.99174  0.60390  0.68126  1.0000
  H   H2121     1.0  0.90184  0.59621  0.91976  1.0000
  C   C2635     1.0  0.80529  0.59201  0.51657  1.0000
  Fe  Fe186     1.0  0.95800  0.88384  0.50383  1.0000
  H   H2122     1.0  0.88232  0.97412  0.96993  1.0000
  H   H2123     1.0  0.91349  0.58252  0.70805  1.0000
  S   S362      1.0  0.96951  0.67155  0.80328  1.0000
  H   H2124     1.0  0.75657  0.79130  0.49822  1.0000
  Fe  Fe187     1.0  0.76135  0.86614  0.56149  1.0000
  S   S363      1.0  0.76650  0.83214  0.59783  1.0000
  S   S364      1.0  0.78992  0.89594  0.53613  1.0000
  S   S365      1.0  0.75857  0.96675  0.96853  1.0000
  H   H2125     1.0  0.84057  0.63905  0.71651  1.0000
  H   H2126     1.0  0.82071  0.52646  0.63570  1.0000
  C   C2636     1.0  0.93234  0.91985  0.93209  1.0000
  C   C2637     1.0  0.92851  0.61480  0.94877  1.0000
  H   H2127     1.0  0.82876  0.82592  0.50325  1.0000
  H   H2128     1.0  0.92093  0.72344  0.61008  1.0000
  H   H2129     1.0  0.86771  0.87800  0.87238  1.0000
  S   S366      1.0  0.77379  0.58757  0.75713  1.0000
  H   H2130     1.0  0.87094  0.67861  0.70325  1.0000
  C   C2638     1.0  0.87721  0.52890  0.96567  1.0000
  Fe  Fe188     1.0  0.77026  0.84234  0.88356  1.0000
  S   S367      1.0  0.81053  0.86404  0.87899  1.0000
  S   S368      1.0  0.76625  0.80211  0.86285  1.0000
  H   H2131     1.0  0.80166  0.77830  0.63887  1.0000
  C   C2639     1.0  0.89836  0.87701  0.65861  1.0000
  C   C2640     1.0  0.85149  0.57028  0.92014  1.0000
  H   H2132     1.0  0.77825  0.73752  0.62237  1.0000
  C   C2641     1.0  0.77414  0.53814  0.87910  1.0000
  C   C2642     1.0  0.83414  0.59696  0.51480  1.0000
  C   C2643     1.0  0.84580  0.54810  0.52822  1.0000
  H   H2133     1.0  0.84086  0.61761  0.50826  1.0000
  C   C2644     1.0  0.76329  0.71165  0.49000  1.0000
  P   P89       1.0  0.86201  0.56390  0.95801  1.0000
  S   S369      1.0  0.75598  0.95761  0.62079  1.0000
  H   H2134     1.0  0.76394  0.68953  0.48759  1.0000
  C   C2645     1.0  0.95504  0.83535  0.71279  1.0000
  H   H2135     1.0  0.74863  0.91338  0.84132  1.0000
  C   C2646     1.0  0.84425  0.59763  0.90914  1.0000
  H   H2136     1.0  0.92416  0.77624  0.67020  1.0000
  C   C2647     1.0  0.85076  0.58802  0.64011  1.0000
  H   H2137     1.0  0.87359  0.86224  0.62478  1.0000
  H   H2138     1.0  0.79838  0.90987  0.92730  1.0000
  C   C2648     1.0  0.82633  0.54750  0.62961  1.0000
  C   C2649     1.0  0.88558  0.90589  0.52434  1.0000
  C   C2650     1.0  0.87624  0.87947  0.53364  1.0000
  C   C2651     1.0  0.84692  0.87601  0.53944  1.0000
  C   C2652     1.0  0.82705  0.89849  0.53405  1.0000
  C   C2653     1.0  0.83667  0.92441  0.52448  1.0000
  C   C2654     1.0  0.86557  0.92829  0.52065  1.0000
  H   H2139     1.0  0.89145  0.86192  0.53679  1.0000
  H   H2140     1.0  0.83961  0.85605  0.54750  1.0000
  H   H2141     1.0  0.82155  0.94173  0.51999  1.0000
  H   H2142     1.0  0.97224  0.61894  0.49789  1.0000
  C   C2655     1.0  0.88294  0.85203  0.94173  1.0000
  C   C2656     1.0  0.88733  0.86426  0.91333  1.0000
  C   C2657     1.0  0.86502  0.86706  0.89379  1.0000
  C   C2658     1.0  0.83888  0.85627  0.90211  1.0000
  C   C2659     1.0  0.83541  0.84154  0.92938  1.0000
  C   C2660     1.0  0.85732  0.83988  0.94943  1.0000
  H   H2143     1.0  0.90733  0.87285  0.90700  1.0000
  H   H2144     1.0  0.95069  0.54398  0.71200  1.0000
  H   H2145     1.0  0.81530  0.83304  0.93570  1.0000
  C   C2661     1.0  0.95387  0.94090  0.69864  1.0000
  C   C2662     1.0  0.90133  0.74400  0.79610  1.0000
  C   C2663     1.0  0.91440  0.73628  0.82288  1.0000
  C   C2664     1.0  0.93621  0.71520  0.82472  1.0000
  C   C2665     1.0  0.94683  0.70256  0.79946  1.0000
  C   C2666     1.0  0.93435  0.71101  0.77231  1.0000
  C   C2667     1.0  0.91128  0.73115  0.77072  1.0000
  H   H2146     1.0  0.90696  0.74600  0.84264  1.0000
  H   H2147     1.0  0.94473  0.70866  0.84593  1.0000
  H   H2148     1.0  0.94199  0.70144  0.75252  1.0000
  H   H2149     1.0  0.90144  0.73680  0.74986  1.0000
  C   C2668     1.0  0.77500  0.92615  0.63347  1.0000
  C   C2669     1.0  0.79501  0.91208  0.61561  1.0000
  C   C2670     1.0  0.80919  0.88700  0.62648  1.0000
  C   C2671     1.0  0.80354  0.87556  0.65534  1.0000
  C   C2672     1.0  0.78372  0.88987  0.67327  1.0000
  C   C2673     1.0  0.76968  0.91499  0.66245  1.0000
  H   H2150     1.0  0.79904  0.92013  0.59316  1.0000
  H   H2151     1.0  0.82411  0.87610  0.61212  1.0000
  H   H2152     1.0  0.77896  0.88141  0.69545  1.0000
  H   H2153     1.0  0.93074  0.64952  0.48295  1.0000
  C   C2674     1.0  0.80668  0.93904  0.86943  1.0000
  C   C2675     1.0  0.82709  0.92775  0.84950  1.0000
  C   C2676     1.0  0.81938  0.91109  0.82688  1.0000
  C   C2677     1.0  0.79099  0.90496  0.82422  1.0000
  C   C2678     1.0  0.77060  0.91729  0.84344  1.0000
  C   C2679     1.0  0.77830  0.93382  0.86602  1.0000
  H   H2154     1.0  0.84909  0.93096  0.85242  1.0000
  H   H2155     1.0  0.83543  0.90212  0.81232  1.0000
  H   H2156     1.0  0.93473  0.51741  0.52292  1.0000
  C   C2680     1.0  0.90834  0.93170  0.91784  1.0000
  C   C2681     1.0  0.89620  0.51793  0.82173  1.0000
  C   C2682     1.0  0.77542  0.51348  0.89762  1.0000
  C   C2683     1.0  0.93517  0.89491  0.61261  1.0000
  C   C2684     1.0  0.76986  0.53760  0.84854  1.0000
  C   C2685     1.0  0.95462  0.61020  0.48817  1.0000
  C   C2686     1.0  0.82260  0.67748  0.51524  1.0000
  H   H2157     1.0  0.96251  0.80549  0.64956  1.0000
  C   C2687     1.0  0.88893  0.77608  0.95967  1.0000
  C   C2688     1.0  0.75391  0.63715  0.82463  1.0000
  H   H2158     1.0  0.76088  0.69725  0.96920  1.0000
  H   H2159     1.0  0.80272  0.55115  0.58980  1.0000
  C   C2689     1.0  0.75828  0.72215  0.51804  1.0000
  H   H2160     1.0  0.89580  0.93923  0.56785  1.0000
  S   S370      1.0  0.75961  0.51015  0.79823  1.0000
  C   C2690     1.0  0.84884  0.54830  0.90201  1.0000
  S   S371      1.0  0.92162  0.91327  0.51773  1.0000
  C   C2691     1.0  0.94217  0.68527  0.55266  1.0000
  C   C2692     1.0  0.84547  0.53752  0.79570  1.0000
  S   S372      1.0  0.96946  0.83277  0.90999  1.0000
  S   S373      1.0  0.90770  0.85554  0.96870  1.0000
  C   C2693     1.0  0.90947  0.65302  0.69854  1.0000
  C   C2694     1.0  0.92150  0.62581  0.70082  1.0000
  C   C2695     1.0  0.90424  0.60346  0.70789  1.0000
  C   C2696     1.0  0.87501  0.60797  0.71363  1.0000
  C   C2697     1.0  0.86302  0.63520  0.71201  1.0000
  C   C2698     1.0  0.88024  0.65759  0.70445  1.0000
  H   H2161     1.0  0.94388  0.62196  0.69598  1.0000
  C   C2699     1.0  0.77213  0.48823  0.88529  1.0000
  H   H2162     1.0  0.86390  0.59815  0.65463  1.0000
  H   H2163     1.0  0.93711  0.96228  0.73611  1.0000
  H   H2164     1.0  0.91199  0.56375  0.61570  1.0000
  C   C2700     1.0  0.94206  0.55251  0.89938  1.0000
  C   C2701     1.0  0.83872  0.55363  0.87353  1.0000
  C   C2702     1.0  0.83079  0.58079  0.86303  1.0000
  C   C2703     1.0  0.83375  0.60286  0.88079  1.0000
  C   C2704     1.0  0.93988  0.69404  0.58133  1.0000
  H   H2165     1.0  0.83592  0.53648  0.86002  1.0000
  H   H2166     1.0  0.82238  0.58467  0.84112  1.0000
  H   H2167     1.0  0.82785  0.62399  0.87261  1.0000
  H   H2168     1.0  0.94198  0.62315  0.93096  1.0000
  H   H2169     1.0  0.95678  0.91785  0.97116  1.0000
  C   C2705     1.0  0.84689  0.93321  0.68847  1.0000
  C   C2706     1.0  0.85980  0.50634  0.96647  1.0000
  H   H2170     1.0  0.86589  0.68694  0.50610  1.0000
  H   H2171     1.0  0.94420  0.60660  0.55439  1.0000
  C   C2707     1.0  0.89651  0.95904  0.95971  1.0000
  C   C2708     1.0  0.90546  0.59960  0.94257  1.0000
  C   C2709     1.0  0.89059  0.95142  0.93158  1.0000
  H   H2172     1.0  0.87182  0.96035  0.92073  1.0000
  C   C2710     1.0  0.94137  0.89947  0.64184  1.0000
  H   H2173     1.0  0.95676  0.66791  0.54757  1.0000
  C   C2711     1.0  0.93841  0.92759  0.96017  1.0000
  H   H2174     1.0  0.90632  0.87810  0.58400  1.0000
  C   C2712     1.0  0.97429  0.50357  0.67460  1.0000
  H   H2175     1.0  0.96308  0.79359  0.69905  1.0000
  H   H2176     1.0  0.77427  0.56129  0.52426  1.0000
  C   C2713     1.0  0.89213  0.93643  0.80649  1.0000
  C   C2714     1.0  0.88536  0.94694  0.77810  1.0000
  C   C2715     1.0  0.89029  0.93022  0.75438  1.0000
  C   C2716     1.0  0.90173  0.90297  0.75898  1.0000
  C   C2717     1.0  0.91015  0.89280  0.78719  1.0000
  C   C2718     1.0  0.90423  0.90945  0.81107  1.0000
  P   P90       1.0  0.92583  0.85794  0.79392  1.0000
  C   C2719     1.0  0.96008  0.85962  0.81013  1.0000
  C   C2720     1.0  0.90148  0.84003  0.81870  1.0000
  C   C2721     1.0  0.91147  0.81977  0.83993  1.0000
  C   C2722     1.0  0.89247  0.80475  0.85792  1.0000
  C   C2723     1.0  0.86331  0.80970  0.85467  1.0000
  C   C2724     1.0  0.85323  0.82990  0.83347  1.0000
  C   C2725     1.0  0.87221  0.84523  0.81576  1.0000
  H   H2177     1.0  0.83759  0.50973  0.96141  1.0000
  H   H2178     1.0  0.75946  0.88444  0.95167  1.0000
  C   C2726     1.0  0.98569  0.75126  0.87060  1.0000
  H   H2179     1.0  0.75827  0.93602  0.76032  1.0000
  C   C2727     1.0  0.96216  0.87045  0.83779  1.0000
  C   C2728     1.0  0.93213  0.83881  0.76131  1.0000
  C   C2729     1.0  0.94490  0.85140  0.73577  1.0000
  H   H2180     1.0  0.83154  0.49629  0.80568  1.0000
  C   C2730     1.0  0.92930  0.52669  0.54351  1.0000
  C   C2731     1.0  0.94080  0.79390  0.74074  1.0000
  C   C2732     1.0  0.93008  0.80988  0.76348  1.0000
  H   H2181     1.0  0.88710  0.94872  0.82520  1.0000
  C   C2733     1.0  0.80767  0.64968  0.95837  1.0000
  H   H2182     1.0  0.88455  0.93793  0.73245  1.0000
  H   H2183     1.0  0.90285  0.88980  0.74069  1.0000
  H   H2184     1.0  0.90745  0.90121  0.83349  1.0000
  H   H2185     1.0  0.93383  0.81496  0.84188  1.0000
  H   H2186     1.0  0.90039  0.78859  0.87351  1.0000
  H   H2187     1.0  0.84848  0.79771  0.86819  1.0000
  H   H2188     1.0  0.83062  0.83365  0.83075  1.0000
  H   H2189     1.0  0.86388  0.86068  0.79950  1.0000
  H   H2190     1.0  0.96815  0.96258  0.87757  1.0000
  H   H2191     1.0  0.85381  0.52698  0.90986  1.0000
  H   H2192     1.0  0.94344  0.87566  0.85105  1.0000
  S   S374      1.0  0.98947  0.85827  0.97122  1.0000
  H   H2193     1.0  0.95274  0.68364  0.59857  1.0000
  C   C2734     1.0  0.80096  0.90007  0.94931  1.0000
  H   H2194     1.0  0.94061  0.77144  0.74334  1.0000
  H   H2195     1.0  0.92190  0.79922  0.78343  1.0000
  C   C2735     1.0  0.82425  0.58839  0.59549  1.0000
  C   C2736     1.0  0.84143  0.60195  0.61375  1.0000
  P   P91       1.0  0.85363  0.63608  0.60360  1.0000
  C   C2737     1.0  0.89158  0.63045  0.60113  1.0000
  C   C2738     1.0  0.84137  0.65211  0.56897  1.0000
  C   C2739     1.0  0.86031  0.66543  0.54892  1.0000
  H   H2196     1.0  0.82613  0.54498  0.78484  1.0000
  H   H2197     1.0  0.94872  0.87324  0.73446  1.0000
  C   C2740     1.0  0.80338  0.66502  0.53542  1.0000
  C   C2741     1.0  0.81259  0.65292  0.56249  1.0000
  C   C2742     1.0  0.90816  0.63605  0.62460  1.0000
  C   C2743     1.0  0.93754  0.63124  0.62281  1.0000
  C   C2744     1.0  0.95045  0.62096  0.59740  1.0000
  C   C2745     1.0  0.93409  0.61492  0.57397  1.0000
  C   C2746     1.0  0.90465  0.61900  0.57610  1.0000
  C   C2747     1.0  0.84125  0.65965  0.63106  1.0000
  C   C2748     1.0  0.81665  0.65458  0.64838  1.0000
  C   C2749     1.0  0.80626  0.67359  0.66861  1.0000
  C   C2750     1.0  0.82031  0.69779  0.67165  1.0000
  C   C2751     1.0  0.84470  0.70305  0.65437  1.0000
  C   C2752     1.0  0.85504  0.68418  0.63398  1.0000
  H   H2198     1.0  0.84630  0.61481  0.92281  1.0000
  H   H2199     1.0  0.81704  0.59827  0.57493  1.0000
  H   H2200     1.0  0.88223  0.66683  0.55405  1.0000
  C   C2753     1.0  0.85816  0.95080  0.59329  1.0000
  C   C2754     1.0  0.84336  0.56086  0.64791  1.0000
  C   C2755     1.0  0.95294  0.94713  0.72829  1.0000
  H   H2201     1.0  0.79732  0.64413  0.57825  1.0000
  H   H2202     1.0  0.89838  0.64408  0.64426  1.0000
  H   H2203     1.0  0.95037  0.63592  0.64096  1.0000
  H   H2204     1.0  0.97313  0.61768  0.59601  1.0000
  C   C2756     1.0  0.82903  0.96641  0.72334  1.0000
  H   H2205     1.0  0.89214  0.61352  0.55811  1.0000
  H   H2206     1.0  0.80540  0.63601  0.64634  1.0000
  H   H2207     1.0  0.78741  0.66946  0.68214  1.0000
  H   H2208     1.0  0.81245  0.71237  0.68759  1.0000
  H   H2209     1.0  0.85576  0.72164  0.65703  1.0000
  H   H2210     1.0  0.87384  0.68871  0.62066  1.0000
  H   H2211     1.0  0.80053  0.71025  0.58295  1.0000
  C   C2757     1.0  0.86738  0.55540  0.79755  1.0000
  C   C2758     1.0  0.92273  0.89023  0.66483  1.0000
  C   C2759     1.0  0.74865  0.97559  0.73647  1.0000
  C   C2760     1.0  0.89234  0.87283  0.62948  1.0000
  H   H2212     1.0  0.91613  0.50977  0.83078  1.0000
  C   C2761     1.0  0.99235  0.93706  0.59534  1.0000
  H   H2213     1.0  0.97300  0.53248  0.55214  1.0000
  H   H2214     1.0  0.96486  0.81999  0.59625  1.0000
  Fe  Fe189     1.0  0.97477  0.68772  0.69424  1.0000
  H   H2215     1.0  0.94932  0.90080  0.59433  1.0000
  H   H2216     1.0  0.83674  0.74875  0.47826  1.0000
  C   C2762     1.0  0.90093  0.53102  0.55320  1.0000
  H   H2217     1.0  0.92715  0.89244  0.68763  1.0000
  C   C2763     1.0  0.79824  0.73130  0.86722  1.0000
  C   C2764     1.0  0.80736  0.72888  0.83790  1.0000
  C   C2765     1.0  0.83472  0.71790  0.83152  1.0000
  C   C2766     1.0  0.85285  0.70896  0.85440  1.0000
  C   C2767     1.0  0.84344  0.71022  0.88401  1.0000
  C   C2768     1.0  0.81634  0.72250  0.89015  1.0000
  P   P92       1.0  0.86606  0.69851  0.91433  1.0000
  C   C2769     1.0  0.89931  0.68090  0.90303  1.0000
  C   C2770     1.0  0.87379  0.72956  0.93161  1.0000
  C   C2771     1.0  0.86008  0.73651  0.95826  1.0000
  H   H2218     1.0  0.78947  0.60876  0.51182  1.0000
  C   C2772     1.0  0.75933  0.51537  0.61804  1.0000
  C   C2773     1.0  0.90214  0.76968  0.93287  1.0000
  C   C2774     1.0  0.89425  0.74682  0.91858  1.0000
  C   C2775     1.0  0.90002  0.66179  0.88111  1.0000
  C   C2776     1.0  0.92599  0.65180  0.86904  1.0000
  C   C2777     1.0  0.95139  0.65962  0.87978  1.0000
  C   C2778     1.0  0.95086  0.67687  0.90319  1.0000
  C   C2779     1.0  0.92498  0.68703  0.91519  1.0000
  C   C2780     1.0  0.84856  0.67501  0.94081  1.0000
  C   C2781     1.0  0.82123  0.66645  0.93649  1.0000
  H   H2219     1.0  0.78641  0.64362  0.95524  1.0000
  H   H2220     1.0  0.96196  0.55587  0.59824  1.0000
  H   H2221     1.0  0.77479  0.63983  0.83260  1.0000
  H   H2222     1.0  0.97472  0.57031  0.92286  1.0000
  H   H2223     1.0  0.98471  0.83966  0.77504  1.0000
  H   H2224     1.0  0.79360  0.73644  0.82008  1.0000
  H   H2225     1.0  0.84233  0.71750  0.80872  1.0000
  H   H2226     1.0  0.87433  0.70202  0.84860  1.0000
  H   H2227     1.0  0.80917  0.72536  0.91272  1.0000
  H   H2228     1.0  0.95152  0.50784  0.67502  1.0000
  H   H2229     1.0  0.97446  0.85316  0.64065  1.0000
  H   H2230     1.0  0.93817  0.95088  0.68395  1.0000
  S   S375      1.0  0.81768  0.96069  0.89703  1.0000
  H   H2231     1.0  0.90487  0.74206  0.89782  1.0000
  H   H2232     1.0  0.88059  0.65597  0.87212  1.0000
  H   H2233     1.0  0.81800  0.90005  0.74987  1.0000
  H   H2234     1.0  0.85630  0.92804  0.66735  1.0000
  H   H2235     1.0  0.97051  0.68356  0.91106  1.0000
  H   H2236     1.0  0.92541  0.70061  0.93309  1.0000
  H   H2237     1.0  0.81020  0.67266  0.91647  1.0000
  C   C2782     1.0  0.89485  0.97382  0.63015  1.0000
  H   H2238     1.0  0.94075  0.61199  0.76760  1.0000
  H   H2239     1.0  0.77633  0.55783  0.88851  1.0000
  Fe  Fe190     1.0  0.76294  0.54266  0.75898  1.0000
  C   C2783     1.0  0.89265  0.54602  0.81145  1.0000
  H   H2240     1.0  0.84759  0.72132  0.56178  1.0000
  P   P93       1.0  0.92175  0.56864  0.81226  1.0000
  C   C2784     1.0  0.90908  0.60400  0.80258  1.0000
  C   C2785     1.0  0.91684  0.55290  0.59584  1.0000
  H   H2241     1.0  0.89522  0.73244  0.51941  1.0000
  H   H2242     1.0  0.93074  0.80403  0.56315  1.0000
  S   S376      1.0  0.98063  0.85749  0.53886  1.0000
  C   C2786     1.0  0.88592  0.61590  0.81840  1.0000
  C   C2787     1.0  0.87522  0.64300  0.81058  1.0000
  C   C2788     1.0  0.88820  0.65861  0.78746  1.0000
  C   C2789     1.0  0.91173  0.64709  0.77225  1.0000
  C   C2790     1.0  0.92222  0.61998  0.77969  1.0000
  C   C2791     1.0  0.94773  0.55776  0.78456  1.0000
  C   C2792     1.0  0.97700  0.55657  0.78941  1.0000
  S   S377      1.0  0.75122  0.82888  0.92736  1.0000
  S   S378      1.0  0.75165  0.74761  0.93286  1.0000
  C   C2793     1.0  0.95806  0.54659  0.73381  1.0000
  C   C2794     1.0  0.93847  0.55228  0.75670  1.0000
  H   H2243     1.0  0.86463  0.57627  0.78727  1.0000
  H   H2244     1.0  0.92740  0.69206  0.50845  1.0000
  H   H2245     1.0  0.97108  0.79395  0.86383  1.0000
  C   C2795     1.0  0.98831  0.75331  0.57141  1.0000
  H   H2246     1.0  0.87634  0.60413  0.83670  1.0000
  H   H2247     1.0  0.85712  0.65210  0.82245  1.0000
  H   H2248     1.0  0.88044  0.67980  0.78149  1.0000
  H   H2249     1.0  0.92232  0.65933  0.75487  1.0000
  C   C2796     1.0  0.98870  0.87335  0.84936  1.0000
  C   C2797     1.0  0.80389  0.57599  0.97059  1.0000
  H   H2250     1.0  0.98230  0.53798  0.64332  1.0000
  C   C2798     1.0  0.86229  0.66584  0.96685  1.0000
  C   C2799     1.0  0.95818  0.58822  0.85154  1.0000
  H   H2251     1.0  0.91602  0.55360  0.75232  1.0000
  C   C2800     1.0  0.89830  0.80573  0.49210  1.0000
  C   C2801     1.0  0.87182  0.81922  0.48684  1.0000
  C   C2802     1.0  0.84938  0.81553  0.50731  1.0000
  C   C2803     1.0  0.85358  0.79883  0.53342  1.0000
  C   C2804     1.0  0.88020  0.78521  0.53891  1.0000
  C   C2805     1.0  0.90240  0.78870  0.51791  1.0000
  P   P94       1.0  0.88614  0.76387  0.57277  1.0000
  C   C2806     1.0  0.90618  0.73176  0.56532  1.0000
  C   C2807     1.0  0.90704  0.78113  0.59767  1.0000
  C   C2808     1.0  0.90540  0.77378  0.62816  1.0000
  C   C2809     1.0  0.92497  0.78307  0.64693  1.0000
  C   C2810     1.0  0.94638  0.79971  0.63542  1.0000
  C   C2811     1.0  0.94774  0.80781  0.60534  1.0000
  C   C2812     1.0  0.92817  0.79860  0.58651  1.0000
  C   C2813     1.0  0.90764  0.72203  0.53686  1.0000
  C   C2814     1.0  0.92578  0.69904  0.53055  1.0000
  C   C2815     1.0  0.92181  0.71698  0.58774  1.0000
  C   C2816     1.0  0.85214  0.75554  0.58910  1.0000
  C   C2817     1.0  0.83811  0.73345  0.57904  1.0000
  C   C2818     1.0  0.81146  0.72714  0.59094  1.0000
  C   C2819     1.0  0.79864  0.74286  0.61294  1.0000
  C   C2820     1.0  0.81197  0.76556  0.62236  1.0000
  C   C2821     1.0  0.83850  0.77213  0.61023  1.0000
  C   C2822     1.0  0.97176  0.93317  0.74808  1.0000
  C   C2823     1.0  0.92839  0.55242  0.87256  1.0000
  H   H2252     1.0  0.83597  0.79675  0.54918  1.0000
  H   H2253     1.0  0.92293  0.77811  0.52150  1.0000
  H   H2254     1.0  0.89009  0.75954  0.63735  1.0000
  H   H2255     1.0  0.85050  0.55037  0.66844  1.0000
  C   C2824     1.0  0.88723  0.94969  0.58669  1.0000
  H   H2256     1.0  0.88426  0.86930  0.67630  1.0000
  P   P95       1.0  0.97506  0.91275  0.64995  1.0000
  H   H2257     1.0  0.84357  0.72412  0.96836  1.0000
  S   S379      1.0  0.98025  0.75017  0.90914  1.0000
  H   H2258     1.0  0.74763  0.75748  0.67024  1.0000
  C   C2825     1.0  0.77911  0.88538  0.96299  1.0000
  C   C2826     1.0  0.98707  0.54587  0.73864  1.0000
  P   P96       1.0  0.87216  0.51966  0.53268  1.0000
  C   C2827     1.0  0.97885  0.77559  0.85329  1.0000
  H   H2259     1.0  0.81035  0.94847  0.76402  1.0000
  H   H2260     1.0  0.97576  0.79451  0.80902  1.0000
  H   H2261     1.0  0.78634  0.78101  0.96794  1.0000
  C   C2828     1.0  0.84717  0.96430  0.61777  1.0000
  C   C2829     1.0  0.91075  0.88177  0.60654  1.0000
  C   C2830     1.0  0.79666  0.56519  0.52382  1.0000
  C   C2831     1.0  0.85103  0.67759  0.52196  1.0000
  H   H2262     1.0  0.91112  0.53904  0.87124  1.0000
  H   H2263     1.0  0.87227  0.94880  0.51414  1.0000
  H   H2264     1.0  0.89506  0.79391  0.97048  1.0000
  H   H2265     1.0  0.75976  0.66446  0.78536  1.0000
  C   C2832     1.0  0.96395  0.57023  0.90218  1.0000
  H   H2266     1.0  0.97032  0.93726  0.77126  1.0000
  C   C2833     1.0  0.97915  0.96950  0.63252  1.0000
  C   C2834     1.0  0.99272  0.75221  0.80874  1.0000
  C   C2835     1.0  0.75852  0.76911  0.49618  1.0000
  S   S380      1.0  0.78135  0.51533  0.93586  1.0000
  S   S381      1.0  0.98096  0.78181  0.51747  1.0000
  H   H2267     1.0  0.90300  0.92511  0.89653  1.0000
  C   C2836     1.0  0.89491  0.54475  0.57916  1.0000
  C   C2837     1.0  0.97454  0.92150  0.68818  1.0000
  C   C2838     1.0  0.93710  0.56960  0.84806  1.0000
  H   H2268     1.0  0.96443  0.60257  0.83332  1.0000
  H   H2269     1.0  0.84374  0.91173  0.95216  1.0000
  S   S382      1.0  0.98484  0.55955  0.49497  1.0000
  H   H2270     1.0  0.87323  0.54914  0.58653  1.0000
  C   C2839     1.0  0.98188  0.77594  0.82241  1.0000
  C   C2840     1.0  0.84870  0.50997  0.80717  1.0000
  C   C2841     1.0  0.82061  0.94449  0.74288  1.0000
  C   C2842     1.0  0.84267  0.96096  0.69615  1.0000
  H   H2271     1.0  0.96515  0.84500  0.69340  1.0000
  H   H2272     1.0  0.87663  0.57919  0.51869  1.0000
  C   C2843     1.0  0.85435  0.57511  0.52075  1.0000
  C   C2844     1.0  0.95354  0.80652  0.71562  1.0000
  C   C2845     1.0  0.87413  0.50012  0.82005  1.0000
  H   H2273     1.0  0.75678  0.96848  0.71547  1.0000
  H   H2274     1.0  0.98852  0.60226  0.88050  1.0000
  H   H2275     1.0  0.94753  0.95739  0.82892  1.0000
  H   H2276     1.0  0.84076  0.89012  0.70180  1.0000
  H   H2277     1.0  0.84406  0.94083  0.57967  1.0000
  C   C2846     1.0  0.97175  0.58828  0.87834  1.0000
  C   C2847     1.0  0.83813  0.91146  0.70797  1.0000
  H   H2278     1.0  0.93568  0.53888  0.91803  1.0000
  C   C2848     1.0  0.94499  0.54829  0.58616  1.0000
  C   C2849     1.0  0.81679  0.54323  0.52931  1.0000
  C   C2850     1.0  0.93110  0.62761  0.47946  1.0000
  H   H2279     1.0  0.76881  0.55676  0.83463  1.0000
  C   C2851     1.0  0.76651  0.51230  0.83623  1.0000
  H   H2280     1.0  0.92662  0.63945  0.85007  1.0000
  H   H2281     1.0  0.98510  0.56083  0.81041  1.0000
  H   H2282     1.0  0.76744  0.87246  0.47589  1.0000
  C   C2852     1.0  0.95118  0.53524  0.56004  1.0000
  C   C2853     1.0  0.76882  0.49584  0.59780  1.0000
  H   H2283     1.0  0.76229  0.94213  0.88106  1.0000
  Fe  Fe191     1.0  0.98704  0.82657  0.50434  1.0000
  H   H2284     1.0  0.80940  0.52261  0.53404  1.0000
  C   C2854     1.0  0.75869  0.49749  0.56893  1.0000
  H   H2285     1.0  0.87097  0.49796  0.59571  1.0000
  H   H2286     1.0  0.91868  0.78235  0.92322  1.0000
  H   H2287     1.0  0.97142  0.65325  0.86916  1.0000
  C   C2855     1.0  0.88819  0.58818  0.96562  1.0000
  H   H2288     1.0  0.77734  0.74066  0.87214  1.0000
  H   H2289     1.0  0.97273  0.73975  0.56491  1.0000
  S   S383      1.0  0.96187  0.79655  0.97396  1.0000
  C   C2856     1.0  0.82502  0.91706  0.73508  1.0000
  C   C2857     1.0  0.90553  0.96140  0.60493  1.0000
  C   C2858     1.0  0.95540  0.58179  0.48395  1.0000
  C   C2859     1.0  0.75619  0.75087  0.52140  1.0000
  C   C2860     1.0  0.88399  0.50873  0.49678  1.0000
  H   H2290     1.0  0.75576  0.70802  0.53735  1.0000
  C   C2861     1.0  0.86772  0.75971  0.97222  1.0000
  H   H2291     1.0  0.79269  0.97498  0.66885  1.0000
  C   C2862     1.0  0.86545  0.97597  0.63643  1.0000
  C   C2863     1.0  0.99159  0.52035  0.65642  1.0000
  C   C2864     1.0  0.90066  0.48380  0.49468  1.0000
  C   C2865     1.0  0.98262  0.94195  0.62426  1.0000
  S   S384      1.0  0.75025  0.76259  0.55749  1.0000
  C   C2866     1.0  0.99653  0.55078  0.76645  1.0000
  H   H2292     1.0  0.90576  0.96445  0.48106  1.0000
  C   C2867     1.0  0.99672  0.77511  0.55173  1.0000
  C   C2868     1.0  0.99193  0.91333  0.73811  1.0000
  H   H2293     1.0  0.99289  0.73295  0.61511  1.0000
  H   H2294     1.0  0.99434  0.71318  0.96519  1.0000
  C   C2869     1.0  0.82656  0.90098  0.96337  1.0000
  H   H2295     1.0  0.87520  0.96753  0.77476  1.0000
  H   H2296     1.0  0.91567  0.80815  0.47608  1.0000
  C   C2870     1.0  0.92033  0.94703  0.97434  1.0000
  C   C2871     1.0  0.85941  0.48471  0.58295  1.0000
  C   C2872     1.0  0.99341  0.90755  0.70832  1.0000
  H   H2297     1.0  0.99014  0.88161  0.87078  1.0000
  C   C2873     1.0  0.98647  0.48200  0.69297  1.0000
  H   H2298     1.0  0.76550  0.48184  0.55385  1.0000
  H   H2299     1.0  0.87683  0.47859  0.82840  1.0000
  C   C2874     1.0  0.90580  0.52400  0.97302  1.0000
  H   H2300     1.0  0.88337  0.67219  0.97027  1.0000
  H   H2301     1.0  0.91974  0.54092  0.97325  1.0000
  C   C2875     1.0  0.94198  0.97586  0.84062  1.0000
  C   C2876     1.0  0.74941  0.95727  0.76165  1.0000
  H   H2302     1.0  0.99610  0.91603  0.58844  1.0000
  C   C2877     1.0  0.99618  0.85867  0.64164  1.0000
  C   C2878     1.0  0.99687  0.72762  0.85704  1.0000
  H   H2303     1.0  0.82175  0.97621  0.81421  1.0000
  H   H2304     1.0  0.78390  0.47920  0.60460  1.0000
  Fe  Fe192     1.0  0.77494  0.48340  0.97491  1.0000
  C   C2879     1.0  0.87079  0.47933  0.97418  1.0000
  C   C2880     1.0  0.99739  0.95929  0.57482  1.0000
