data_image0
_chemical_formula_structural       HSCHC2SCSHS3CSC8PS2C7HFeCHC6H2PC6H2C3HCH2PC3SHC4H6CH2CHCHCH2CFeCH4CH2C9HC4HCH2CH2FeCHCH4FeC2HCH2C2HC4PC8HC4H3CSFe2H7CFeHCSHCH6CH2C3H2C2SH3CH2C3H5C2H4CHCH3C4SHSFeSCHCHSHSFeSC2FeHC2HSHC7HC4HSHCHCHC3HCH2CHC2H3SHCH3C3PCHC2H5PHC2HC2H2C3H2CH3C3HC5HC2HCHFeH3CHC2H2CHCHC2H2C2HC3HC4HC2PCHCHC2HC3H5C3HC2HC2HCSH2SC2SFeS2FeS2FeSFeS3FeS2FeS2FeSFeS4HSC6H4C6H4CSH3C3H2C7HCHC6H4C6H2CHC7PC4HC11H5PH2C2H13C3PC13HCHC2H4FeH3CH6CHCH2PC4HC11H11C4HCHCH4FeHC5HC2HC3H4CFeH3CHCHCH2C3HFeHC3HCH5CH2CHC3HC3H2C2HCH2CH2C2HC2HC3H2C3PH4CHC3H7C3H2C2HC8H4CH2C3HCHCH5CH2CH4C2H3CHC3HC6HCHC2HC4HC2HFeS2FeS2FeSFeS3FeS2FeS2FeSFeS3C2HC2HC2HCHC2H3C3HC4HC3H2CH3C6H5C2HC5H2CHC4PC14HC3H19C2HCHC2H2C3H3C2H5CHCHCHC8HC4HCHC3H2CPHC2H3C2HC10H2CHC3H3C2H2C3HPCHCHCH2C2H3CH3C3PH4C3H2C2H5CHC2H2C2HSC3HC2HCHCFeS2FeS2FeSFeS3FeS2FeS2FeSFeS3FeSFeHS2FeC2FeH2SCFeSCHS2FeSFeSHSHC9H4C6H4C6H2PHC5H3C7H4CHC4H2C3HC4HC3HSH2C2H4C2HC2H2CH2CFePH2C6PC18H20C3SHC3PC8H2C4SCHCSH10CH3SC2HC2H3C2H2C2HCHCH2CH2C2SCH3C2H2CHCH2C2HC3HC4H2C2H5SFeC3H2SCHCH3CH2C2H2SH3C2HC2PCH3C5S2FeSHC2SFeHFeSHSC3SFeSCHCSFeSFeCFeS2FeSFeSFeS3FeS2FeS2FeSFeS2C6H4C11HC7H4C2HCHC6H4C8H3CHCSH3C6PC18H20C6PC5HC9H5C4H2CH5C7H8SCHCHCH2CHSCH2CHC2H2C2H2C2HCHC2PCHSC3HCPH2FeCHCHPCHCH3C3HC2HC2HCHCH2C2HC2HC2HC3HCH4C2H2CH4C3HC2H2CHC2HC2H2C2H2CHCH2CH2CHCHSPC4HSCSCHC3H3CH2CH2C3SC4HFeCHCHFeH7C2H2CH2CH2CH2C4SC2PCH2C3HC3H2C2SHFeSHFeS2FeSFeS3FeS2FeSHFeSFeS3C6H4C4H2CHCHCHCH2CH2SCHCH2CH2CHPH5C2HC2H2C2HCH2CH4C2H3C2HC2H2C2HPH4C2HC4HCHCHC4H2C2H2CHCHC3HC3HC6HCH2CH2C4H2C6H2CHC8H3C2HC2HC4HCH2CH2CH2C2HC2HCHCH2CHC2H2PH2PHCPC2HC3HCHC4H2CHCH2C4SHCHCHC2HPCHC2HC2HCH3C2H3PH2C2HC4H2C2H3C6HC2HCHCSH2C5HCHCHC2HC2HCHCPHCH2C2HCHCH3C2HCHCH2CH3CSH2SCSFeS2FeS2FeSFeS3FeS2FeS2FeSFeS3HC2PC6H4C6H4CH2CH3C6H5C6H4C6H3CH2CH2CFeC2HCH3CHCHCH2CH6C7PC3HC14H8CH14PC8HC3H7CH2C2HCPHC2H2C2FeC5HCHSFeHC4HC3HCH2C3HCH2C2HCH2CHCHC2HC11HCHC2H2CH2C4HC3H3CHCHCHC2H2C3H2C2PHC3HC2HC2HFeC2HCHS2CHC3HCSH2C4H2PCFeS2FeS2FeCFeS3FeSFeS2FeCFeHS2HC2H3CHCHC4HSC6H4CH3CH2C3HCHC3H2CHC2HC3HCHCH7SHC2HC4HSH3C10H2C2HPCH9C2HC5HCHCH7CH2C8HC4HC4HSHC2H4CH4PC5H2CH2C2H2CHCHC3H2PCFeC2HSC2HC3HFeCHC2HCHSC2SHCHCH3SH3PC2H3CHCHC2HCHC2HC3HCHC2H2C2H3C3PC2H3CHC4H3CHC2PC2FeHC14H2CH2C3H8CH3CHC5H3C3H2C3HSHCH4CH2C2SC2H2C5HC4H2CHC2H2CH2C4HC3HC3HCHC4H2C3H2CHC
_chemical_formula_sum              "H1152 S192 C1440 P48 Fe96"
_cell_length_a       43.9277
_cell_length_b       43.8637
_cell_length_c       54.1306
_cell_angle_alpha    90.0151
_cell_angle_beta     89.473
_cell_angle_gamma    90.8618

_space_group_name_H-M_alt    "P 1"
_space_group_IT_number       1

loop_
  _space_group_symop_operation_xyz
  'x, y, z'

loop_
  _atom_site_type_symbol
  _atom_site_label
  _atom_site_symmetry_multiplicity
  _atom_site_fract_x
  _atom_site_fract_y
  _atom_site_fract_z
  _atom_site_occupancy
  H   H1        1.0  0.05622  0.37748  0.07977  1.0000
  S   S1        1.0  0.43726  0.45530  0.25649  1.0000
  C   C1        1.0  0.03921  0.48458  0.19495  1.0000
  H   H2        1.0  0.47878  0.40655  0.27835  1.0000
  C   C2        1.0  0.02205  0.99609  0.07660  1.0000
  C   C3        1.0  0.00468  0.46580  0.32101  1.0000
  S   S2        1.0  0.01422  0.42493  0.25193  1.0000
  C   C4        1.0  0.02992  0.37464  0.17488  1.0000
  S   S3        1.0  0.43130  0.05071  0.26384  1.0000
  H   H3        1.0  0.33477  0.08140  0.30375  1.0000
  S   S4        1.0  0.30090  0.40410  0.27714  1.0000
  S   S5        1.0  0.15302  0.43821  0.28881  1.0000
  S   S6        1.0  0.22025  0.37543  0.29760  1.0000
  C   C5        1.0  0.07125  0.38137  0.09528  1.0000
  S   S7        1.0  0.28927  0.03285  0.29297  1.0000
  C   C6        1.0  0.09186  0.18186  0.27296  1.0000
  C   C7        1.0  0.39823  0.36338  0.06960  1.0000
  C   C8        1.0  0.39161  0.04535  0.27129  1.0000
  C   C9        1.0  0.37681  0.06739  0.28592  1.0000
  C   C10       1.0  0.34561  0.06425  0.29248  1.0000
  C   C11       1.0  0.32859  0.03885  0.28460  1.0000
  C   C12       1.0  0.34339  0.01680  0.27001  1.0000
  C   C13       1.0  0.37456  0.01999  0.26337  1.0000
  P   P1        1.0  0.06215  0.39994  0.16917  1.0000
  S   S8        1.0  0.22023  0.09237  0.30076  1.0000
  S   S9        1.0  0.23405  0.44508  0.31617  1.0000
  C   C14       1.0  0.01934  0.17304  0.26586  1.0000
  C   C15       1.0  0.05268  0.42949  0.26246  1.0000
  C   C16       1.0  0.06721  0.40437  0.27323  1.0000
  C   C17       1.0  0.09753  0.40661  0.28176  1.0000
  C   C18       1.0  0.11407  0.43405  0.27946  1.0000
  C   C19       1.0  0.09949  0.45920  0.26879  1.0000
  C   C20       1.0  0.06904  0.45706  0.26053  1.0000
  H   H4        1.0  0.05494  0.38289  0.27486  1.0000
  Fe  Fe1       1.0  0.18386  0.06706  0.32273  1.0000
  C   C21       1.0  0.45944  0.04602  0.12052  1.0000
  H   H5        1.0  0.03264  0.18293  0.22803  1.0000
  C   C22       1.0  0.06625  0.02747  0.25245  1.0000
  C   C23       1.0  0.05585  0.03364  0.27641  1.0000
  C   C24       1.0  0.07654  0.04251  0.29508  1.0000
  C   C25       1.0  0.10806  0.04537  0.29022  1.0000
  C   C26       1.0  0.11851  0.03926  0.26622  1.0000
  C   C27       1.0  0.09779  0.03024  0.24757  1.0000
  H   H6        1.0  0.03188  0.03106  0.28062  1.0000
  H   H7        1.0  0.14258  0.04138  0.26202  1.0000
  P   P2        1.0  0.45775  0.29722  0.02453  1.0000
  C   C28       1.0  0.39919  0.44103  0.26174  1.0000
  C   C29       1.0  0.38286  0.42482  0.24382  1.0000
  C   C30       1.0  0.35291  0.41405  0.24891  1.0000
  C   C31       1.0  0.33866  0.41915  0.27195  1.0000
  C   C32       1.0  0.35500  0.43533  0.28993  1.0000
  C   C33       1.0  0.38498  0.44615  0.28483  1.0000
  H   H8        1.0  0.39320  0.42079  0.22595  1.0000
  H   H9        1.0  0.34046  0.40183  0.23482  1.0000
  C   C34       1.0  0.42762  0.25036  0.05068  1.0000
  C   C35       1.0  0.46634  0.99887  0.14271  1.0000
  C   C36       1.0  0.14170  0.16860  0.28829  1.0000
  H   H10       1.0  0.38538  0.00279  0.25214  1.0000
  C   C37       1.0  0.43405  0.32294  0.04203  1.0000
  H   H11       1.0  0.03621  0.07283  0.17828  1.0000
  H   H12       1.0  0.05830  0.47674  0.25265  1.0000
  P   P3        1.0  0.04320  0.14000  0.26831  1.0000
  C   C38       1.0  0.04148  0.11939  0.23935  1.0000
  C   C39       1.0  0.08196  0.15138  0.27545  1.0000
  C   C40       1.0  0.41548  0.23056  0.24945  1.0000
  S   S10       1.0  0.47324  0.46256  0.18520  1.0000
  H   H13       1.0  0.44557  0.06546  0.11611  1.0000
  C   C41       1.0  0.00197  0.18292  0.28615  1.0000
  C   C42       1.0  0.01421  0.11831  0.22590  1.0000
  C   C43       1.0  0.06686  0.10368  0.23031  1.0000
  C   C44       1.0  0.06501  0.08733  0.20817  1.0000
  H   H14       1.0  0.42656  0.29523  0.20115  1.0000
  H   H15       1.0  0.12535  0.39465  0.15063  1.0000
  H   H16       1.0  0.05956  0.99249  0.16691  1.0000
  H   H17       1.0  0.34455  0.43953  0.30774  1.0000
  H   H18       1.0  0.39723  0.45863  0.29891  1.0000
  H   H19       1.0  0.01251  0.01428  0.08767  1.0000
  C   C45       1.0  0.00038  0.21531  0.24166  1.0000
  H   H20       1.0  0.40758  0.26602  0.27600  1.0000
  H   H21       1.0  0.01297  0.42045  0.30773  1.0000
  C   C46       1.0  0.46829  0.25467  0.11576  1.0000
  H   H22       1.0  0.07675  0.19915  0.26623  1.0000
  C   C47       1.0  0.00605  0.09314  0.28735  1.0000
  H   H23       1.0  0.06805  0.04711  0.31348  1.0000
  C   C48       1.0  0.45343  0.25892  0.03661  1.0000
  H   H24       1.0  0.08793  0.10327  0.24045  1.0000
  H   H25       1.0  0.08436  0.07441  0.20175  1.0000
  C   C49       1.0  0.03066  0.48479  0.15090  1.0000
  Fe  Fe2       1.0  0.47483  0.45248  0.22625  1.0000
  C   C50       1.0  0.07826  0.39213  0.13899  1.0000
  H   H26       1.0  0.14655  0.38393  0.10936  1.0000
  H   H27       1.0  0.30973  0.29130  0.28176  1.0000
  H   H28       1.0  0.05505  0.44277  0.21028  1.0000
  H   H29       1.0  0.10630  0.02539  0.22921  1.0000
  C   C51       1.0  0.99548  0.07326  0.30581  1.0000
  H   H30       1.0  0.11189  0.48056  0.26688  1.0000
  H   H31       1.0  0.38959  0.08712  0.29221  1.0000
  C   C52       1.0  0.44757  0.19953  0.05573  1.0000
  C   C53       1.0  0.44832  0.02372  0.13679  1.0000
  C   C54       1.0  0.09021  0.39409  0.19293  1.0000
  C   C55       1.0  0.09012  0.36708  0.20688  1.0000
  C   C56       1.0  0.11143  0.36318  0.22565  1.0000
  C   C57       1.0  0.13290  0.38615  0.23063  1.0000
  C   C58       1.0  0.13316  0.41303  0.21684  1.0000
  C   C59       1.0  0.11209  0.41694  0.19793  1.0000
  C   C60       1.0  0.46736  0.31895  0.27213  1.0000
  H   H32       1.0  0.42586  0.02577  0.14504  1.0000
  C   C61       1.0  0.01882  0.18974  0.24372  1.0000
  C   C62       1.0  0.03783  0.08635  0.19498  1.0000
  C   C63       1.0  0.12210  0.38495  0.11197  1.0000
  C   C64       1.0  0.04976  0.43914  0.17067  1.0000
  H   H33       1.0  0.01018  0.40325  0.20303  1.0000
  C   C65       1.0  0.03953  0.11779  0.31675  1.0000
  H   H34       1.0  0.44582  0.17680  0.06354  1.0000
  H   H35       1.0  0.44295  0.28542  0.13890  1.0000
  C   C66       1.0  0.46260  0.27087  0.13752  1.0000
  H   H36       1.0  0.99711  0.09067  0.26898  1.0000
  H   H37       1.0  0.10831  0.38690  0.28962  1.0000
  Fe  Fe3       1.0  0.19217  0.41533  0.31016  1.0000
  C   C67       1.0  0.32870  0.30722  0.28355  1.0000
  H   H38       1.0  0.47741  0.28078  0.17436  1.0000
  C   C68       1.0  0.43501  0.32287  0.06799  1.0000
  H   H39       1.0  0.11095  0.34260  0.23671  1.0000
  H   H40       1.0  0.14888  0.38353  0.24563  1.0000
  H   H41       1.0  0.14935  0.43108  0.22127  1.0000
  H   H42       1.0  0.11253  0.43804  0.18754  1.0000
  Fe  Fe4       1.0  0.47043  0.02833  0.24159  1.0000
  C   C69       1.0  0.41734  0.34317  0.08168  1.0000
  C   C70       1.0  0.04883  0.45439  0.19349  1.0000
  H   H43       1.0  0.12921  0.21391  0.27759  1.0000
  C   C71       1.0  0.04047  0.45462  0.14935  1.0000
  H   H44       1.0  0.38352  0.39569  0.16444  1.0000
  H   H45       1.0  0.25337  0.28361  0.31919  1.0000
  C   C72       1.0  0.01247  0.10193  0.20378  1.0000
  C   C73       1.0  0.13205  0.13826  0.29068  1.0000
  H   H46       1.0  0.09525  0.10614  0.28651  1.0000
  C   C74       1.0  0.10235  0.12970  0.28433  1.0000
  C   C75       1.0  0.37669  0.34956  0.28734  1.0000
  C   C76       1.0  0.37880  0.32563  0.27017  1.0000
  C   C77       1.0  0.35432  0.30472  0.26818  1.0000
  P   P4        1.0  0.41075  0.32379  0.24883  1.0000
  C   C78       1.0  0.41634  0.28465  0.23951  1.0000
  C   C79       1.0  0.40215  0.34639  0.22195  1.0000
  C   C80       1.0  0.42567  0.36051  0.20817  1.0000
  C   C81       1.0  0.41886  0.37825  0.18754  1.0000
  C   C82       1.0  0.38869  0.38156  0.18022  1.0000
  C   C83       1.0  0.36523  0.36707  0.19352  1.0000
  C   C84       1.0  0.37189  0.34955  0.21431  1.0000
  C   C85       1.0  0.41286  0.26097  0.25684  1.0000
  H   H47       1.0  0.05025  0.02695  0.05510  1.0000
  C   C86       1.0  0.42192  0.22357  0.22478  1.0000
  C   C87       1.0  0.42624  0.24699  0.20755  1.0000
  C   C88       1.0  0.42350  0.27745  0.21485  1.0000
  C   C89       1.0  0.05903  0.38752  0.11866  1.0000
  H   H48       1.0  0.43698  0.38982  0.17741  1.0000
  H   H49       1.0  0.48137  0.14570  0.23609  1.0000
  H   H50       1.0  0.99993  0.22795  0.22446  1.0000
  C   C90       1.0  0.47530  0.23692  0.03110  1.0000
  S   S11       1.0  0.04110  0.01572  0.22816  1.0000
  Fe  Fe5       1.0  0.98867  0.01481  0.22467  1.0000
  Fe  Fe6       1.0  0.26218  0.40423  0.30650  1.0000
  H   H51       1.0  0.99787  0.30764  0.15510  1.0000
  H   H52       1.0  0.35458  0.28688  0.25437  1.0000
  H   H53       1.0  0.07343  0.34919  0.20358  1.0000
  H   H54       1.0  0.43134  0.24143  0.18846  1.0000
  H   H55       1.0  0.45300  0.25644  0.10031  1.0000
  H   H56       1.0  0.34176  0.37000  0.18812  1.0000
  H   H57       1.0  0.35327  0.33908  0.22460  1.0000
  C   C91       1.0  0.10278  0.38004  0.09193  1.0000
  Fe  Fe7       1.0  0.25374  0.05885  0.31643  1.0000
  H   H58       1.0  0.42364  0.19995  0.21901  1.0000
  C   C92       1.0  0.12163  0.19038  0.27939  1.0000
  S   S12       1.0  0.47536  0.02626  0.19994  1.0000
  H   H59       1.0  0.41975  0.25511  0.99489  1.0000
  C   C93       1.0  0.42482  0.22081  0.06030  1.0000
  H   H60       1.0  0.44988  0.30747  0.07762  1.0000
  H   H61       1.0  0.41874  0.34347  0.10168  1.0000
  H   H62       1.0  0.34904  0.37106  0.31525  1.0000
  H   H63       1.0  0.41211  0.21234  0.26278  1.0000
  H   H64       1.0  0.04403  0.33944  0.14916  1.0000
  H   H65       1.0  0.38463  0.37920  0.08023  1.0000
  C   C94       1.0  0.10994  0.39104  0.13541  1.0000
  H   H66       1.0  0.99123  0.10071  0.19374  1.0000
  H   H67       1.0  0.39424  0.36699  0.28857  1.0000
  C   C95       1.0  0.32702  0.33088  0.30074  1.0000
  C   C96       1.0  0.00771  0.38260  0.19236  1.0000
  C   C97       1.0  0.02853  0.11524  0.29252  1.0000
  H   H68       1.0  0.44927  0.35816  0.21339  1.0000
  H   H69       1.0  0.41340  0.34373  0.01008  1.0000
  C   C98       1.0  0.39683  0.36334  0.04380  1.0000
  C   C99       1.0  0.47261  0.20750  0.04092  1.0000
  S   S13       1.0  0.13275  0.05759  0.31469  1.0000
  H   H70       1.0  0.16474  0.17517  0.29339  1.0000
  H   H71       1.0  0.03450  0.38844  0.12092  1.0000
  H   H72       1.0  0.11222  0.37516  0.07381  1.0000
  C   C100      1.0  0.41471  0.34324  0.03003  1.0000
  H   H73       1.0  0.14757  0.12129  0.29757  1.0000
  H   H74       1.0  0.04041  0.44357  0.13155  1.0000
  C   C101      1.0  0.04346  0.00337  0.05817  1.0000
  C   C102      1.0  0.44490  0.33859  0.26333  1.0000
  C   C103      1.0  0.35101  0.35197  0.30265  1.0000
  H   H75       1.0  0.47847  0.19810  0.25323  1.0000
  H   H76       1.0  0.30671  0.33349  0.31205  1.0000
  H   H77       1.0  0.05669  0.13479  0.32135  1.0000
  H   H78       1.0  0.46467  0.29450  0.27060  1.0000
  H   H79       1.0  0.00256  0.17083  0.30355  1.0000
  C   C104      1.0  0.02677  0.34684  0.16212  1.0000
  C   C105      1.0  0.44937  0.37022  0.26569  1.0000
  H   H80       1.0  0.40956  0.26634  0.05419  1.0000
  H   H81       1.0  0.43260  0.38588  0.25886  1.0000
  H   H82       1.0  0.26545  0.22911  0.31142  1.0000
  H   H83       1.0  0.40508  0.21439  0.07138  1.0000
  C   C106      1.0  0.02074  0.43861  0.31984  1.0000
  H   H84       1.0  0.38201  0.37904  0.03445  1.0000
  C   C107      1.0  0.00083  0.32840  0.16574  1.0000
  H   H85       1.0  0.99400  0.12949  0.23272  1.0000
  H   H86       1.0  0.33062  0.99703  0.26376  1.0000
  H   H87       1.0  0.03758  0.99091  0.12514  1.0000
  C   C108      1.0  0.47564  0.38203  0.27673  1.0000
  C   C109      1.0  0.48233  0.26838  0.15753  1.0000
  C   C110      1.0  0.44737  0.29646  0.99228  1.0000
  C   C111      1.0  0.24032  0.26581  0.32841  1.0000
  S   S14       1.0  0.26422  0.38788  0.34610  1.0000
  H   H88       1.0  0.27443  0.48064  0.53845  1.0000
  S   S15       1.0  0.19076  0.40003  0.35000  1.0000
  Fe  Fe8       1.0  0.23362  0.42778  0.35553  1.0000
  S   S16       1.0  0.24487  0.46262  0.38671  1.0000
  C   C112      1.0  0.39390  0.13715  0.43787  1.0000
  H   H89       1.0  0.38381  0.05120  0.42249  1.0000
  C   C113      1.0  0.24860  0.13143  0.40889  1.0000
  H   H90       1.0  0.32422  0.01370  0.42841  1.0000
  S   S17       1.0  0.19110  0.09670  0.35653  1.0000
  H   H91       1.0  0.05940  0.41402  0.33190  1.0000
  S   S18       1.0  0.26416  0.08747  0.34993  1.0000
  Fe  Fe9       1.0  0.22528  0.06160  0.36881  1.0000
  S   S19       1.0  0.22198  0.04528  0.40980  1.0000
  C   C114      1.0  0.23049  0.48329  0.41297  1.0000
  C   C115      1.0  0.23397  0.35830  0.40779  1.0000
  Fe  Fe10      1.0  0.22907  0.12030  0.33526  1.0000
  H   H92       1.0  0.15813  0.99896  0.53041  1.0000
  C   C116      1.0  0.23066  0.01316  0.42914  1.0000
  C   C117      1.0  0.20549  0.37104  0.41207  1.0000
  H   H93       1.0  0.28912  0.46984  0.60256  1.0000
  S   S20       1.0  0.24068  0.17191  0.32953  1.0000
  H   H94       1.0  0.28154  0.36004  0.41584  1.0000
  C   C118      1.0  0.36155  0.09480  0.42484  1.0000
  C   C119      1.0  0.26745  0.45787  0.47869  1.0000
  C   C120      1.0  0.28785  0.15347  0.38253  1.0000
  C   C121      1.0  0.05774  0.45882  0.34895  1.0000
  C   C122      1.0  0.26740  0.47788  0.60938  1.0000
  C   C123      1.0  0.12247  0.36971  0.35032  1.0000
  C   C124      1.0  0.12021  0.35461  0.37298  1.0000
  H   H95       1.0  0.33175  0.00529  0.33018  1.0000
  C   C125      1.0  0.24182  0.47624  0.59428  1.0000
  C   C126      1.0  0.31503  0.02614  0.44395  1.0000
  C   C127      1.0  0.22196  0.01374  0.45429  1.0000
  C   C128      1.0  0.41505  0.08678  0.43343  1.0000
  H   H96       1.0  0.24209  0.17016  0.38507  1.0000
  S   S21       1.0  0.20744  0.31269  0.35179  1.0000
  H   H97       1.0  0.11020  0.04474  0.36412  1.0000
  C   C129      1.0  0.29518  0.42067  0.50214  1.0000
  H   H98       1.0  0.28247  0.06881  0.50091  1.0000
  C   C130      1.0  0.09090  0.00935  0.38742  1.0000
  H   H99       1.0  0.22521  0.42563  0.45353  1.0000
  C   C131      1.0  0.25703  0.39436  0.43657  1.0000
  C   C132      1.0  0.32524  0.46190  0.43806  1.0000
  C   C133      1.0  0.02896  0.09784  0.33520  1.0000
  H   H100      1.0  0.15943  0.03366  0.49408  1.0000
  C   C134      1.0  0.30448  0.35150  0.46721  1.0000
  H   H101      1.0  0.03823  0.09937  0.35364  1.0000
  H   H102      1.0  0.21058  0.03360  0.46147  1.0000
  C   C135      1.0  0.21682  0.27373  0.34479  1.0000
  H   H103      1.0  0.29460  0.16986  0.36843  1.0000
  C   C136      1.0  0.29169  0.05695  0.48503  1.0000
  C   C137      1.0  0.31618  0.37873  0.45702  1.0000
  H   H104      1.0  0.13153  0.35799  0.33427  1.0000
  H   H105      1.0  0.37093  0.07456  0.37634  1.0000
  H   H106      1.0  0.18054  0.40531  0.43183  1.0000
  S   S22       1.0  0.21643  0.03129  0.33604  1.0000
  H   H107      1.0  0.16296  0.03674  0.37818  1.0000
  C   C138      1.0  0.22818  0.40674  0.44103  1.0000
  H   H108      1.0  0.33079  0.13076  0.38219  1.0000
  H   H109      1.0  0.39109  0.35968  0.45358  1.0000
  H   H110      1.0  0.28657  0.00201  0.35777  1.0000
  C   C139      1.0  0.20028  0.24986  0.35652  1.0000
  C   C140      1.0  0.26892  0.10934  0.41684  1.0000
  C   C141      1.0  0.36691  0.35739  0.45741  1.0000
  P   P5        1.0  0.29095  0.40992  0.45106  1.0000
  C   C142      1.0  0.30948  0.43589  0.42948  1.0000
  H   H111      1.0  0.28384  0.03398  0.39529  1.0000
  C   C143      1.0  0.10331  0.41599  0.36927  1.0000
  C   C144      1.0  0.27639  0.46625  0.52222  1.0000
  H   H112      1.0  0.32641  0.46692  0.45760  1.0000
  H   H113      1.0  0.99930  0.05957  0.34381  1.0000
  H   H114      1.0  0.30780  0.39977  0.50342  1.0000
  H   H115      1.0  0.23625  0.33978  0.39466  1.0000
  H   H116      1.0  0.11748  0.41212  0.33111  1.0000
  P   P6        1.0  0.09260  0.45546  0.36625  1.0000
  H   H117      1.0  0.29695  0.41039  0.39666  1.0000
  C   C145      1.0  0.30908  0.42993  0.40398  1.0000
  C   C146      1.0  0.10070  0.40055  0.39197  1.0000
  H   H118      1.0  0.29940  0.09794  0.46405  1.0000
  C   C147      1.0  0.11470  0.02738  0.37783  1.0000
  C   C148      1.0  0.29900  0.10928  0.40784  1.0000
  H   H119      1.0  0.31460  0.30620  0.47977  1.0000
  H   H120      1.0  0.22516  0.13071  0.41531  1.0000
  C   C149      1.0  0.32330  0.45007  0.38735  1.0000
  C   C150      1.0  0.35503  0.33019  0.46721  1.0000
  C   C151      1.0  0.20257  0.39516  0.42875  1.0000
  H   H121      1.0  0.39672  0.16108  0.44239  1.0000
  H   H122      1.0  0.09244  0.41198  0.40834  1.0000
  C   C152      1.0  0.34760  0.38167  0.45241  1.0000
  H   H123      1.0  0.25860  0.46589  0.46141  1.0000
  H   H124      1.0  0.28033  0.34898  0.47118  1.0000
  H   H125      1.0  0.18583  0.36240  0.40216  1.0000
  C   C153      1.0  0.25960  0.36986  0.41993  1.0000
  C   C154      1.0  0.33943  0.48201  0.42136  1.0000
  C   C155      1.0  0.35453  0.03954  0.35211  1.0000
  H   H126      1.0  0.34621  0.14103  0.43066  1.0000
  C   C156      1.0  0.30591  0.00988  0.46504  1.0000
  C   C157      1.0  0.26395  0.47569  0.49991  1.0000
  C   C158      1.0  0.11448  0.40037  0.34856  1.0000
  C   C159      1.0  0.04721  0.43510  0.33365  1.0000
  C   C160      1.0  0.10930  0.37002  0.39379  1.0000
  H   H127      1.0  0.15006  0.01362  0.45242  1.0000
  C   C161      1.0  0.15054  0.00016  0.40300  1.0000
  C   C162      1.0  0.33091  0.01893  0.34688  1.0000
  H   H128      1.0  0.35725  0.40256  0.44486  1.0000
  C   C163      1.0  0.00710  0.07543  0.32968  1.0000
  H   H129      1.0  0.43427  0.07165  0.43445  1.0000
  Fe  Fe11      1.0  0.22100  0.36109  0.33761  1.0000
  H   H130      1.0  0.19382  0.20098  0.36113  1.0000
  H   H131      1.0  0.10766  0.35830  0.41138  1.0000
  H   H132      1.0  0.12736  0.33112  0.37438  1.0000
  C   C164      1.0  0.41879  0.11772  0.43898  1.0000
  H   H133      1.0  0.30155  0.43145  0.54070  1.0000
  C   C165      1.0  0.38648  0.07529  0.42656  1.0000
  C   C166      1.0  0.20692  0.21879  0.35196  1.0000
  H   H134      1.0  0.32173  0.44588  0.36766  1.0000
  H   H135      1.0  0.36999  0.31136  0.47096  1.0000
  C   C167      1.0  0.30821  0.13129  0.39035  1.0000
  H   H136      1.0  0.44094  0.12661  0.44426  1.0000
  C   C168      1.0  0.36530  0.12572  0.43100  1.0000
  H   H137      1.0  0.18208  0.25546  0.36924  1.0000
  C   C169      1.0  0.32383  0.32728  0.47217  1.0000
  C   C170      1.0  0.29178  0.43862  0.52339  1.0000
  H   H138      1.0  0.24355  0.46650  0.57595  1.0000
  H   H139      1.0  0.26066  0.09175  0.42929  1.0000
  C   C171      1.0  0.25808  0.15357  0.39182  1.0000
  C   C172      1.0  0.30401  0.03509  0.38370  1.0000
  H   H140      1.0  0.22066  0.98993  0.48949  1.0000
  C   C173      1.0  0.28314  0.43030  0.47951  1.0000
  C   C174      1.0  0.32802  0.05519  0.38953  1.0000
  C   C175      1.0  0.23054  0.21087  0.33570  1.0000
  H   H141      1.0  0.37361  0.04181  0.33934  1.0000
  C   C176      1.0  0.30105  0.07333  0.46405  1.0000
  C   C177      1.0  0.14447  0.02284  0.38569  1.0000
  C   C178      1.0  0.31210  0.05799  0.44311  1.0000
  C   C179      1.0  0.29399  0.02522  0.48547  1.0000
  H   H142      1.0  0.18646  0.46134  0.41459  1.0000
  C   C180      1.0  0.04132  0.48605  0.35016  1.0000
  C   C181      1.0  0.35296  0.05794  0.37319  1.0000
  P   P7        1.0  0.32480  0.07945  0.41634  1.0000
  C   C182      1.0  0.30551  0.01694  0.36252  1.0000
  H   H143      1.0  0.06789  0.01279  0.38107  1.0000
  C   C183      1.0  0.20141  0.47798  0.42310  1.0000
  H   H144      1.0  0.28627  0.01238  0.50153  1.0000
  C   C184      1.0  0.14899  0.99806  0.46791  1.0000
  C   C185      1.0  0.15431  0.00962  0.49162  1.0000
  H   H145      1.0  0.17382  0.99675  0.40865  1.0000
  C   C186      1.0  0.05894  0.46592  0.40917  1.0000
  C   C187      1.0  0.33832  0.47618  0.39601  1.0000
  C   C188      1.0  0.22768  0.98892  0.47031  1.0000
  H   H146      1.0  0.15844  0.45701  0.37383  1.0000
  H   H147      1.0  0.20042  0.48516  0.35322  1.0000
  H   H148      1.0  0.03257  0.47330  0.44236  1.0000
  H   H149      1.0  0.04149  0.45165  0.40083  1.0000
  H   H150      1.0  0.00966  0.00534  0.59940  1.0000
  C   C189      1.0  0.08646  0.47195  0.39653  1.0000
  C   C190      1.0  0.15344  0.47181  0.35843  1.0000
  C   C191      1.0  0.12339  0.47527  0.35038  1.0000
  H   H151      1.0  0.33633  0.98855  0.63096  1.0000
  C   C192      1.0  0.05383  0.47808  0.43272  1.0000
  C   C193      1.0  0.15366  0.99014  0.51204  1.0000
  H   H152      1.0  0.19458  0.48763  0.59053  1.0000
  C   C194      1.0  0.17734  0.48765  0.34675  1.0000
  C   C195      1.0  0.24715  0.23473  0.32404  1.0000
  H   H153      1.0  0.30826  0.09127  0.80287  1.0000
  C   C196      1.0  0.15170  0.31081  0.71911  1.0000
  S   S23       1.0  0.43742  0.02912  0.77019  1.0000
  H   H154      1.0  0.01341  0.38775  0.89026  1.0000
  H   H155      1.0  0.22422  0.47563  0.71259  1.0000
  S   S24       1.0  0.46009  0.00464  0.69834  1.0000
  C   C197      1.0  0.13452  0.32344  0.73849  1.0000
  C   C198      1.0  0.99608  0.23841  0.96125  1.0000
  S   S25       1.0  0.03180  0.44186  0.76734  1.0000
  Fe  Fe12      1.0  0.41926  0.20856  0.81086  1.0000
  S   S26       1.0  0.39485  0.19626  0.84599  1.0000
  S   S27       1.0  0.43652  0.17507  0.78117  1.0000
  Fe  Fe13      1.0  0.41429  0.27731  0.82167  1.0000
  S   S28       1.0  0.38893  0.26869  0.85777  1.0000
  S   S29       1.0  0.42910  0.32688  0.81281  1.0000
  Fe  Fe14      1.0  0.42358  0.23227  0.86513  1.0000
  S   S30       1.0  0.43906  0.22180  0.90529  1.0000
  Fe  Fe15      1.0  0.36179  0.23344  0.83660  1.0000
  S   S31       1.0  0.31147  0.21959  0.84353  1.0000
  S   S32       1.0  0.45033  0.24258  0.83017  1.0000
  S   S33       1.0  0.38495  0.24414  0.80012  1.0000
  Fe  Fe16      1.0  0.07605  0.19454  0.81231  1.0000
  S   S34       1.0  0.10515  0.20399  0.84603  1.0000
  S   S35       1.0  0.07246  0.14384  0.79985  1.0000
  Fe  Fe17      1.0  0.06244  0.26348  0.80646  1.0000
  S   S36       1.0  0.09009  0.27625  0.83965  1.0000
  S   S37       1.0  0.03694  0.29603  0.78052  1.0000
  Fe  Fe18      1.0  0.12560  0.24375  0.82489  1.0000
  S   S38       1.0  0.17511  0.26202  0.81917  1.0000
  Fe  Fe19      1.0  0.06752  0.23553  0.85859  1.0000
  S   S39       1.0  0.05211  0.23736  0.89983  1.0000
  S   S40       1.0  0.09858  0.23274  0.79063  1.0000
  S   S41       1.0  0.03788  0.22443  0.82606  1.0000
  S   S42       1.0  0.00069  0.46946  0.69886  1.0000
  H   H156      1.0  0.00371  0.11035  0.73202  1.0000
  S   S43       1.0  0.42403  0.42147  0.72226  1.0000
  C   C199      1.0  0.42531  0.39569  0.74782  1.0000
  C   C200      1.0  0.41349  0.36584  0.74504  1.0000
  C   C201      1.0  0.41418  0.34454  0.76464  1.0000
  C   C202      1.0  0.42699  0.35271  0.78733  1.0000
  C   C203      1.0  0.43859  0.38265  0.79015  1.0000
  C   C204      1.0  0.43774  0.40399  0.77061  1.0000
  H   H157      1.0  0.40377  0.35908  0.72755  1.0000
  H   H158      1.0  0.40505  0.32172  0.76213  1.0000
  H   H159      1.0  0.44845  0.38934  0.80761  1.0000
  H   H160      1.0  0.44693  0.42677  0.77312  1.0000
  C   C205      1.0  0.27386  0.23197  0.83622  1.0000
  C   C206      1.0  0.24866  0.21421  0.84427  1.0000
  C   C207      1.0  0.21844  0.22281  0.83913  1.0000
  C   C208      1.0  0.21285  0.24947  0.82583  1.0000
  C   C209      1.0  0.23807  0.26722  0.81763  1.0000
  C   C210      1.0  0.26832  0.25855  0.82272  1.0000
  H   H161      1.0  0.25250  0.19359  0.85467  1.0000
  H   H162      1.0  0.19947  0.20886  0.84559  1.0000
  H   H163      1.0  0.23416  0.28779  0.80722  1.0000
  H   H164      1.0  0.28730  0.27244  0.81628  1.0000
  C   C211      1.0  0.37372  0.45098  0.78047  1.0000
  S   S44       1.0  0.00728  0.04496  0.72820  1.0000
  H   H165      1.0  0.32373  0.01456  0.74049  1.0000
  H   H166      1.0  0.04411  0.24325  0.95261  1.0000
  H   H167      1.0  0.01455  0.16534  0.81559  1.0000
  C   C212      1.0  0.47127  0.22594  0.92547  1.0000
  C   C213      1.0  0.22698  0.36058  0.82032  1.0000
  C   C214      1.0  0.42172  0.27195  0.95781  1.0000
  H   H168      1.0  0.10052  0.34872  0.90470  1.0000
  H   H169      1.0  0.22979  0.40889  0.70427  1.0000
  C   C215      1.0  0.03376  0.40116  0.76998  1.0000
  C   C216      1.0  0.04720  0.38855  0.79113  1.0000
  C   C217      1.0  0.04886  0.35662  0.79453  1.0000
  C   C218      1.0  0.03662  0.33666  0.77692  1.0000
  C   C219      1.0  0.02309  0.34925  0.75578  1.0000
  C   C220      1.0  0.02175  0.38120  0.75227  1.0000
  C   C221      1.0  0.24522  0.37868  0.73275  1.0000
  H   H170      1.0  0.05921  0.34746  0.81094  1.0000
  C   C222      1.0  0.46472  0.12171  0.91705  1.0000
  H   H171      1.0  0.18683  0.38682  0.81389  1.0000
  C   C223      1.0  0.02557  0.07185  0.74861  1.0000
  C   C224      1.0  0.04586  0.06317  0.76708  1.0000
  C   C225      1.0  0.05973  0.08542  0.78252  1.0000
  C   C226      1.0  0.05367  0.11677  0.77989  1.0000
  C   C227      1.0  0.03321  0.12539  0.76154  1.0000
  C   C228      1.0  0.01928  0.10316  0.74616  1.0000
  H   H172      1.0  0.05105  0.03931  0.76939  1.0000
  H   H173      1.0  0.32817  0.15216  0.87343  1.0000
  H   H174      1.0  0.02847  0.14925  0.75891  1.0000
  H   H175      1.0  0.21446  0.34116  0.82795  1.0000
  C   C229      1.0  0.43699  0.06981  0.77262  1.0000
  C   C230      1.0  0.42322  0.08332  0.79349  1.0000
  C   C231      1.0  0.42247  0.11537  0.79630  1.0000
  C   C232      1.0  0.43611  0.13444  0.77854  1.0000
  C   C233      1.0  0.45045  0.12090  0.75799  1.0000
  C   C234      1.0  0.45062  0.08889  0.75488  1.0000
  H   H176      1.0  0.41296  0.06892  0.80756  1.0000
  H   H177      1.0  0.41169  0.12541  0.81231  1.0000
  C   C235      1.0  0.34895  0.02945  0.81948  1.0000
  H   H178      1.0  0.46155  0.07901  0.73885  1.0000
  C   C236      1.0  0.02827  0.36826  0.88972  1.0000
  C   C237      1.0  0.33305  0.30331  0.77167  1.0000
  C   C238      1.0  0.33477  0.31200  0.74687  1.0000
  C   C239      1.0  0.33076  0.34249  0.74033  1.0000
  C   C240      1.0  0.32521  0.36432  0.75860  1.0000
  C   C241      1.0  0.32469  0.35596  0.78365  1.0000
  C   C242      1.0  0.32802  0.32514  0.79002  1.0000
  P   P8        1.0  0.31618  0.38384  0.80716  1.0000
  C   C243      1.0  0.33183  0.37189  0.83623  1.0000
  C   C244      1.0  0.33423  0.42041  0.80086  1.0000
  C   C245      1.0  0.05838  0.37164  0.89757  1.0000
  C   C246      1.0  0.32894  0.05380  0.82142  1.0000
  H   H179      1.0  0.35268  0.01475  0.83521  1.0000
  C   C247      1.0  0.45829  0.31933  0.97618  1.0000
  C   C248      1.0  0.35969  0.42267  0.78503  1.0000
  C   C249      1.0  0.31460  0.37273  0.85822  1.0000
  C   C250      1.0  0.32708  0.36250  0.88037  1.0000
  C   C251      1.0  0.35693  0.35191  0.88079  1.0000
  C   C252      1.0  0.37447  0.35199  0.85914  1.0000
  C   C253      1.0  0.36202  0.36210  0.83699  1.0000
  C   C254      1.0  0.27514  0.38502  0.80885  1.0000
  C   C255      1.0  0.25874  0.35988  0.81848  1.0000
  C   C256      1.0  0.46955  0.21337  0.94946  1.0000
  C   C257      1.0  0.01584  0.12703  0.85464  1.0000
  H   H180      1.0  0.05613  0.40368  0.80515  1.0000
  H   H181      1.0  0.02818  0.29210  0.87698  1.0000
  H   H182      1.0  0.33580  0.27962  0.77674  1.0000
  H   H183      1.0  0.33930  0.29509  0.73277  1.0000
  H   H184      1.0  0.06224  0.17397  0.88825  1.0000
  P   P9        1.0  0.45031  0.11360  0.88649  1.0000
  H   H185      1.0  0.32684  0.31783  0.80913  1.0000
  H   H186      1.0  0.08080  0.29809  0.89165  1.0000
  C   C258      1.0  0.03645  0.31455  0.88224  1.0000
  C   C259      1.0  0.07632  0.13246  0.87059  1.0000
  H   H187      1.0  0.14388  0.42794  0.74963  1.0000
  H   H188      1.0  0.36921  0.40261  0.77647  1.0000
  H   H189      1.0  0.29158  0.38112  0.85839  1.0000
  H   H190      1.0  0.31355  0.36257  0.89721  1.0000
  H   H191      1.0  0.36652  0.34360  0.89784  1.0000
  H   H192      1.0  0.39768  0.34388  0.85935  1.0000
  H   H193      1.0  0.37585  0.36198  0.82033  1.0000
  H   H194      1.0  0.27049  0.33977  0.82477  1.0000
  H   H195      1.0  0.07549  0.07827  0.79653  1.0000
  H   H196      1.0  0.11218  0.24406  0.71149  1.0000
  H   H197      1.0  0.30584  0.44520  0.82662  1.0000
  H   H198      1.0  0.01077  0.37885  0.84177  1.0000
  H   H199      1.0  0.39315  0.45255  0.76801  1.0000
  C   C260      1.0  0.35974  0.04316  0.77691  1.0000
  C   C261      1.0  0.33980  0.06777  0.77866  1.0000
  C   C262      1.0  0.02166  0.23945  0.94505  1.0000
  P   P10       1.0  0.33181  0.09110  0.75197  1.0000
  C   C263      1.0  0.32285  0.12884  0.76296  1.0000
  C   C264      1.0  0.36410  0.09270  0.73088  1.0000
  C   C265      1.0  0.37094  0.06731  0.71607  1.0000
  C   C266      1.0  0.39516  0.06850  0.69915  1.0000
  C   C267      1.0  0.41255  0.09523  0.69659  1.0000
  C   C268      1.0  0.40567  0.12077  0.71091  1.0000
  C   C269      1.0  0.38172  0.11950  0.72812  1.0000
  C   C270      1.0  0.29667  0.14378  0.75489  1.0000
  C   C271      1.0  0.28921  0.17232  0.76459  1.0000
  C   C272      1.0  0.30784  0.18613  0.78227  1.0000
  C   C273      1.0  0.33400  0.17149  0.79024  1.0000
  C   C274      1.0  0.34153  0.14299  0.78064  1.0000
  C   C275      1.0  0.29938  0.07478  0.73612  1.0000
  H   H200      1.0  0.31693  0.05791  0.83865  1.0000
  C   C276      1.0  0.26817  0.46656  0.72749  1.0000
  H   H201      1.0  0.99833  0.31065  0.82714  1.0000
  C   C277      1.0  0.27195  0.06473  0.69808  1.0000
  C   C278      1.0  0.29681  0.07776  0.71038  1.0000
  H   H202      1.0  0.06673  0.39365  0.90382  1.0000
  H   H203      1.0  0.09978  0.13491  0.87634  1.0000
  H   H204      1.0  0.27718  0.05733  0.76929  1.0000
  H   H205      1.0  0.37230  0.03869  0.76008  1.0000
  Fe  Fe20      1.0  0.00662  0.99265  0.72092  1.0000
  H   H206      1.0  0.35757  0.04652  0.71747  1.0000
  H   H207      1.0  0.40045  0.04862  0.68805  1.0000
  H   H208      1.0  0.22994  0.03906  0.70182  1.0000
  C   C279      1.0  0.32424  0.07279  0.80109  1.0000
  H   H209      1.0  0.13605  0.46443  0.67936  1.0000
  H   H210      1.0  0.28178  0.13344  0.74135  1.0000
  H   H211      1.0  0.26877  0.18365  0.75866  1.0000
  H   H212      1.0  0.30191  0.20809  0.78999  1.0000
  H   H213      1.0  0.34829  0.18217  0.80409  1.0000
  H   H214      1.0  0.36187  0.13197  0.78705  1.0000
  C   C280      1.0  0.01858  0.23558  0.91930  1.0000
  H   H215      1.0  0.44913  0.20106  0.95509  1.0000
  C   C281      1.0  0.07741  0.34640  0.89806  1.0000
  H   H216      1.0  0.35958  0.17480  0.90670  1.0000
  H   H217      1.0  0.31392  0.09018  0.69975  1.0000
  P   P11       1.0  0.14322  0.36109  0.75013  1.0000
  C   C282      1.0  0.13674  0.36127  0.78327  1.0000
  C   C283      1.0  0.18316  0.36903  0.74391  1.0000
  C   C284      1.0  0.20564  0.35347  0.75699  1.0000
  C   C285      1.0  0.23651  0.35840  0.75150  1.0000
  H   H218      1.0  0.41255  0.15891  0.91228  1.0000
  C   C286      1.0  0.14492  0.33599  0.79758  1.0000
  C   C287      1.0  0.14028  0.33609  0.82318  1.0000
  C   C288      1.0  0.12688  0.36103  0.83472  1.0000
  C   C289      1.0  0.11837  0.38613  0.82068  1.0000
  C   C290      1.0  0.12319  0.38628  0.79509  1.0000
  C   C291      1.0  0.11938  0.38874  0.73515  1.0000
  C   C292      1.0  0.09467  0.37929  0.72056  1.0000
  C   C293      1.0  0.07650  0.40085  0.70898  1.0000
  C   C294      1.0  0.08251  0.43193  0.71215  1.0000
  C   C295      1.0  0.10665  0.44154  0.72700  1.0000
  C   C296      1.0  0.12526  0.42009  0.73820  1.0000
  H   H219      1.0  0.11055  0.46563  0.73016  1.0000
  H   H220      1.0  0.19947  0.33711  0.77119  1.0000
  H   H221      1.0  0.25364  0.34615  0.76165  1.0000
  H   H222      1.0  0.32183  0.38776  0.75318  1.0000
  H   H223      1.0  0.15449  0.31589  0.78905  1.0000
  H   H224      1.0  0.14658  0.31647  0.83405  1.0000
  H   H225      1.0  0.12262  0.36060  0.85446  1.0000
  H   H226      1.0  0.10730  0.40522  0.82952  1.0000
  H   H227      1.0  0.11533  0.40561  0.78476  1.0000
  H   H228      1.0  0.08898  0.35540  0.71823  1.0000
  H   H229      1.0  0.05725  0.39349  0.69799  1.0000
  C   C297      1.0  0.32080  0.99063  0.73648  1.0000
  C   C298      1.0  0.36421  0.02407  0.79719  1.0000
  C   C299      1.0  0.03722  0.10486  0.84812  1.0000
  C   C300      1.0  0.22741  0.41075  0.80168  1.0000
  H   H230      1.0  0.99313  0.41636  0.81150  1.0000
  C   C301      1.0  0.06734  0.10764  0.85606  1.0000
  H   H231      1.0  0.21514  0.43025  0.79492  1.0000
  C   C302      1.0  0.41110  0.12472  0.88332  1.0000
  H   H232      1.0  0.40818  0.25322  0.95046  1.0000
  H   H233      1.0  0.00936  0.16990  0.87395  1.0000
  H   H234      1.0  0.27112  0.42906  0.79109  1.0000
  H   H235      1.0  0.37739  0.13950  0.73923  1.0000
  Fe  Fe21      1.0  0.43516  0.47277  0.71834  1.0000
  H   H236      1.0  0.01344  0.33416  0.74203  1.0000
  C   C303      1.0  0.39332  0.11230  0.86425  1.0000
  C   C304      1.0  0.36337  0.12183  0.86092  1.0000
  C   C305      1.0  0.35099  0.14390  0.87655  1.0000
  C   C306      1.0  0.36868  0.15665  0.89535  1.0000
  C   C307      1.0  0.39875  0.14743  0.89854  1.0000
  H   H237      1.0  0.46798  0.09938  0.83506  1.0000
  C   C308      1.0  0.32433  0.44665  0.81328  1.0000
  C   C309      1.0  0.02520  0.15217  0.86895  1.0000
  H   H238      1.0  0.06809  0.44853  0.70341  1.0000
  C   C310      1.0  0.24832  0.48071  0.71108  1.0000
  C   C311      1.0  0.36315  0.47712  0.79228  1.0000
  C   C312      1.0  0.14380  0.28215  0.70952  1.0000
  H   H239      1.0  0.08394  0.09103  0.85029  1.0000
  H   H240      1.0  0.19104  0.46862  0.66963  1.0000
  H   H241      1.0  0.43152  0.09606  0.68366  1.0000
  H   H242      1.0  0.03110  0.08570  0.83655  1.0000
  C   C313      1.0  0.25919  0.41009  0.79974  1.0000
  Fe  Fe22      1.0  0.44799  0.99589  0.73827  1.0000
  H   H243      1.0  0.40284  0.09579  0.85159  1.0000
  H   H244      1.0  0.35006  0.11290  0.84575  1.0000
  H   H245      1.0  0.46140  0.13533  0.74425  1.0000
  C   C314      1.0  0.05521  0.15460  0.87713  1.0000
  H   H246      1.0  0.99915  0.24142  0.98091  1.0000
  C   C315      1.0  0.21139  0.38620  0.81226  1.0000
  H   H247      1.0  0.15728  0.27227  0.69480  1.0000
  C   C316      1.0  0.45157  0.31801  0.95097  1.0000
  H   H248      1.0  0.23347  0.03468  0.74736  1.0000
  H   H249      1.0  0.09516  0.31697  0.76225  1.0000
  C   C317      1.0  0.06638  0.31789  0.89055  1.0000
  C   C318      1.0  0.10897  0.30741  0.74761  1.0000
  C   C319      1.0  0.27620  0.05940  0.74941  1.0000
  H   H250      1.0  0.26912  0.38220  0.72832  1.0000
  Fe  Fe23      1.0  0.01731  0.47672  0.73772  1.0000
  H   H251      1.0  0.17543  0.39990  0.71333  1.0000
  C   C320      1.0  0.22305  0.39379  0.71927  1.0000
  C   C321      1.0  0.33859  0.47492  0.80882  1.0000
  C   C322      1.0  0.19215  0.38882  0.72465  1.0000
  H   H252      1.0  0.17114  0.32296  0.71134  1.0000
  C   C323      1.0  0.24926  0.04905  0.71138  1.0000
  H   H253      1.0  0.38001  0.00541  0.79559  1.0000
  H   H254      1.0  0.27022  0.06688  0.67819  1.0000
  H   H255      1.0  0.41939  0.14142  0.70919  1.0000
  H   H256      1.0  0.33228  0.34923  0.72109  1.0000
  H   H257      1.0  0.42348  0.10674  0.93590  1.0000
  C   C324      1.0  0.01723  0.33975  0.88169  1.0000
  H   H258      1.0  0.08083  0.26701  0.74478  1.0000
  H   H259      1.0  0.01109  0.39035  0.73600  1.0000
  C   C325      1.0  0.48604  0.13580  0.96455  1.0000
  H   H260      1.0  0.34329  0.99349  0.70093  1.0000
  C   C326      1.0  0.10082  0.27905  0.73771  1.0000
  C   C327      1.0  0.25132  0.04651  0.73704  1.0000
  C   C328      1.0  0.11837  0.26626  0.71885  1.0000
  H   H261      1.0  0.31497  0.46186  0.73874  1.0000
  C   C329      1.0  0.48225  0.06111  0.87425  1.0000
  C   C330      1.0  0.42857  0.27303  0.98298  1.0000
  C   C331      1.0  0.45682  0.12337  0.96156  1.0000
  H   H262      1.0  0.00372  0.19748  0.77954  1.0000
  H   H263      1.0  0.25929  0.45088  0.74132  1.0000
  C   C332      1.0  0.29947  0.47272  0.72609  1.0000
  C   C333      1.0  0.99169  0.16566  0.80842  1.0000
  H   H264      1.0  0.48108  0.99644  0.80014  1.0000
  C   C334      1.0  0.43350  0.29418  0.94177  1.0000
  H   H265      1.0  0.42908  0.29247  0.92212  1.0000
  H   H266      1.0  0.44221  0.11973  0.97755  1.0000
  C   C335      1.0  0.44625  0.11616  0.93793  1.0000
  H   H267      1.0  0.47266  0.33772  0.98297  1.0000
  H   H268      1.0  0.46090  0.33506  0.93845  1.0000
  C   C336      1.0  0.47618  0.12209  0.83953  1.0000
  C   C337      1.0  0.98921  0.23062  0.91005  1.0000
  H   H269      1.0  0.40824  0.06146  0.89383  1.0000
  C   C338      1.0  0.48515  0.02978  0.87012  1.0000
  C   C339      1.0  0.47116  0.13471  0.86304  1.0000
  H   H270      1.0  0.41363  0.00628  0.88649  1.0000
  C   C340      1.0  0.42972  0.05296  0.88694  1.0000
  C   C341      1.0  0.45427  0.07302  0.88207  1.0000
  C   C342      1.0  0.43273  0.02162  0.88292  1.0000
  H   H271      1.0  0.99036  0.09176  0.79946  1.0000
  H   H272      1.0  0.47509  0.17581  0.88496  1.0000
  C   C343      1.0  0.46035  0.01006  0.87433  1.0000
  C   C344      1.0  0.47996  0.16510  0.86739  1.0000
  C   C345      1.0  0.14862  0.48520  0.68368  1.0000
  P   P12       1.0  0.43595  0.65227  0.06667  1.0000
  H   H273      1.0  0.42769  0.76489  0.06967  1.0000
  H   H274      1.0  0.45748  0.54427  0.20869  1.0000
  H   H275      1.0  0.37873  0.65777  0.09387  1.0000
  H   H276      1.0  0.45383  0.67154  0.11617  1.0000
  C   C346      1.0  0.38935  0.63688  0.09977  1.0000
  H   H277      1.0  0.12252  0.82311  0.99549  1.0000
  C   C347      1.0  0.42937  0.66794  0.01721  1.0000
  C   C348      1.0  0.43103  0.60133  0.09792  1.0000
  C   C349      1.0  0.47538  0.61314  0.04239  1.0000
  H   H278      1.0  0.46021  0.52131  0.28564  1.0000
  H   H279      1.0  0.43331  0.52063  0.24574  1.0000
  H   H280      1.0  0.19922  0.77200  0.04728  1.0000
  H   H281      1.0  0.13765  0.52283  0.30165  1.0000
  H   H282      1.0  0.42340  0.74465  0.99888  1.0000
  H   H283      1.0  0.45292  0.59423  0.09085  1.0000
  H   H284      1.0  0.03416  0.68504  0.00758  1.0000
  C   C350      1.0  0.41718  0.62795  0.08929  1.0000
  C   C351      1.0  0.04732  0.94992  0.04770  1.0000
  C   C352      1.0  0.41541  0.65411  0.03791  1.0000
  H   H285      1.0  0.18299  0.82457  0.05724  1.0000
  H   H286      1.0  0.45771  0.98162  0.15541  1.0000
  C   C353      1.0  0.44785  0.69169  0.10580  1.0000
  C   C354      1.0  0.03010  0.49978  0.17366  1.0000
  H   H287      1.0  0.48198  0.57500  0.17120  1.0000
  C   C355      1.0  0.43910  0.68940  0.08097  1.0000
  C   C356      1.0  0.43144  0.71599  0.06811  1.0000
  C   C357      1.0  0.43310  0.74441  0.07981  1.0000
  C   C358      1.0  0.44207  0.74647  0.10446  1.0000
  C   C359      1.0  0.44947  0.72011  0.11743  1.0000
  C   C360      1.0  0.01305  0.96561  0.08070  1.0000
  C   C361      1.0  0.38596  0.64152  0.03566  1.0000
  C   C362      1.0  0.02835  0.95900  0.18184  1.0000
  H   H288      1.0  0.35386  0.62623  0.12631  1.0000
  H   H289      1.0  0.47665  0.62899  0.15824  1.0000
  H   H290      1.0  0.09516  0.49612  0.32252  1.0000
  H   H291      1.0  0.05710  0.93204  0.03646  1.0000
  C   C363      1.0  0.02794  0.97627  0.13930  1.0000
  H   H292      1.0  0.99320  0.92660  0.19205  1.0000
  H   H293      1.0  0.44384  0.76854  0.11339  1.0000
  C   C364      1.0  0.99052  0.93912  0.15366  1.0000
  C   C365      1.0  0.18253  0.78310  0.03587  1.0000
  C   C366      1.0  0.45509  0.53244  0.24726  1.0000
  H   H294      1.0  0.03803  0.49592  0.21270  1.0000
  C   C367      1.0  0.47026  0.53298  0.26984  1.0000
  H   H295      1.0  0.03798  0.96001  0.20020  1.0000
  C   C368      1.0  0.00298  0.95685  0.13438  1.0000
  H   H296      1.0  0.11530  0.73651  0.02385  1.0000
  H   H297      1.0  0.02298  0.49652  0.13453  1.0000
  H   H298      1.0  0.00513  0.89466  0.11609  1.0000
  H   H299      1.0  0.45566  0.60536  0.03217  1.0000
  H   H300      1.0  0.07236  0.70382  0.03769  1.0000
  C   C369      1.0  0.38910  0.59264  0.12658  1.0000
  H   H301      1.0  0.42802  0.56353  0.12328  1.0000
  H   H302      1.0  0.19040  0.51758  0.31689  1.0000
  C   C370      1.0  0.04058  0.97724  0.16295  1.0000
  H   H303      1.0  0.14461  0.84989  0.03124  1.0000
  H   H304      1.0  0.37479  0.63022  0.05106  1.0000
  H   H305      1.0  0.45714  0.72165  0.13638  1.0000
  H   H306      1.0  0.42417  0.71509  0.04911  1.0000
  C   C371      1.0  0.41699  0.58379  0.11648  1.0000
  C   C372      1.0  0.17339  0.81271  0.04149  1.0000
  H   H307      1.0  0.17723  0.74471  0.01157  1.0000
  H   H308      1.0  0.37839  0.57909  0.14108  1.0000
  H   H309      1.0  0.46607  0.74660  0.02894  1.0000
  C   C373      1.0  0.00322  0.94009  0.17722  1.0000
  H   H310      1.0  0.47156  0.86115  0.23139  1.0000
  C   C374      1.0  0.44660  0.74273  0.99226  1.0000
  C   C375      1.0  0.38445  0.65762  0.99283  1.0000
  C   C376      1.0  0.46863  0.54585  0.22641  1.0000
  H   H311      1.0  0.02190  0.52294  0.17490  1.0000
  C   C377      1.0  0.07484  0.70968  0.01832  1.0000
  C   C378      1.0  0.02592  0.94255  0.06613  1.0000
  C   C379      1.0  0.14191  0.50925  0.31791  1.0000
  C   C380      1.0  0.41390  0.66970  0.99481  1.0000
  C   C381      1.0  0.37529  0.61917  0.11823  1.0000
  C   C382      1.0  0.09917  0.72831  0.01035  1.0000
  H   H312      1.0  0.45203  0.67786  0.01849  1.0000
  C   C383      1.0  0.37054  0.64341  0.01320  1.0000
  H   H313      1.0  0.47098  0.87898  0.16455  1.0000
  C   C384      1.0  0.17012  0.76776  0.01558  1.0000
  C   C385      1.0  0.05336  0.69897  0.00139  1.0000
  H   H314      1.0  0.01950  0.91887  0.06885  1.0000
  C   C386      1.0  0.47081  0.74367  0.00948  1.0000
  C   C387      1.0  0.14852  0.78201  0.00068  1.0000
  C   C388      1.0  0.15178  0.82697  0.02683  1.0000
  C   C389      1.0  0.47294  0.63684  0.05974  1.0000
  H   H315      1.0  0.34771  0.63396  0.01157  1.0000
  C   C390      1.0  0.13933  0.81170  0.00651  1.0000
  C   C391      1.0  0.05608  0.98031  0.04370  1.0000
  H   H316      1.0  0.07264  0.98599  0.02940  1.0000
  Fe  Fe24      1.0  0.24024  0.91479  0.52100  1.0000
  S   S45       1.0  0.19434  0.89402  0.53033  1.0000
  S   S46       1.0  0.25203  0.93135  0.48115  1.0000
  Fe  Fe25      1.0  0.26517  0.89713  0.57271  1.0000
  S   S47       1.0  0.22032  0.87624  0.58491  1.0000
  S   S48       1.0  0.30528  0.88755  0.59827  1.0000
  Fe  Fe26      1.0  0.21904  0.85441  0.54727  1.0000
  S   S49       1.0  0.19986  0.80563  0.54225  1.0000
  Fe  Fe27      1.0  0.19933  0.91698  0.56731  1.0000
  S   S50       1.0  0.15969  0.94442  0.58264  1.0000
  S   S51       1.0  0.26464  0.87332  0.53573  1.0000
  S   S52       1.0  0.24434  0.93994  0.55738  1.0000
  Fe  Fe28      1.0  0.21569  0.56237  0.51726  1.0000
  S   S53       1.0  0.19194  0.60365  0.53397  1.0000
  S   S54       1.0  0.19732  0.53427  0.48389  1.0000
  Fe  Fe29      1.0  0.26218  0.56117  0.55931  1.0000
  S   S55       1.0  0.24248  0.60157  0.57853  1.0000
  S   S56       1.0  0.30265  0.53345  0.57199  1.0000
  Fe  Fe30      1.0  0.19663  0.58013  0.57093  1.0000
  S   S57       1.0  0.16426  0.58711  0.60393  1.0000
  Fe  Fe31      1.0  0.23893  0.62310  0.54103  1.0000
  S   S58       1.0  0.25809  0.67226  0.53778  1.0000
  S   S59       1.0  0.21672  0.53791  0.55408  1.0000
  S   S60       1.0  0.26238  0.58365  0.52187  1.0000
  C   C392      1.0  0.31943  0.53840  0.60139  1.0000
  C   C393      1.0  0.30930  0.56058  0.61795  1.0000
  H   H317      1.0  0.15788  0.93980  0.38365  1.0000
  C   C394      1.0  0.35761  0.52302  0.63147  1.0000
  C   C395      1.0  0.34347  0.51949  0.60834  1.0000
  H   H318      1.0  0.29061  0.57500  0.61295  1.0000
  C   C396      1.0  0.15716  0.82619  0.59912  1.0000
  C   C397      1.0  0.21703  0.89766  0.40349  1.0000
  H   H319      1.0  0.22415  0.74148  0.60307  1.0000
  C   C398      1.0  0.09408  0.52201  0.64120  1.0000
  H   H320      1.0  0.08049  0.96599  0.64492  1.0000
  C   C399      1.0  0.13749  0.56138  0.61785  1.0000
  C   C400      1.0  0.13354  0.53139  0.60958  1.0000
  H   H321      1.0  0.31554  0.58144  0.65363  1.0000
  H   H322      1.0  0.13012  0.49586  0.39877  1.0000
  H   H323      1.0  0.30270  0.82809  0.37815  1.0000
  C   C401      1.0  0.32767  0.91342  0.61604  1.0000
  C   C402      1.0  0.35161  0.90196  0.63028  1.0000
  C   C403      1.0  0.43901  0.65996  0.60557  1.0000
  H   H324      1.0  0.19090  0.51203  0.63121  1.0000
  C   C404      1.0  0.11207  0.51182  0.62127  1.0000
  C   C405      1.0  0.32212  0.94472  0.61657  1.0000
  C   C406      1.0  0.26535  0.49105  0.63285  1.0000
  C   C407      1.0  0.16816  0.93152  0.42220  1.0000
  H   H325      1.0  0.30374  0.95387  0.60582  1.0000
  C   C408      1.0  0.13821  0.93593  0.60985  1.0000
  C   C409      1.0  0.11580  0.95639  0.61785  1.0000
  C   C410      1.0  0.21213  0.89981  0.42894  1.0000
  H   H326      1.0  0.29311  0.64845  0.58236  1.0000
  H   H327      1.0  0.07540  0.86032  0.40900  1.0000
  C   C411      1.0  0.14249  0.90916  0.62334  1.0000
  H   H328      1.0  0.10918  0.48867  0.61470  1.0000
  H   H329      1.0  0.38987  0.64789  0.57201  1.0000
  H   H330      1.0  0.15992  0.89352  0.61763  1.0000
  C   C412      1.0  0.21681  0.76886  0.54240  1.0000
  C   C413      1.0  0.19783  0.74273  0.54397  1.0000
  C   C414      1.0  0.21000  0.71308  0.54315  1.0000
  C   C415      1.0  0.24140  0.70910  0.54035  1.0000
  C   C416      1.0  0.26042  0.73526  0.53914  1.0000
  C   C417      1.0  0.24828  0.76491  0.54035  1.0000
  H   H331      1.0  0.17347  0.74541  0.54555  1.0000
  H   H332      1.0  0.19501  0.69331  0.54414  1.0000
  H   H333      1.0  0.28473  0.73255  0.53700  1.0000
  H   H334      1.0  0.26320  0.78470  0.53916  1.0000
  H   H335      1.0  0.13519  0.72254  0.63474  1.0000
  C   C418      1.0  0.05524  0.90952  0.45469  1.0000
  C   C419      1.0  0.24299  0.96321  0.46163  1.0000
  H   H336      1.0  0.28571  0.49259  0.64383  1.0000
  C   C420      1.0  0.31262  0.80866  0.50104  1.0000
  C   C421      1.0  0.40791  0.57736  0.60135  1.0000
  C   C422      1.0  0.11782  0.49391  0.32985  1.0000
  C   C423      1.0  0.21090  0.51540  0.45640  1.0000
  C   C424      1.0  0.43949  0.53509  0.61323  1.0000
  H   H337      1.0  0.12720  0.88166  0.65428  1.0000
  H   H338      1.0  0.14115  0.66797  0.62435  1.0000
  C   C425      1.0  0.25213  0.76862  0.37950  1.0000
  H   H339      1.0  0.32569  0.79519  0.51380  1.0000
  C   C426      1.0  0.34065  0.96434  0.63087  1.0000
  C   C427      1.0  0.27735  0.81326  0.41038  1.0000
  C   C428      1.0  0.25601  0.79218  0.42008  1.0000
  C   C429      1.0  0.24324  0.77002  0.40435  1.0000
  P   P13       1.0  0.24304  0.79461  0.45184  1.0000
  C   C430      1.0  0.20910  0.81730  0.45347  1.0000
  C   C431      1.0  0.23490  0.75630  0.46265  1.0000
  C   C432      1.0  0.25573  0.73297  0.45782  1.0000
  C   C433      1.0  0.24981  0.70330  0.46622  1.0000
  C   C434      1.0  0.22284  0.69656  0.47907  1.0000
  C   C435      1.0  0.20178  0.71950  0.48356  1.0000
  C   C436      1.0  0.20789  0.74934  0.47568  1.0000
  C   C437      1.0  0.19959  0.82930  0.47624  1.0000
  C   C438      1.0  0.17227  0.84512  0.47810  1.0000
  C   C439      1.0  0.15460  0.84976  0.45716  1.0000
  C   C440      1.0  0.16415  0.83835  0.43431  1.0000
  C   C441      1.0  0.19121  0.82203  0.43245  1.0000
  C   C442      1.0  0.27219  0.81215  0.47079  1.0000
  C   C443      1.0  0.28969  0.79474  0.48703  1.0000
  H   H340      1.0  0.03436  0.86872  0.43993  1.0000
  C   C444      1.0  0.31833  0.83998  0.49894  1.0000
  C   C445      1.0  0.30077  0.85752  0.48311  1.0000
  C   C446      1.0  0.27757  0.84375  0.46937  1.0000
  H   H341      1.0  0.24229  0.75137  0.36751  1.0000
  H   H342      1.0  0.14367  0.86507  0.57769  1.0000
  H   H343      1.0  0.28737  0.83084  0.42182  1.0000
  H   H344      1.0  0.22626  0.75390  0.41123  1.0000
  H   H345      1.0  0.27680  0.73785  0.44794  1.0000
  H   H346      1.0  0.26626  0.68550  0.46310  1.0000
  H   H347      1.0  0.21858  0.67370  0.48607  1.0000
  H   H348      1.0  0.18110  0.71430  0.49387  1.0000
  H   H349      1.0  0.19160  0.76679  0.48013  1.0000
  H   H350      1.0  0.21297  0.82581  0.49270  1.0000
  H   H351      1.0  0.16468  0.85342  0.49592  1.0000
  H   H352      1.0  0.13354  0.86219  0.45868  1.0000
  H   H353      1.0  0.15057  0.84209  0.41802  1.0000
  H   H354      1.0  0.19793  0.81310  0.41463  1.0000
  H   H355      1.0  0.28553  0.77056  0.48934  1.0000
  H   H356      1.0  0.13770  0.92324  0.48305  1.0000
  H   H357      1.0  0.22754  0.88919  0.44165  1.0000
  H   H358      1.0  0.25646  0.90373  0.63642  1.0000
  H   H359      1.0  0.26389  0.85785  0.45762  1.0000
  C   C447      1.0  0.46891  0.65030  0.60109  1.0000
  C   C448      1.0  0.12682  0.98185  0.41269  1.0000
  H   H360      1.0  0.11293  0.83431  0.54841  1.0000
  C   C449      1.0  0.48093  0.69799  0.58034  1.0000
  H   H361      1.0  0.40760  0.69713  0.60088  1.0000
  C   C450      1.0  0.02386  0.93256  0.61670  1.0000
  C   C451      1.0  0.34121  0.64942  0.57469  1.0000
  H   H362      1.0  0.47637  0.62821  0.60726  1.0000
  H   H363      1.0  0.25478  0.53776  0.45452  1.0000
  C   C452      1.0  0.28614  0.81182  0.38550  1.0000
  C   C453      1.0  0.99128  0.60460  0.64726  1.0000
  C   C454      1.0  0.21224  0.50186  0.62572  1.0000
  H   H364      1.0  0.14690  0.52332  0.59409  1.0000
  H   H365      1.0  0.38961  0.58573  0.59009  1.0000
  H   H366      1.0  0.35611  0.87780  0.63000  1.0000
  C   C455      1.0  0.34849  0.63713  0.62500  1.0000
  C   C456      1.0  0.15943  0.68419  0.62038  1.0000
  H   H367      1.0  0.22935  0.68724  0.59299  1.0000
  H   H368      1.0  0.26420  0.94336  0.42946  1.0000
  H   H369      1.0  0.30442  0.88202  0.48206  1.0000
  H   H370      1.0  0.23625  0.88510  0.39636  1.0000
  H   H371      1.0  0.22930  0.62034  0.63120  1.0000
  C   C457      1.0  0.37041  0.64640  0.58440  1.0000
  H   H372      1.0  0.18522  0.91839  0.45811  1.0000
  C   C458      1.0  0.10165  0.89990  0.41996  1.0000
  H   H373      1.0  0.22188  0.79511  0.59171  1.0000
  C   C459      1.0  0.17165  0.50618  0.32640  1.0000
  H   H374      1.0  0.44447  0.73017  0.57848  1.0000
  C   C460      1.0  0.41656  0.54700  0.59854  1.0000
  C   C461      1.0  0.19180  0.49383  0.44457  1.0000
  C   C462      1.0  0.09755  0.95001  0.63888  1.0000
  C   C463      1.0  0.25212  0.96284  0.43654  1.0000
  C   C464      1.0  0.11972  0.57151  0.63795  1.0000
  C   C465      1.0  0.20615  0.72585  0.60866  1.0000
  C   C466      1.0  0.36481  0.95294  0.64487  1.0000
  C   C467      1.0  0.19743  0.91223  0.38728  1.0000
  H   H375      1.0  0.21919  0.56536  0.63444  1.0000
  C   C468      1.0  0.17968  0.73619  0.62062  1.0000
  C   C469      1.0  0.18789  0.91667  0.43830  1.0000
  C   C470      1.0  0.10121  0.92283  0.65193  1.0000
  C   C471      1.0  0.34785  0.54562  0.64779  1.0000
  H   H376      1.0  0.03714  0.91338  0.46802  1.0000
  C   C472      1.0  0.20926  0.69495  0.60286  1.0000
  H   H377      1.0  0.27079  0.82282  0.59603  1.0000
  C   C473      1.0  0.18589  0.67416  0.60864  1.0000
  C   C474      1.0  0.45129  0.70786  0.58481  1.0000
  C   C475      1.0  0.05367  0.88437  0.43887  1.0000
  H   H378      1.0  0.20381  0.90439  0.65342  1.0000
  H   H379      1.0  0.29945  0.63646  0.62679  1.0000
  C   C476      1.0  0.27359  0.78949  0.37008  1.0000
  P   P14       1.0  0.13539  0.95149  0.43400  1.0000
  H   H380      1.0  0.17071  0.83991  0.61163  1.0000
  C   C477      1.0  0.08001  0.92988  0.45320  1.0000
  C   C478      1.0  0.41234  0.64663  0.65437  1.0000
  H   H381      1.0  0.12260  0.59465  0.64450  1.0000
  H   H382      1.0  0.35080  0.63124  0.64430  1.0000
  H   H383      1.0  0.34871  0.49205  0.38300  1.0000
  C   C479      1.0  0.25716  0.81745  0.61234  1.0000
  C   C480      1.0  0.26665  0.82759  0.63550  1.0000
  H   H384      1.0  0.11913  0.89600  0.40616  1.0000
  C   C481      1.0  0.23755  0.50260  0.64147  1.0000
  C   C482      1.0  0.21108  0.79565  0.63081  1.0000
  C   C483      1.0  0.22939  0.80179  0.60995  1.0000
  C   C484      1.0  0.13743  0.77717  0.58555  1.0000
  C   C485      1.0  0.00490  0.98215  0.60523  1.0000
  C   C486      1.0  0.15508  0.79442  0.60211  1.0000
  C   C487      1.0  0.31931  0.64002  0.61517  1.0000
  C   C488      1.0  0.15260  0.78124  0.65540  1.0000
  C   C489      1.0  0.10354  0.50256  0.43141  1.0000
  C   C490      1.0  0.14173  0.84054  0.57999  1.0000
  H   H385      1.0  0.11257  0.97734  0.60774  1.0000
  H   H386      1.0  0.04923  0.50481  0.36155  1.0000
  C   C491      1.0  0.07615  0.49635  0.44385  1.0000
  H   H387      1.0  0.18795  0.65037  0.60344  1.0000
  C   C492      1.0  0.14222  0.94742  0.48517  1.0000
  C   C493      1.0  0.23813  0.60791  0.64682  1.0000
  C   C494      1.0  0.45410  0.55367  0.63054  1.0000
  H   H388      1.0  0.30748  0.98524  0.46540  1.0000
  H   H389      1.0  0.20135  0.91093  0.36751  1.0000
  H   H390      1.0  0.25234  0.98606  0.40113  1.0000
  C   C495      1.0  0.44575  0.58411  0.63329  1.0000
  C   C496      1.0  0.37431  0.64093  0.60977  1.0000
  H   H391      1.0  0.25200  0.49713  0.49895  1.0000
  H   H392      1.0  0.38861  0.91253  0.65521  1.0000
  C   C497      1.0  0.12433  0.82322  0.56353  1.0000
  C   C498      1.0  0.42250  0.59623  0.61873  1.0000
  C   C499      1.0  0.02908  0.96200  0.60756  1.0000
  H   H393      1.0  0.33575  0.85086  0.51009  1.0000
  P   P15       1.0  0.41201  0.63576  0.62208  1.0000
  C   C500      1.0  0.10357  0.92503  0.43599  1.0000
  H   H394      1.0  0.28044  0.78841  0.35080  1.0000
  C   C501      1.0  0.07683  0.87961  0.42148  1.0000
  H   H395      1.0  0.00248  0.51062  0.33700  1.0000
  C   C502      1.0  0.43042  0.68900  0.59743  1.0000
  H   H396      1.0  0.45745  0.59808  0.64683  1.0000
  H   H397      1.0  0.33815  0.65357  0.55512  1.0000
  C   C503      1.0  0.37005  0.92157  0.64465  1.0000
  C   C504      1.0  0.17294  0.92888  0.39656  1.0000
  H   H398      1.0  0.10914  0.77811  0.55325  1.0000
  H   H399      1.0  0.40491  0.53252  0.58531  1.0000
  H   H400      1.0  0.07227  0.50573  0.46212  1.0000
  C   C505      1.0  0.14299  0.96681  0.46446  1.0000
  H   H401      1.0  0.28764  0.84079  0.63699  1.0000
  H   H402      1.0  0.37610  0.50837  0.63661  1.0000
  H   H403      1.0  0.03986  0.59858  0.64527  1.0000
  C   C506      1.0  0.02108  0.60804  0.65577  1.0000
  C   C507      1.0  0.31569  0.64641  0.59009  1.0000
  C   C508      1.0  0.14751  0.95909  0.50882  1.0000
  P   P16       1.0  0.17469  0.77635  0.62727  1.0000
  H   H404      1.0  0.07812  0.97287  0.41186  1.0000
  H   H405      1.0  0.08065  0.94950  0.46537  1.0000
  H   H406      1.0  0.13571  0.75264  0.58715  1.0000
  H   H407      1.0  0.99033  0.90065  0.63098  1.0000
  C   C509      1.0  0.12219  0.79156  0.56630  1.0000
  C   C510      1.0  0.32349  0.56417  0.64100  1.0000
  C   C511      1.0  0.23976  0.52119  0.44596  1.0000
  H   H408      1.0  0.05207  0.96950  0.60304  1.0000
  H   H409      1.0  0.44576  0.51140  0.61138  1.0000
  C   C512      1.0  0.23246  0.57655  0.64870  1.0000
  C   C513      1.0  0.12398  0.90259  0.64416  1.0000
  H   H410      1.0  0.04281  0.91740  0.61948  1.0000
  H   H411      1.0  0.12088  0.51677  0.44005  1.0000
  H   H412      1.0  0.35125  0.50209  0.59572  1.0000
  H   H413      1.0  0.14707  0.94413  0.52479  1.0000
  H   H414      1.0  0.35091  0.50237  0.42806  1.0000
  C   C514      1.0  0.99432  0.92307  0.62307  1.0000
  H   H415      1.0  0.27188  0.50980  0.41691  1.0000
  C   C515      1.0  0.09805  0.55202  0.64951  1.0000
  C   C516      1.0  0.22100  0.80557  0.65412  1.0000
  H   H416      1.0  0.47186  0.54442  0.64197  1.0000
  H   H417      1.0  0.12964  0.82218  0.64339  1.0000
  C   C517      1.0  0.24939  0.50530  0.42448  1.0000
  C   C518      1.0  0.09687  0.98669  0.40485  1.0000
  H   H418      1.0  0.16946  0.48901  0.45230  1.0000
  S   S61       1.0  0.06742  0.49628  0.65526  1.0000
  C   C519      1.0  0.15624  0.71507  0.62629  1.0000
  C   C520      1.0  0.25250  0.90038  0.65608  1.0000
  C   C521      1.0  0.01490  0.48949  0.33623  1.0000
  H   H419      1.0  0.98704  0.59244  0.63017  1.0000
  C   C522      1.0  0.10872  0.49048  0.40786  1.0000
  C   C523      1.0  0.21425  0.48820  0.60248  1.0000
  H   H420      1.0  0.42408  0.69416  0.64788  1.0000
  C   C524      1.0  0.24560  0.98726  0.42036  1.0000
  H   H421      1.0  0.24247  0.72808  0.65534  1.0000
  C   C525      1.0  0.24856  0.82165  0.65639  1.0000
  Fe  Fe32      1.0  0.06138  0.68977  0.86439  1.0000
  S   S62       1.0  0.02322  0.72338  0.86513  1.0000
  S   S63       1.0  0.05280  0.63995  0.85446  1.0000
  Fe  Fe33      1.0  0.11055  0.73765  0.87762  1.0000
  S   S64       1.0  0.07525  0.77454  0.87907  1.0000
  S   S65       1.0  0.15993  0.75494  0.88296  1.0000
  Fe  Fe34      1.0  0.04488  0.74111  0.90028  1.0000
  S   S66       1.0  0.02059  0.76064  0.93513  1.0000
  Fe  Fe35      1.0  0.05625  0.75409  0.84440  1.0000
  S   S67       1.0  0.04878  0.77479  0.80634  1.0000
  S   S68       1.0  0.08155  0.70537  0.90078  1.0000
  S   S69       1.0  0.09290  0.71913  0.84186  1.0000
  Fe  Fe36      1.0  0.40708  0.71486  0.85060  1.0000
  S   S70       1.0  0.42897  0.75472  0.87066  1.0000
  S   S71       1.0  0.43277  0.69258  0.81856  1.0000
  Fe  Fe37      1.0  0.34402  0.72577  0.87414  1.0000
  S   S72       1.0  0.36166  0.76619  0.89571  1.0000
  S   S73       1.0  0.29578  0.70440  0.87107  1.0000
  Fe  Fe38      1.0  0.38651  0.77984  0.86050  1.0000
  S   S74       1.0  0.38396  0.82865  0.84561  1.0000
  Fe  Fe39      1.0  0.40336  0.73814  0.90470  1.0000
  S   S75       1.0  0.42000  0.73771  0.94577  1.0000
  S   S76       1.0  0.36641  0.74127  0.83871  1.0000
  S   S77       1.0  0.38390  0.69642  0.88497  1.0000
  Fe  Fe40      1.0  0.44770  0.92578  0.73048  1.0000
  S   S78       1.0  0.44554  0.87696  0.74538  1.0000
  Fe  Fe41      1.0  0.42490  0.96784  0.68992  1.0000
  H   H422      1.0  0.20725  0.80173  0.67052  1.0000
  S   S79       1.0  0.45905  0.92995  0.68979  1.0000
  S   S80       1.0  0.41113  0.96102  0.72969  1.0000
  Fe  Fe42      1.0  0.47682  0.52438  0.69773  1.0000
  C   C526      1.0  0.15641  0.76125  0.67539  1.0000
  C   C527      1.0  0.48237  0.73713  0.95863  1.0000
  Fe  Fe43      1.0  0.03800  0.93763  0.69628  1.0000
  H   H423      1.0  0.00286  0.79226  0.97964  1.0000
  H   H424      1.0  0.22517  0.69511  0.92525  1.0000
  S   S81       1.0  0.00084  0.90762  0.78318  1.0000
  C   C528      1.0  0.30560  0.97166  0.75340  1.0000
  Fe  Fe44      1.0  0.01831  0.54703  0.73094  1.0000
  S   S82       1.0  0.03158  0.59507  0.74374  1.0000
  C   C529      1.0  0.11717  0.81056  0.68042  1.0000
  H   H425      1.0  0.37443  0.49898  0.78894  1.0000
  S   S83       1.0  0.00209  0.54401  0.69150  1.0000
  S   S84       1.0  0.05362  0.51099  0.72613  1.0000
  Fe  Fe45      1.0  0.43618  0.53540  0.74388  1.0000
  S   S85       1.0  0.42384  0.55446  0.78181  1.0000
  Fe  Fe46      1.0  0.40662  0.52864  0.69300  1.0000
  S   S86       1.0  0.36430  0.55098  0.67725  1.0000
  H   H426      1.0  0.40266  0.61540  0.71167  1.0000
  S   S87       1.0  0.44251  0.56043  0.70813  1.0000
  H   H427      1.0  0.32210  0.79425  0.75243  1.0000
  C   C530      1.0  0.29114  0.50727  0.69202  1.0000
  C   C531      1.0  0.24301  0.74640  0.78906  1.0000
  C   C532      1.0  0.29729  0.75045  0.69590  1.0000
  C   C533      1.0  0.40000  0.84138  0.81711  1.0000
  C   C534      1.0  0.41628  0.82192  0.80160  1.0000
  C   C535      1.0  0.42993  0.83324  0.77973  1.0000
  C   C536      1.0  0.42720  0.86399  0.77291  1.0000
  C   C537      1.0  0.41005  0.88328  0.78797  1.0000
  C   C538      1.0  0.39658  0.87200  0.80999  1.0000
  H   H428      1.0  0.41879  0.79825  0.80669  1.0000
  H   H429      1.0  0.44306  0.81808  0.76822  1.0000
  H   H430      1.0  0.40757  0.90695  0.78287  1.0000
  H   H431      1.0  0.38372  0.88713  0.82174  1.0000
  C   C539      1.0  0.42923  0.65423  0.80839  1.0000
  C   C540      1.0  0.44112  0.64621  0.78507  1.0000
  C   C541      1.0  0.43917  0.61591  0.77641  1.0000
  C   C542      1.0  0.42565  0.59322  0.79118  1.0000
  C   C543      1.0  0.41359  0.60128  0.81441  1.0000
  C   C544      1.0  0.41520  0.63163  0.82294  1.0000
  H   H432      1.0  0.45208  0.66352  0.77372  1.0000
  H   H433      1.0  0.44864  0.61002  0.75855  1.0000
  H   H434      1.0  0.40310  0.58389  0.82597  1.0000
  H   H435      1.0  0.40599  0.63747  0.84091  1.0000
  C   C545      1.0  0.03825  0.81288  0.80066  1.0000
  C   C546      1.0  0.03808  0.82349  0.77616  1.0000
  C   C547      1.0  0.02809  0.85305  0.77063  1.0000
  C   C548      1.0  0.01755  0.87202  0.78954  1.0000
  C   C549      1.0  0.01842  0.86164  0.81409  1.0000
  C   C550      1.0  0.02884  0.83223  0.81967  1.0000
  H   H436      1.0  0.04543  0.80870  0.76136  1.0000
  H   H437      1.0  0.30049  0.52309  0.67852  1.0000
  P   P17       1.0  0.31520  0.72876  0.74226  1.0000
  H   H438      1.0  0.02899  0.82431  0.83859  1.0000
  C   C551      1.0  0.04772  0.62765  0.82352  1.0000
  C   C552      1.0  0.05381  0.64695  0.80344  1.0000
  C   C553      1.0  0.04879  0.63658  0.77914  1.0000
  C   C554      1.0  0.03790  0.60679  0.77464  1.0000
  C   C555      1.0  0.33064  0.66920  0.72815  1.0000
  H   H439      1.0  0.01214  0.71789  0.77791  1.0000
  H   H440      1.0  0.06201  0.66998  0.80664  1.0000
  H   H441      1.0  0.05334  0.65174  0.76374  1.0000
  C   C556      1.0  0.03725  0.59772  0.81898  1.0000
  C   C557      1.0  0.19743  0.74033  0.87920  1.0000
  C   C558      1.0  0.22263  0.76002  0.88294  1.0000
  C   C559      1.0  0.25281  0.74956  0.88057  1.0000
  C   C560      1.0  0.25826  0.71913  0.87439  1.0000
  C   C561      1.0  0.23307  0.69945  0.87060  1.0000
  C   C562      1.0  0.20289  0.70992  0.87300  1.0000
  H   H442      1.0  0.21876  0.78355  0.88791  1.0000
  H   H443      1.0  0.27183  0.76500  0.88365  1.0000
  H   H444      1.0  0.23696  0.67582  0.86603  1.0000
  H   H445      1.0  0.18382  0.69444  0.87041  1.0000
  C   C563      1.0  0.99247  0.71745  0.79015  1.0000
  H   H446      1.0  0.10219  0.82994  0.68244  1.0000
  C   C564      1.0  0.09334  0.83175  0.92017  1.0000
  C   C565      1.0  0.12306  0.82141  0.91701  1.0000
  C   C566      1.0  0.13489  0.80013  0.93342  1.0000
  C   C567      1.0  0.11694  0.78877  0.95305  1.0000
  H   H447      1.0  0.17193  0.74237  0.67391  1.0000
  H   H448      1.0  0.08147  0.73243  0.94932  1.0000
  C   C568      1.0  0.16169  0.74016  0.95937  1.0000
  C   C569      1.0  0.19540  0.51545  0.68207  1.0000
  C   C570      1.0  0.24350  0.56004  0.66886  1.0000
  H   H449      1.0  0.99706  0.67001  0.79953  1.0000
  C   C571      1.0  0.42012  0.68463  0.68659  1.0000
  C   C572      1.0  0.27716  0.89625  0.67183  1.0000
  C   C573      1.0  0.07542  0.82077  0.93978  1.0000
  C   C574      1.0  0.43952  0.93910  0.82681  1.0000
  H   H450      1.0  0.41422  0.87693  0.69907  1.0000
  C   C575      1.0  0.20756  0.70742  0.93504  1.0000
  C   C576      1.0  0.21450  0.73540  0.94608  1.0000
  C   C577      1.0  0.19169  0.75177  0.95815  1.0000
  H   H451      1.0  0.03266  0.58258  0.83439  1.0000
  S   S88       1.0  0.48368  0.95972  0.74187  1.0000
  H   H452      1.0  0.45525  0.89406  0.83402  1.0000
  H   H453      1.0  0.29683  0.98104  0.77051  1.0000
  C   C578      1.0  0.22287  0.90076  0.66565  1.0000
  C   C579      1.0  0.99536  0.74992  0.96025  1.0000
  H   H454      1.0  0.03957  0.69871  0.96331  1.0000
  H   H455      1.0  0.08394  0.84760  0.90704  1.0000
  H   H456      1.0  0.13671  0.82916  0.90139  1.0000
  H   H457      1.0  0.15778  0.79214  0.93027  1.0000
  C   C580      1.0  0.33175  0.97876  0.71423  1.0000
  C   C581      1.0  0.17772  0.69595  0.93577  1.0000
  H   H458      1.0  0.46983  0.54291  0.82311  1.0000
  C   C582      1.0  0.35698  0.83418  0.67430  1.0000
  C   C583      1.0  0.25625  0.72823  0.67187  1.0000
  H   H459      1.0  0.25547  0.83016  0.67426  1.0000
  H   H460      1.0  0.25978  0.64721  0.66315  1.0000
  C   C584      1.0  0.17990  0.54006  0.69269  1.0000
  H   H461      1.0  0.23745  0.74470  0.94474  1.0000
  H   H462      1.0  0.40046  0.60153  0.66769  1.0000
  C   C585      1.0  0.13289  0.80603  0.65817  1.0000
  Fe  Fe47      1.0  0.00302  0.92987  0.74519  1.0000
  P   P18       1.0  0.23447  0.51986  0.67175  1.0000
  H   H463      1.0  0.33094  0.49512  0.81845  1.0000
  H   H464      1.0  0.10866  0.79408  0.71734  1.0000
  C   C586      1.0  0.12612  0.61057  0.74293  1.0000
  C   C587      1.0  0.10980  0.58692  0.75448  1.0000
  C   C588      1.0  0.11111  0.58347  0.78008  1.0000
  C   C589      1.0  0.12859  0.60369  0.79425  1.0000
  C   C590      1.0  0.14507  0.62763  0.78283  1.0000
  C   C591      1.0  0.14379  0.63077  0.75700  1.0000
  P   P19       1.0  0.16750  0.65444  0.80089  1.0000
  C   C592      1.0  0.15288  0.69277  0.79742  1.0000
  C   C593      1.0  0.16387  0.64492  0.83330  1.0000
  C   C594      1.0  0.13620  0.64999  0.84566  1.0000
  C   C595      1.0  0.13279  0.64255  0.87064  1.0000
  C   C596      1.0  0.15692  0.62987  0.88349  1.0000
  C   C597      1.0  0.18446  0.62435  0.87129  1.0000
  C   C598      1.0  0.18789  0.63157  0.84622  1.0000
  C   C599      1.0  0.16506  0.71689  0.81150  1.0000
  C   C600      1.0  0.15366  0.74637  0.80941  1.0000
  C   C601      1.0  0.12948  0.75204  0.79357  1.0000
  C   C602      1.0  0.11646  0.72813  0.78007  1.0000
  C   C603      1.0  0.12789  0.69861  0.78208  1.0000
  C   C604      1.0  0.20746  0.65294  0.79195  1.0000
  C   C605      1.0  0.21752  0.63189  0.77411  1.0000
  C   C606      1.0  0.24854  0.62940  0.76852  1.0000
  C   C607      1.0  0.26991  0.64742  0.78096  1.0000
  C   C608      1.0  0.26031  0.66816  0.79886  1.0000
  C   C609      1.0  0.22931  0.67095  0.80429  1.0000
  H   H465      1.0  0.12447  0.61355  0.72312  1.0000
  H   H466      1.0  0.09536  0.57177  0.74372  1.0000
  H   H467      1.0  0.09769  0.56563  0.78906  1.0000
  H   H468      1.0  0.12861  0.60066  0.81408  1.0000
  H   H469      1.0  0.15608  0.64919  0.74783  1.0000
  H   H470      1.0  0.11697  0.65902  0.83582  1.0000
  H   H471      1.0  0.11120  0.64629  0.87994  1.0000
  H   H472      1.0  0.15411  0.62406  0.90284  1.0000
  H   H473      1.0  0.20317  0.61444  0.88125  1.0000
  H   H474      1.0  0.20927  0.62659  0.83716  1.0000
  H   H475      1.0  0.18229  0.71296  0.82509  1.0000
  H   H476      1.0  0.16239  0.76444  0.82120  1.0000
  H   H477      1.0  0.11954  0.77454  0.79294  1.0000
  H   H478      1.0  0.09644  0.73229  0.76908  1.0000
  H   H479      1.0  0.11612  0.68046  0.77246  1.0000
  H   H480      1.0  0.20175  0.61657  0.76501  1.0000
  H   H481      1.0  0.25613  0.61278  0.75509  1.0000
  H   H482      1.0  0.29395  0.64465  0.77730  1.0000
  H   H483      1.0  0.27694  0.68155  0.80912  1.0000
  H   H484      1.0  0.22285  0.68615  0.81901  1.0000
  C   C610      1.0  0.21793  0.89748  0.69107  1.0000
  C   C611      1.0  0.14048  0.76575  0.69759  1.0000
  C   C612      1.0  0.14893  0.53722  0.69857  1.0000
  S   S89       1.0  0.00451  0.97195  0.68216  1.0000
  H   H485      1.0  0.23275  0.68978  0.68835  1.0000
  C   C613      1.0  0.32767  0.94782  0.70889  1.0000
  C   C614      1.0  0.31288  0.92846  0.72595  1.0000
  C   C615      1.0  0.30129  0.94071  0.74804  1.0000
  P   P20       1.0  0.30465  0.88946  0.71766  1.0000
  C   C616      1.0  0.33678  0.87237  0.70230  1.0000
  C   C617      1.0  0.29858  0.86678  0.74517  1.0000
  C   C618      1.0  0.31896  0.86985  0.76493  1.0000
  C   C619      1.0  0.31484  0.85245  0.78638  1.0000
  C   C620      1.0  0.29034  0.83190  0.78829  1.0000
  C   C621      1.0  0.27043  0.82808  0.76847  1.0000
  C   C622      1.0  0.27477  0.84512  0.74681  1.0000
  C   C623      1.0  0.33220  0.84772  0.68614  1.0000
  H   H486      1.0  0.13668  0.55646  0.70597  1.0000
  H   H487      1.0  0.13185  0.70311  0.94776  1.0000
  C   C624      1.0  0.39130  0.86877  0.69546  1.0000
  C   C625      1.0  0.36658  0.88241  0.70729  1.0000
  C   C626      1.0  0.27238  0.89200  0.69732  1.0000
  C   C627      1.0  0.24261  0.89354  0.70692  1.0000
  S   S90       1.0  0.00083  0.90522  0.70910  1.0000
  C   C628      1.0  0.41916  0.67676  0.66152  1.0000
  H   H488      1.0  0.46260  0.98580  0.87106  1.0000
  C   C629      1.0  0.15484  0.71222  0.94786  1.0000
  S   S91       1.0  0.47287  0.50131  0.73520  1.0000
  H   H489      1.0  0.45535  0.49142  0.80825  1.0000
  H   H490      1.0  0.04938  0.62385  0.68559  1.0000
  H   H491      1.0  0.33578  0.93916  0.69132  1.0000
  H   H492      1.0  0.28858  0.92658  0.76101  1.0000
  H   H493      1.0  0.33817  0.88563  0.76377  1.0000
  H   H494      1.0  0.33067  0.85485  0.80158  1.0000
  H   H495      1.0  0.28703  0.81880  0.80511  1.0000
  H   H496      1.0  0.25168  0.81183  0.76995  1.0000
  H   H497      1.0  0.25958  0.84130  0.73148  1.0000
  H   H498      1.0  0.17219  0.67479  0.92645  1.0000
  C   C630      1.0  0.05632  0.70671  0.97647  1.0000
  H   H499      1.0  0.08447  0.56014  0.66485  1.0000
  H   H500      1.0  0.37090  0.90076  0.72026  1.0000
  H   H501      1.0  0.23845  0.89251  0.72665  1.0000
  S   S92       1.0  0.39870  0.50536  0.72937  1.0000
  C   C631      1.0  0.31090  0.49306  0.70833  1.0000
  C   C632      1.0  0.00217  0.63369  0.69234  1.0000
  H   H502      1.0  0.01063  0.87632  0.82881  1.0000
  C   C633      1.0  0.34330  0.64048  0.73197  1.0000
  C   C634      1.0  0.35714  0.63376  0.75442  1.0000
  H   H503      1.0  0.41376  0.81335  0.72882  1.0000
  H   H504      1.0  0.34307  0.62356  0.71733  1.0000
  H   H505      1.0  0.36752  0.61173  0.75731  1.0000
  C   C635      1.0  0.33075  0.69116  0.74715  1.0000
  C   C636      1.0  0.41419  0.66255  0.70469  1.0000
  H   H506      1.0  0.32133  0.67417  0.71021  1.0000
  H   H507      1.0  0.36517  0.83061  0.74666  1.0000
  C   C637      1.0  0.34529  0.68429  0.76946  1.0000
  C   C638      1.0  0.35820  0.65572  0.77306  1.0000
  H   H508      1.0  0.36923  0.65068  0.79039  1.0000
  C   C639      1.0  0.02648  0.62243  0.67838  1.0000
  H   H509      1.0  0.31507  0.76766  0.69757  1.0000
  C   C640      1.0  0.25743  0.75323  0.81130  1.0000
  H   H510      1.0  0.24406  0.75800  0.82777  1.0000
  H   H511      1.0  0.19135  0.56170  0.69582  1.0000
  C   C641      1.0  0.03230  0.58733  0.79468  1.0000
  H   H512      1.0  0.42030  0.75894  0.71773  1.0000
  H   H513      1.0  0.26460  0.68962  0.72580  1.0000
  C   C642      1.0  0.38653  0.84485  0.67884  1.0000
  C   C643      1.0  0.25969  0.50121  0.69314  1.0000
  S   S93       1.0  0.44080  0.49401  0.68018  1.0000
  C   C644      1.0  0.26889  0.70666  0.71162  1.0000
  H   H514      1.0  0.33111  0.74907  0.79232  1.0000
  H   H515      1.0  0.30031  0.75923  0.82967  1.0000
  H   H516      1.0  0.41681  0.93411  0.83380  1.0000
  C   C645      1.0  0.28917  0.75393  0.81233  1.0000
  C   C646      1.0  0.29213  0.72873  0.71464  1.0000
  H   H517      1.0  0.19736  0.77376  0.96609  1.0000
  H   H518      1.0  0.34718  0.70087  0.78415  1.0000
  C   C647      1.0  0.30653  0.74760  0.79119  1.0000
  H   H519      1.0  0.40578  0.83468  0.66950  1.0000
  C   C648      1.0  0.29230  0.73940  0.76895  1.0000
  H   H520      1.0  0.21838  0.74615  0.78826  1.0000
  H   H521      1.0  0.02399  0.56433  0.79146  1.0000
  C   C649      1.0  0.45201  0.73954  0.96661  1.0000
  C   C650      1.0  0.34332  0.78622  0.74479  1.0000
  H   H522      1.0  0.37780  0.72203  0.72355  1.0000
  C   C651      1.0  0.25088  0.70662  0.69043  1.0000
  C   C652      1.0  0.34672  0.75538  0.73852  1.0000
  C   C653      1.0  0.25502  0.62303  0.66495  1.0000
  H   H523      1.0  0.14340  0.75025  0.71295  1.0000
  C   C654      1.0  0.36750  0.80694  0.74134  1.0000
  C   C655      1.0  0.37457  0.74567  0.72853  1.0000
  C   C656      1.0  0.26585  0.60687  0.68523  1.0000
  C   C657      1.0  0.26028  0.73943  0.76801  1.0000
  H   H524      1.0  0.24828  0.73411  0.75125  1.0000
  H   H525      1.0  0.41537  0.66841  0.72415  1.0000
  C   C658      1.0  0.39867  0.76652  0.72504  1.0000
  C   C659      1.0  0.39508  0.79714  0.73136  1.0000
  H   H526      1.0  0.02774  0.86088  0.75168  1.0000
  H   H527      1.0  0.30949  0.83916  0.68255  1.0000
  H   H528      1.0  0.26801  0.56356  0.70338  1.0000
  H   H529      1.0  0.42456  0.68086  0.97899  1.0000
  H   H530      1.0  0.19497  0.89882  0.69851  1.0000
  S   S94       1.0  0.04243  0.96013  0.73370  1.0000
  Fe  Fe48      1.0  0.03535  0.50576  0.68777  1.0000
  C   C660      1.0  0.25984  0.57555  0.68734  1.0000
  C   C661      1.0  0.40703  0.63268  0.69770  1.0000
  C   C662      1.0  0.12089  0.79041  0.70010  1.0000
  H   H531      1.0  0.42594  0.70774  0.69199  1.0000
  H   H532      1.0  0.27903  0.61851  0.69926  1.0000
  S   S95       1.0  0.07774  0.91265  0.67764  1.0000
  C   C663      1.0  0.27953  0.75001  0.67456  1.0000
  H   H533      1.0  0.10903  0.50822  0.69726  1.0000
  C   C664      1.0  0.46153  0.91634  0.82690  1.0000
  H   H534      1.0  0.33516  0.49794  0.70711  1.0000
  H   H535      1.0  0.47011  0.80781  0.86180  1.0000
  H   H536      1.0  0.00668  0.64374  0.71026  1.0000
  C   C665      1.0  0.44657  0.96793  0.81715  1.0000
  H   H537      1.0  0.37244  0.65947  0.97548  1.0000
  H   H538      1.0  0.05202  0.82792  0.94183  1.0000
  C   C666      1.0  0.13330  0.50994  0.69384  1.0000
  C   C667      1.0  0.48216  0.79542  0.82450  1.0000
  H   H539      1.0  0.35329  0.81568  0.66136  1.0000
  H   H540      1.0  0.99438  0.78931  0.89117  1.0000
  S   S96       1.0  0.38770  0.97882  0.66223  1.0000
  H   H541      1.0  0.47330  0.77227  0.82622  1.0000
  H   H542      1.0  0.98977  0.74628  0.70290  1.0000
  H   H543      1.0  0.28388  0.76652  0.66000  1.0000
  C   C668      1.0  0.47575  0.97417  0.80789  1.0000
  C   C669      1.0  0.08720  0.79954  0.95627  1.0000
  H   H544      1.0  0.29997  0.89709  0.66406  1.0000
  C   C670      1.0  0.48032  0.81541  0.84453  1.0000
  C   C671      1.0  0.40590  0.62481  0.67270  1.0000
  P   P21       1.0  0.13231  0.76184  0.97472  1.0000
  C   C672      1.0  0.47830  0.50008  0.80506  1.0000
  H   H545      1.0  0.42943  0.98543  0.81653  1.0000
  H   H546      1.0  0.07273  0.79106  0.97115  1.0000
  H   H547      1.0  0.99161  0.84563  0.89232  1.0000
  C   C673      1.0  0.99095  0.77051  0.97996  1.0000
  C   C674      1.0  0.08027  0.72569  0.96853  1.0000
  C   C675      1.0  0.48647  0.52914  0.81348  1.0000
  C   C676      1.0  0.17964  0.48779  0.67805  1.0000
  C   C677      1.0  0.10198  0.73658  0.98533  1.0000
  S   S97       1.0  0.54651  0.44770  0.18351  1.0000
  S   S98       1.0  0.96793  0.01604  0.18637  1.0000
  Fe  Fe49      1.0  0.54352  0.43843  0.22448  1.0000
  S   S99       1.0  0.58558  0.41769  0.24258  1.0000
  H   H548      1.0  0.90074  0.41473  0.12050  1.0000
  C   C678      1.0  0.83546  0.04244  0.15690  1.0000
  C   C679      1.0  0.97831  0.33713  0.18260  1.0000
  S   S100      1.0  0.90079  0.01800  0.21363  1.0000
  Fe  Fe50      1.0  0.93672  0.05200  0.20132  1.0000
  H   H549      1.0  0.90566  0.01923  0.14330  1.0000
  Fe  Fe51      1.0  0.92562  0.01669  0.24968  1.0000
  S   S101      1.0  0.90719  0.02503  0.28866  1.0000
  H   H550      1.0  0.77071  0.07261  0.13405  1.0000
  S   S102      1.0  0.92957  0.42395  0.23727  1.0000
  C   C680      1.0  0.82506  0.11881  0.03796  1.0000
  C   C681      1.0  0.64812  0.19784  0.30382  1.0000
  C   C682      1.0  0.72277  0.31180  0.32181  1.0000
  S   S103      1.0  0.51767  0.48148  0.23181  1.0000
  Fe  Fe52      1.0  0.92287  0.42871  0.19629  1.0000
  S   S104      1.0  0.89996  0.38733  0.17753  1.0000
  C   C683      1.0  0.79216  0.20401  0.28302  1.0000
  H   H551      1.0  0.83393  0.23871  0.11719  1.0000
  C   C684      1.0  0.64213  0.41645  0.30200  1.0000
  S   S105      1.0  0.51523  0.05397  0.24580  1.0000
  Fe  Fe53      1.0  0.52139  0.04897  0.20476  1.0000
  S   S106      1.0  0.54731  0.08893  0.18666  1.0000
  Fe  Fe54      1.0  0.53727  0.00854  0.24880  1.0000
  C   C685      1.0  0.59788  0.44495  0.31430  1.0000
  Fe  Fe55      1.0  0.58568  0.26214  0.07035  1.0000
  S   S107      1.0  0.60304  0.21865  0.08684  1.0000
  S   S108      1.0  0.59192  0.30554  0.09338  1.0000
  Fe  Fe56      1.0  0.56940  0.23083  0.02038  1.0000
  S   S109      1.0  0.58694  0.18580  0.03392  1.0000
  Fe  Fe57      1.0  0.56224  0.19632  0.06947  1.0000
  S   S110      1.0  0.52852  0.16192  0.08621  1.0000
  Fe  Fe58      1.0  0.62690  0.21200  0.05023  1.0000
  S   S111      1.0  0.67501  0.19156  0.04995  1.0000
  S   S112      1.0  0.54301  0.24045  0.05550  1.0000
  S   S113      1.0  0.61138  0.25647  0.03427  1.0000
  Fe  Fe59      1.0  0.85926  0.23947  0.04607  1.0000
  S   S114      1.0  0.89254  0.27405  0.02971  1.0000
  S   S115      1.0  0.80874  0.25311  0.04783  1.0000
  Fe  Fe60      1.0  0.91118  0.19819  0.06211  1.0000
  S   S116      1.0  0.94780  0.23007  0.04721  1.0000
  S   S117      1.0  0.92244  0.15083  0.07703  1.0000
  Fe  Fe61      1.0  0.91942  0.26735  0.06454  1.0000
  S   S118      1.0  0.94211  0.30806  0.08423  1.0000
  Fe  Fe62      1.0  0.91874  0.23468  0.01325  1.0000
  S   S119      1.0  0.88517  0.23497  0.08171  1.0000
  S   S120      1.0  0.88319  0.20061  0.02728  1.0000
  C   C686      1.0  0.71198  0.20921  0.04880  1.0000
  C   C687      1.0  0.73791  0.19066  0.04797  1.0000
  C   C688      1.0  0.76768  0.20347  0.04770  1.0000
  C   C689      1.0  0.77192  0.23517  0.04787  1.0000
  C   C690      1.0  0.74597  0.25370  0.04846  1.0000
  C   C691      1.0  0.71625  0.24089  0.04911  1.0000
  H   H552      1.0  0.73494  0.16615  0.04739  1.0000
  H   H553      1.0  0.78729  0.18884  0.04708  1.0000
  H   H554      1.0  0.74888  0.27824  0.04846  1.0000
  H   H555      1.0  0.69666  0.25553  0.04966  1.0000
  C   C692      1.0  0.59366  0.02404  0.29406  1.0000
  C   C693      1.0  0.69909  0.14803  0.13382  1.0000
  C   C694      1.0  0.62290  0.01929  0.30364  1.0000
  C   C695      1.0  0.74281  0.42566  0.12998  1.0000
  C   C696      1.0  0.54202  0.10803  0.15820  1.0000
  C   C697      1.0  0.56437  0.12916  0.15011  1.0000
  C   C698      1.0  0.56067  0.14579  0.12809  1.0000
  C   C699      1.0  0.53441  0.14154  0.11402  1.0000
  C   C700      1.0  0.51198  0.12055  0.12219  1.0000
  C   C701      1.0  0.51579  0.10379  0.14415  1.0000
  C   C702      1.0  0.57732  0.04938  0.30209  1.0000
  H   H556      1.0  0.57804  0.16195  0.12208  1.0000
  C   C703      1.0  0.71291  0.15662  0.11149  1.0000
  C   C704      1.0  0.93048  0.32900  0.11084  1.0000
  C   C705      1.0  0.90402  0.32158  0.12428  1.0000
  C   C706      1.0  0.89523  0.33953  0.14472  1.0000
  C   C707      1.0  0.91293  0.36485  0.15224  1.0000
  C   C708      1.0  0.93972  0.37191  0.13913  1.0000
  C   C709      1.0  0.94835  0.35413  0.11854  1.0000
  H   H557      1.0  0.89018  0.30221  0.11873  1.0000
  H   H558      1.0  0.87451  0.33381  0.15470  1.0000
  H   H559      1.0  0.95367  0.39119  0.14473  1.0000
  H   H560      1.0  0.77068  0.46989  0.24021  1.0000
  C   C710      1.0  0.85017  0.46114  0.28762  1.0000
  C   C711      1.0  0.77616  0.43646  0.09516  1.0000
  H   H561      1.0  0.79589  0.01147  0.28100  1.0000
  C   C712      1.0  0.86852  0.03002  0.29746  1.0000
  H   H562      1.0  0.76770  0.10383  0.07884  1.0000
  C   C713      1.0  0.92456  0.11369  0.15672  1.0000
  C   C714      1.0  0.91415  0.14337  0.15221  1.0000
  C   C715      1.0  0.91355  0.15530  0.12800  1.0000
  C   C716      1.0  0.92343  0.13760  0.10804  1.0000
  C   C717      1.0  0.93387  0.10797  0.11261  1.0000
  C   C718      1.0  0.93460  0.09612  0.13681  1.0000
  H   H563      1.0  0.49780  0.22290  0.09730  1.0000
  H   H564      1.0  0.90531  0.17806  0.12475  1.0000
  H   H565      1.0  0.94165  0.09416  0.09731  1.0000
  H   H566      1.0  0.94294  0.07341  0.14002  1.0000
  C   C719      1.0  0.60042  0.42366  0.27275  1.0000
  C   C720      1.0  0.52075  0.36105  0.13677  1.0000
  C   C721      1.0  0.98192  0.36406  0.19609  1.0000
  C   C722      1.0  0.53282  0.31828  0.10929  1.0000
  C   C723      1.0  0.56390  0.32564  0.11052  1.0000
  C   C724      1.0  0.57324  0.35036  0.12531  1.0000
  C   C725      1.0  0.55186  0.36785  0.13849  1.0000
  C   C726      1.0  0.84536  0.09306  0.14053  1.0000
  H   H567      1.0  0.52530  0.29925  0.09805  1.0000
  H   H568      1.0  0.59719  0.35625  0.12643  1.0000
  H   H569      1.0  0.55944  0.38686  0.14972  1.0000
  C   C727      1.0  0.84713  0.21777  0.15141  1.0000
  H   H570      1.0  0.54737  0.08531  0.01348  1.0000
  C   C728      1.0  0.53723  0.28042  0.19958  1.0000
  S   S121      1.0  0.89902  0.47381  0.20018  1.0000
  H   H571      1.0  0.83072  0.11634  0.01854  1.0000
  H   H572      1.0  0.85597  0.14557  0.09114  1.0000
  H   H573      1.0  0.71048  0.31149  0.25970  1.0000
  C   C729      1.0  0.68040  0.32683  0.10008  1.0000
  C   C730      1.0  0.68381  0.34087  0.07706  1.0000
  C   C731      1.0  0.71262  0.35077  0.06897  1.0000
  C   C732      1.0  0.73808  0.34669  0.08392  1.0000
  C   C733      1.0  0.73483  0.33269  0.10716  1.0000
  C   C734      1.0  0.70579  0.32258  0.11502  1.0000
  P   P22       1.0  0.76773  0.32462  0.12579  1.0000
  C   C735      1.0  0.76856  0.34658  0.15407  1.0000
  C   C736      1.0  0.76541  0.28438  0.13283  1.0000
  C   C737      1.0  0.75432  0.26394  0.11497  1.0000
  C   C738      1.0  0.75088  0.23297  0.12039  1.0000
  C   C739      1.0  0.75847  0.22209  0.14376  1.0000
  C   C740      1.0  0.76998  0.24216  0.16157  1.0000
  C   C741      1.0  0.77350  0.27323  0.15615  1.0000
  C   C742      1.0  0.74198  0.35927  0.16406  1.0000
  C   C743      1.0  0.74310  0.37566  0.18623  1.0000
  C   C744      1.0  0.77070  0.37946  0.19858  1.0000
  C   C745      1.0  0.79723  0.36689  0.18877  1.0000
  C   C746      1.0  0.79619  0.35051  0.16666  1.0000
  C   C747      1.0  0.80227  0.33294  0.10848  1.0000
  C   C748      1.0  0.81668  0.31009  0.09474  1.0000
  C   C749      1.0  0.84347  0.31669  0.08156  1.0000
  C   C750      1.0  0.85618  0.34604  0.08200  1.0000
  C   C751      1.0  0.84182  0.36904  0.09540  1.0000
  C   C752      1.0  0.81485  0.36261  0.10848  1.0000
  H   H574      1.0  0.65805  0.31869  0.10605  1.0000
  H   H575      1.0  0.66410  0.34355  0.06535  1.0000
  H   H576      1.0  0.71530  0.36101  0.05085  1.0000
  H   H577      1.0  0.76024  0.35383  0.07697  1.0000
  H   H578      1.0  0.70285  0.31074  0.13245  1.0000
  H   H579      1.0  0.74829  0.27194  0.09678  1.0000
  H   H580      1.0  0.74242  0.21757  0.10628  1.0000
  H   H581      1.0  0.75589  0.19806  0.14794  1.0000
  H   H582      1.0  0.77633  0.23358  0.17953  1.0000
  H   H583      1.0  0.78235  0.28835  0.17021  1.0000
  H   H584      1.0  0.72037  0.35674  0.15487  1.0000
  H   H585      1.0  0.72254  0.38544  0.19389  1.0000
  H   H586      1.0  0.77152  0.39212  0.21576  1.0000
  H   H587      1.0  0.81874  0.36981  0.19825  1.0000
  H   H588      1.0  0.81702  0.34080  0.15946  1.0000
  H   H589      1.0  0.80740  0.28715  0.09398  1.0000
  H   H590      1.0  0.85449  0.29891  0.07105  1.0000
  H   H591      1.0  0.87739  0.35072  0.07218  1.0000
  H   H592      1.0  0.85183  0.39174  0.09576  1.0000
  H   H593      1.0  0.80402  0.38071  0.11875  1.0000
  C   C753      1.0  0.80947  0.08363  0.25868  1.0000
  C   C754      1.0  0.81833  0.07169  0.23584  1.0000
  C   C755      1.0  0.84249  0.08522  0.22270  1.0000
  C   C756      1.0  0.85772  0.11072  0.23231  1.0000
  C   C757      1.0  0.84920  0.12267  0.25542  1.0000
  C   C758      1.0  0.82519  0.10859  0.26867  1.0000
  P   P23       1.0  0.86909  0.15496  0.26888  1.0000
  C   C759      1.0  0.84015  0.17702  0.28449  1.0000
  C   C760      1.0  0.89732  0.14260  0.29050  1.0000
  C   C761      1.0  0.54543  0.03577  0.07313  1.0000
  C   C762      1.0  0.91717  0.01384  0.12612  1.0000
  C   C763      1.0  0.80788  0.45406  0.31715  1.0000
  H   H594      1.0  0.96854  0.24461  0.26019  1.0000
  C   C764      1.0  0.91506  0.16452  0.30295  1.0000
  C   C765      1.0  0.81595  0.18900  0.27094  1.0000
  C   C766      1.0  0.64718  0.22921  0.29920  1.0000
  C   C767      1.0  0.89004  0.17656  0.24563  1.0000
  C   C768      1.0  0.91555  0.16350  0.23413  1.0000
  C   C769      1.0  0.93175  0.17937  0.21575  1.0000
  C   C770      1.0  0.92324  0.20880  0.20919  1.0000
  C   C771      1.0  0.89868  0.22250  0.22121  1.0000
  C   C772      1.0  0.88215  0.20651  0.23942  1.0000
  H   H595      1.0  0.79090  0.07306  0.26906  1.0000
  H   H596      1.0  0.80680  0.05167  0.22858  1.0000
  H   H597      1.0  0.84988  0.07571  0.20522  1.0000
  H   H598      1.0  0.87621  0.12058  0.22162  1.0000
  H   H599      1.0  0.81863  0.11666  0.28685  1.0000
  C   C773      1.0  0.61664  0.20703  0.17109  1.0000
  C   C774      1.0  0.90208  0.11154  0.29496  1.0000
  C   C775      1.0  0.55945  0.32540  0.02965  1.0000
  C   C776      1.0  0.55066  0.06743  0.07450  1.0000
  H   H600      1.0  0.91186  0.18859  0.29952  1.0000
  H   H601      1.0  0.81523  0.18618  0.25107  1.0000
  C   C777      1.0  0.78982  0.47065  0.20331  1.0000
  H   H602      1.0  0.92258  0.14065  0.23894  1.0000
  H   H603      1.0  0.95065  0.16852  0.20636  1.0000
  H   H604      1.0  0.93574  0.22096  0.19480  1.0000
  H   H605      1.0  0.89244  0.24554  0.21637  1.0000
  H   H606      1.0  0.86354  0.21778  0.24864  1.0000
  C   C778      1.0  0.65160  0.29697  0.27090  1.0000
  C   C779      1.0  0.63620  0.32448  0.26732  1.0000
  C   C780      1.0  0.62329  0.33113  0.24445  1.0000
  C   C781      1.0  0.62530  0.31029  0.22501  1.0000
  C   C782      1.0  0.64054  0.28287  0.22834  1.0000
  C   C783      1.0  0.65394  0.27636  0.25108  1.0000
  C   C784      1.0  0.81552  0.19410  0.32242  1.0000
  H   H607      1.0  0.63422  0.34113  0.28192  1.0000
  H   H608      1.0  0.61164  0.35256  0.24184  1.0000
  H   H609      1.0  0.61494  0.31543  0.20740  1.0000
  H   H610      1.0  0.64211  0.26677  0.21320  1.0000
  H   H611      1.0  0.66631  0.25536  0.25309  1.0000
  H   H612      1.0  0.81036  0.19201  0.10037  1.0000
  H   H613      1.0  0.64167  0.05630  0.16073  1.0000
  H   H614      1.0  0.58463  0.13275  0.16100  1.0000
  S   S122      1.0  0.50121  0.40930  0.22115  1.0000
  C   C785      1.0  0.84632  0.13173  0.05404  1.0000
  H   H615      1.0  0.84784  0.41269  0.22824  1.0000
  C   C786      1.0  0.79671  0.10890  0.04700  1.0000
  H   H616      1.0  0.51105  0.31568  0.28974  1.0000
  C   C787      1.0  0.74391  0.15145  0.10753  1.0000
  H   H617      1.0  0.86154  0.11117  0.13616  1.0000
  H   H618      1.0  0.70573  0.12828  0.16977  1.0000
  C   C788      1.0  0.71638  0.13457  0.15232  1.0000
  H   H619      1.0  0.49636  0.06084  0.09736  1.0000
  S   S123      1.0  0.57785  0.99713  0.27302  1.0000
  C   C789      1.0  0.81442  0.09613  0.13497  1.0000
  H   H620      1.0  0.85816  0.23825  0.15838  1.0000
  H   H621      1.0  0.87737  0.42148  0.28130  1.0000
  C   C790      1.0  0.79435  0.07145  0.13937  1.0000
  H   H622      1.0  0.64150  0.39912  0.26466  1.0000
  C   C791      1.0  0.89345  0.43699  0.12655  1.0000
  C   C792      1.0  0.85805  0.43068  0.29116  1.0000
  H   H623      1.0  0.55508  0.10965  0.05439  1.0000
  H   H624      1.0  0.61348  0.98997  0.22452  1.0000
  C   C793      1.0  0.79654  0.45159  0.11084  1.0000
  C   C794      1.0  0.62906  0.41169  0.27855  1.0000
  H   H625      1.0  0.90626  0.15711  0.16748  1.0000
  H   H626      1.0  0.62657  0.23882  0.29186  1.0000
  C   C795      1.0  0.51667  0.21425  0.19945  1.0000
  C   C796      1.0  0.84454  0.01834  0.28335  1.0000
  H   H627      1.0  0.84939  0.00652  0.26626  1.0000
  C   C797      1.0  0.84635  0.19113  0.16559  1.0000
  H   H628      1.0  0.86861  0.13875  0.04717  1.0000
  C   C798      1.0  0.70760  0.30627  0.29951  1.0000
  C   C799      1.0  0.49088  0.16492  0.22584  1.0000
  P   P24       1.0  0.80133  0.13060  0.12052  1.0000
  C   C800      1.0  0.83289  0.43781  0.19647  1.0000
  H   H629      1.0  0.95780  0.32336  0.18491  1.0000
  S   S124      1.0  0.49289  0.38263  0.15284  1.0000
  C   C801      1.0  0.83243  0.16463  0.15638  1.0000
  C   C802      1.0  0.72163  0.31528  0.27718  1.0000
  C   C803      1.0  0.75014  0.33005  0.27732  1.0000
  H   H630      1.0  0.76063  0.33760  0.26016  1.0000
  C   C804      1.0  0.49362  0.23591  0.11401  1.0000
  P   P25       1.0  0.66996  0.28892  0.30002  1.0000
  H   H631      1.0  0.65223  0.22114  0.14562  1.0000
  H   H632      1.0  0.49824  0.08800  0.15046  1.0000
  Fe  Fe63      1.0  0.90871  0.47003  0.24077  1.0000
  C   C805      1.0  0.80482  0.04480  0.15049  1.0000
  H   H633      1.0  0.69963  0.16745  0.09719  1.0000
  C   C806      1.0  0.83378  0.21797  0.12809  1.0000
  H   H634      1.0  0.67501  0.15200  0.13675  1.0000
  P   P26       1.0  0.53297  0.24563  0.18186  1.0000
  C   C807      1.0  0.82039  0.19137  0.11860  1.0000
  H   H635      1.0  0.75438  0.15911  0.09043  1.0000
  C   C808      1.0  0.80750  0.03661  0.31392  1.0000
  H   H636      1.0  0.81701  0.46196  0.10302  1.0000
  H   H637      1.0  0.66443  0.40768  0.30598  1.0000
  H   H638      1.0  0.55804  0.30561  0.25679  1.0000
  C   C809      1.0  0.54720  0.27946  0.22416  1.0000
  C   C810      1.0  0.69927  0.20371  0.31943  1.0000
  C   C811      1.0  0.61383  0.25095  0.14421  1.0000
  H   H639      1.0  0.78655  0.34794  0.30000  1.0000
  C   C812      1.0  0.93659  0.15550  0.32024  1.0000
  C   C813      1.0  0.81990  0.16439  0.13258  1.0000
  H   H640      1.0  0.87945  0.06476  0.15671  1.0000
  C   C814      1.0  0.85568  0.06654  0.15182  1.0000
  C   C815      1.0  0.57091  0.23755  0.17090  1.0000
  H   H641      1.0  0.62378  0.26552  0.12999  1.0000
  C   C816      1.0  0.78783  0.46076  0.22785  1.0000
  H   H642      1.0  0.51852  0.37174  0.29347  1.0000
  C   C817      1.0  0.76326  0.44054  0.14575  1.0000
  H   H643      1.0  0.76060  0.11925  0.16299  1.0000
  H   H644      1.0  0.95849  0.99369  0.06477  1.0000
  C   C818      1.0  0.76120  0.13689  0.12561  1.0000
  C   C819      1.0  0.81023  0.12661  0.08809  1.0000
  H   H645      1.0  0.97038  0.21627  0.29976  1.0000
  C   C820      1.0  0.67241  0.24811  0.30455  1.0000
  C   C821      1.0  0.83118  0.42837  0.22113  1.0000
  H   H646      1.0  0.57777  0.19810  0.19430  1.0000
  C   C822      1.0  0.74740  0.12923  0.14833  1.0000
  C   C823      1.0  0.54684  0.07146  0.03006  1.0000
  H   H647      1.0  0.85065  0.42874  0.18482  1.0000
  C   C824      1.0  0.49378  0.33087  0.28301  1.0000
  C   C825      1.0  0.58448  0.25669  0.15304  1.0000
  C   C826      1.0  0.58997  0.06956  0.31963  1.0000
  H   H648      1.0  0.73326  0.41225  0.09253  1.0000
  C   C827      1.0  0.81607  0.42373  0.32097  1.0000
  H   H649      1.0  0.84934  0.42077  0.13824  1.0000
  H   H650      1.0  0.54809  0.35559  0.23713  1.0000
  H   H651      1.0  0.93653  0.45885  0.11805  1.0000
  H   H652      1.0  0.96444  0.37093  0.20913  1.0000
  C   C828      1.0  0.58740  0.21294  0.18021  1.0000
  C   C829      1.0  0.80861  0.43976  0.23679  1.0000
  H   H653      1.0  0.57222  0.27587  0.14564  1.0000
  H   H654      1.0  0.58346  0.33106  0.03124  1.0000
  C   C830      1.0  0.62981  0.22596  0.15303  1.0000
  H   H655      1.0  0.49882  0.24183  0.22943  1.0000
  H   H656      1.0  0.54925  0.02463  0.15481  1.0000
  H   H657      1.0  0.55253  0.25793  0.23276  1.0000
  H   H658      1.0  0.55473  0.05320  0.29505  1.0000
  C   C831      1.0  0.58476  0.44011  0.29086  1.0000
  C   C832      1.0  0.84115  0.41217  0.30779  1.0000
  C   C833      1.0  0.54514  0.33458  0.22672  1.0000
  H   H659      1.0  0.88915  0.09406  0.28534  1.0000
  C   C834      1.0  0.69836  0.23513  0.31502  1.0000
  C   C835      1.0  0.62668  0.43329  0.32001  1.0000
  H   H660      1.0  0.80749  0.43264  0.25596  1.0000
  H   H661      1.0  0.78033  0.09863  0.03455  1.0000
  C   C836      1.0  0.85459  0.46936  0.14442  1.0000
  H   H662      1.0  0.62890  0.18753  0.17786  1.0000
  C   C837      1.0  0.78951  0.11223  0.07208  1.0000
  C   C838      1.0  0.51704  0.18466  0.18950  1.0000
  H   H663      1.0  0.52726  0.18039  0.17154  1.0000
  C   C839      1.0  0.50158  0.21911  0.22210  1.0000
  C   C840      1.0  0.98368  0.20864  0.28406  1.0000
  H   H664      1.0  0.83177  0.14438  0.16781  1.0000
  H   H665      1.0  0.49468  0.24246  0.01937  1.0000
  C   C841      1.0  0.53303  0.30889  0.18836  1.0000
  C   C842      1.0  0.82493  0.47266  0.30063  1.0000
  H   H666      1.0  0.85683  0.19087  0.18363  1.0000
  H   H667      1.0  0.64862  0.05102  0.11531  1.0000
  C   C843      1.0  0.76487  0.33573  0.29968  1.0000
  H   H668      1.0  0.67471  0.16084  0.31789  1.0000
  C   C844      1.0  0.81266  0.45954  0.18748  1.0000
  H   H669      1.0  0.62852  0.18336  0.29992  1.0000
  H   H670      1.0  0.78924  0.02589  0.15404  1.0000
  C   C845      1.0  0.86422  0.44057  0.13646  1.0000
  H   H671      1.0  0.54697  0.34933  0.06277  1.0000
  H   H672      1.0  0.75771  0.44201  0.16522  1.0000
  C   C846      1.0  0.91359  0.46187  0.12506  1.0000
  H   H673      1.0  0.89250  0.04631  0.10446  1.0000
  C   C847      1.0  0.50428  0.16016  0.20271  1.0000
  H   H674      1.0  0.56275  0.44949  0.28671  1.0000
  S   S125      1.0  0.96870  0.45106  0.19003  1.0000
  P   P27       1.0  0.81628  0.47410  0.15627  1.0000
  C   C848      1.0  0.55056  0.30642  0.23779  1.0000
  C   C849      1.0  0.54912  0.30767  0.00995  1.0000
  C   C850      1.0  0.83902  0.13561  0.07901  1.0000
  C   C851      1.0  0.50823  0.25011  0.15571  1.0000
  H   H675      1.0  0.53285  0.21858  0.13217  1.0000
  S   S126      1.0  0.54593  0.00441  0.20796  1.0000
  C   C852      1.0  0.54153  0.03999  0.02852  1.0000
  S   S127      1.0  0.92331  0.09922  0.18736  1.0000
  C   C853      1.0  0.51830  0.29951  0.00837  1.0000
  H   H676      1.0  0.53794  0.02942  0.01067  1.0000
  C   C854      1.0  0.53887  0.33550  0.04752  1.0000
  C   C855      1.0  0.51355  0.23359  0.13388  1.0000
  C   C856      1.0  0.74927  0.42357  0.10473  1.0000
  H   H677      1.0  0.84365  0.02190  0.16563  1.0000
  H   H678      1.0  0.55385  0.07857  0.09222  1.0000
  H   H679      1.0  0.50485  0.13733  0.19507  1.0000
  C   C857      1.0  0.63577  0.03982  0.32085  1.0000
  H   H680      1.0  0.96897  0.35997  0.10842  1.0000
  H   H681      1.0  0.60624  0.03215  0.08965  1.0000
  C   C858      1.0  0.49797  0.36241  0.28523  1.0000
  H   H682      1.0  0.97868  0.05573  0.30137  1.0000
  H   H683      1.0  0.59220  0.04266  0.18020  1.0000
  C   C859      1.0  0.53672  0.33579  0.20194  1.0000
  C   C860      1.0  0.59530  0.03991  0.16044  1.0000
  C   C861      1.0  0.83945  0.17928  0.31042  1.0000
  S   S128      1.0  0.95957  0.05289  0.23824  1.0000
  C   C862      1.0  0.75133  0.32629  0.32186  1.0000
  C   C863      1.0  0.79039  0.45349  0.13632  1.0000
  C   C864      1.0  0.55132  0.08517  0.05307  1.0000
  C   C865      1.0  0.81425  0.02111  0.29180  1.0000
  H   H684      1.0  0.72177  0.41596  0.13731  1.0000
  Fe  Fe64      1.0  0.97473  0.44864  0.23159  1.0000
  C   C866      1.0  0.67415  0.18510  0.31394  1.0000
  H   H685      1.0  0.78112  0.43499  0.07555  1.0000
  C   C867      1.0  0.51137  0.33616  0.12210  1.0000
  H   H686      1.0  0.62617  0.47614  0.24275  1.0000
  Fe  Fe65      1.0  0.50287  0.42092  0.18069  1.0000
  H   H687      1.0  0.48738  0.33069  0.12066  1.0000
  H   H688      1.0  0.63569  0.99975  0.29760  1.0000
  H   H689      1.0  0.77350  0.21313  0.27252  1.0000
  H   H690      1.0  0.53329  0.35766  0.19312  1.0000
  H   H691      1.0  0.66376  0.35185  0.31713  1.0000
  H   H692      1.0  0.85666  0.16880  0.32162  1.0000
  H   H693      1.0  0.92739  0.07861  0.31549  1.0000
  C   C868      1.0  0.62322  0.04768  0.14944  1.0000
  C   C869      1.0  0.92386  0.10264  0.31209  1.0000
  H   H694      1.0  0.84775  0.38878  0.31065  1.0000
  H   H695      1.0  0.98450  0.46853  0.30986  1.0000
  C   C870      1.0  0.79199  0.20660  0.30876  1.0000
  H   H696      1.0  0.71773  0.24911  0.32028  1.0000
  H   H697      1.0  0.77337  0.21771  0.31829  1.0000
  C   C871      1.0  0.86179  0.04499  0.31983  1.0000
  H   H698      1.0  0.52729  0.31049  0.16903  1.0000
  H   H699      1.0  0.49024  0.19097  0.03728  1.0000
  C   C872      1.0  0.54071  0.02216  0.04999  1.0000
  H   H700      1.0  0.63019  0.99038  0.18058  1.0000
  H   H701      1.0  0.49299  0.33533  0.06041  1.0000
  C   C873      1.0  0.98272  0.22469  0.26178  1.0000
  C   C874      1.0  0.62707  0.04477  0.12392  1.0000
  C   C875      1.0  0.57095  0.02968  0.14598  1.0000
  C   C876      1.0  0.90971  0.02884  0.10427  1.0000
  S   S129      1.0  0.87077  0.48539  0.26687  1.0000
  C   C877      1.0  0.93996  0.99199  0.12603  1.0000
  C   C878      1.0  0.57459  0.02683  0.12035  1.0000
  P   P28       1.0  0.54360  0.01361  0.10126  1.0000
  C   C879      1.0  0.60291  0.03425  0.10942  1.0000
  H   H702      1.0  0.53642  0.99789  0.04842  1.0000
  H   H703      1.0  0.91901  0.03325  0.06531  1.0000
  C   C880      1.0  0.92474  0.02152  0.08223  1.0000
  C   C881      1.0  0.94732  0.99931  0.08206  1.0000
  C   C882      1.0  0.50691  0.01857  0.11606  1.0000
  H   H704      1.0  0.49146  0.11737  0.11155  1.0000
  C   C883      1.0  0.49747  0.30886  0.02659  1.0000
  C   C884      1.0  0.49569  0.99650  0.13276  1.0000
  C   C885      1.0  0.50805  0.32726  0.04610  1.0000
  H   H705      1.0  0.77385  0.48736  0.19684  1.0000
  H   H706      1.0  0.56509  0.29971  0.99607  1.0000
  C   C886      1.0  0.48850  0.04337  0.11003  1.0000
  C   C887      1.0  0.48943  0.19441  0.23549  1.0000
  S   S130      1.0  0.76887  0.03956  0.32343  1.0000
  H   H707      1.0  0.51089  0.28551  0.99301  1.0000
  Fe  Fe66      1.0  0.74763  0.06817  0.35431  1.0000
  S   S131      1.0  0.70833  0.04716  0.37603  1.0000
  H   H708      1.0  0.63183  0.07843  0.40501  1.0000
  Fe  Fe67      1.0  0.73665  0.13229  0.37577  1.0000
  S   S132      1.0  0.69689  0.11550  0.39867  1.0000
  S   S133      1.0  0.75615  0.18127  0.37313  1.0000
  Fe  Fe68      1.0  0.72535  0.07459  0.40848  1.0000
  S   S134      1.0  0.72450  0.06131  0.45005  1.0000
  Fe  Fe69      1.0  0.68297  0.08890  0.36481  1.0000
  S   S135      1.0  0.63402  0.09073  0.35143  1.0000
  S   S136      1.0  0.76658  0.09315  0.38741  1.0000
  S   S137      1.0  0.72081  0.10837  0.34139  1.0000
  Fe  Fe70      1.0  0.72192  0.42082  0.41569  1.0000
  S   S138      1.0  0.67874  0.39656  0.40352  1.0000
  S   S139      1.0  0.72561  0.43640  0.45700  1.0000
  Fe  Fe71      1.0  0.75287  0.40610  0.36517  1.0000
  S   S140      1.0  0.71128  0.38200  0.35032  1.0000
  H   H709      1.0  0.93956  0.43651  0.57342  1.0000
  Fe  Fe72      1.0  0.68506  0.42041  0.36690  1.0000
  S   S141      1.0  0.64265  0.44120  0.34953  1.0000
  Fe  Fe73      1.0  0.70794  0.35937  0.38748  1.0000
  S   S142      1.0  0.69106  0.30952  0.39090  1.0000
  S   S143      1.0  0.72694  0.44687  0.37957  1.0000
  S   S144      1.0  0.75071  0.38151  0.40194  1.0000
  C   C888      1.0  0.73750  0.21687  0.37708  1.0000
  C   C889      1.0  0.70597  0.21872  0.38022  1.0000
  C   C890      1.0  0.69219  0.24725  0.38408  1.0000
  C   C891      1.0  0.70965  0.27441  0.38452  1.0000
  C   C892      1.0  0.74113  0.27268  0.38059  1.0000
  C   C893      1.0  0.75493  0.24409  0.37699  1.0000
  H   H710      1.0  0.69219  0.19813  0.37957  1.0000
  H   H711      1.0  0.66782  0.24827  0.38683  1.0000
  H   H712      1.0  0.75493  0.29331  0.38087  1.0000
  H   H713      1.0  0.77934  0.24307  0.37444  1.0000
  C   C894      1.0  0.73964  0.25149  0.45437  1.0000
  C   C895      1.0  0.61926  0.06496  0.32905  1.0000
  C   C896      1.0  0.72763  0.46595  0.50254  1.0000
  C   C897      1.0  0.69086  0.23147  0.54680  1.0000
  H   H714      1.0  0.72660  0.44316  0.51006  1.0000
  H   H715      1.0  0.83196  0.98816  0.61283  1.0000
  C   C898      1.0  0.72839  0.02704  0.46778  1.0000
  H   H716      1.0  0.63184  0.26274  0.34055  1.0000
  C   C899      1.0  0.75544  0.18107  0.43915  1.0000
  H   H717      1.0  0.59744  0.07294  0.56098  1.0000
  C   C900      1.0  0.79002  0.43011  0.52866  1.0000
  H   H718      1.0  0.65203  0.20264  0.53893  1.0000
  C   C901      1.0  0.96368  0.03873  0.64827  1.0000
  H   H719      1.0  0.96041  0.09130  0.53764  1.0000
  H   H720      1.0  0.59893  0.12099  0.53749  1.0000
  C   C902      1.0  0.74485  0.30322  0.43858  1.0000
  H   H721      1.0  0.84170  0.46544  0.49090  1.0000
  H   H722      1.0  0.72369  0.05065  0.50250  1.0000
  S   S145      1.0  0.79625  0.39930  0.34209  1.0000
  C   C903      1.0  0.68005  0.21002  0.50652  1.0000
  H   H723      1.0  0.74567  0.11387  0.48521  1.0000
  C   C904      1.0  0.64416  0.47177  0.49903  1.0000
  H   H724      1.0  0.95391  0.44996  0.61638  1.0000
  H   H725      1.0  0.73147  0.25945  0.54907  1.0000
  C   C905      1.0  0.93957  0.05828  0.59228  1.0000
  H   H726      1.0  0.57698  0.08889  0.32588  1.0000
  H   H727      1.0  0.94981  0.17245  0.33019  1.0000
  C   C906      1.0  0.72487  0.24207  0.51225  1.0000
  H   H728      1.0  0.78420  0.15098  0.41835  1.0000
  P   P29       1.0  0.63321  0.01611  0.55629  1.0000
  H   H729      1.0  0.81409  0.27525  0.45315  1.0000
  H   H730      1.0  0.69531  0.04316  0.55457  1.0000
  H   H731      1.0  0.58410  0.99861  0.38699  1.0000
  H   H732      1.0  0.66902  0.03801  0.51425  1.0000
  H   H733      1.0  0.69300  0.17478  0.42786  1.0000
  C   C907      1.0  0.59832  0.01043  0.57388  1.0000
  C   C908      1.0  0.61695  0.30054  0.36219  1.0000
  H   H734      1.0  0.92820  0.06396  0.60948  1.0000
  C   C909      1.0  0.68506  0.00279  0.61784  1.0000
  C   C910      1.0  0.72671  0.02870  0.49379  1.0000
  H   H735      1.0  0.66657  0.43532  0.53496  1.0000
  H   H736      1.0  0.63070  0.03244  0.37904  1.0000
  C   C911      1.0  0.63675  0.05649  0.41316  1.0000
  C   C912      1.0  0.71194  0.01888  0.61231  1.0000
  H   H737      1.0  0.55009  0.41246  0.58588  1.0000
  C   C913      1.0  0.63065  0.23524  0.43795  1.0000
  H   H738      1.0  0.78637  0.40766  0.63972  1.0000
  H   H739      1.0  0.88083  0.01297  0.62381  1.0000
  C   C914      1.0  0.70633  0.22431  0.49670  1.0000
  H   H740      1.0  0.71172  0.41719  0.55667  1.0000
  H   H741      1.0  0.63588  0.37491  0.35189  1.0000
  H   H742      1.0  0.73037  0.01946  0.62550  1.0000
  H   H743      1.0  0.66557  0.19600  0.49490  1.0000
  C   C915      1.0  0.93145  0.45528  0.60960  1.0000
  C   C916      1.0  0.65803  0.23783  0.45083  1.0000
  H   H744      1.0  0.58968  0.42730  0.55523  1.0000
  H   H745      1.0  0.60486  0.28627  0.37543  1.0000
  H   H746      1.0  0.74530  0.25324  0.50522  1.0000
  C   C917      1.0  0.63489  0.10686  0.51289  1.0000
  C   C918      1.0  0.77136  0.25093  0.45770  1.0000
  H   H747      1.0  0.78869  0.46329  0.32716  1.0000
  C   C919      1.0  0.77113  0.45356  0.64560  1.0000
  C   C920      1.0  0.67359  0.44681  0.55168  1.0000
  H   H748      1.0  0.82660  0.06045  0.34498  1.0000
  H   H749      1.0  0.73451  0.32340  0.43096  1.0000
  C   C921      1.0  0.65464  0.08343  0.50644  1.0000
  C   C922      1.0  0.59306  0.47407  0.56777  1.0000
  H   H750      1.0  0.82117  0.42169  0.60524  1.0000
  P   P30       1.0  0.71613  0.21947  0.46448  1.0000
  H   H751      1.0  0.76254  0.33124  0.33923  1.0000
  H   H752      1.0  0.81471  0.19525  0.34246  1.0000
  H   H753      1.0  0.60469  0.20896  0.41162  1.0000
  H   H754      1.0  0.78206  0.23108  0.46547  1.0000
  C   C923      1.0  0.61436  0.10288  0.53258  1.0000
  C   C924      1.0  0.62576  0.21083  0.42180  1.0000
  H   H755      1.0  0.66129  0.25670  0.46349  1.0000
  C   C925      1.0  0.73378  0.16040  0.47703  1.0000
  C   C926      1.0  0.69161  0.47405  0.59597  1.0000
  C   C927      1.0  0.77636  0.30219  0.44137  1.0000
  C   C928      1.0  0.81012  0.46958  0.60616  1.0000
  H   H756      1.0  0.63546  0.12802  0.50256  1.0000
  C   C929      1.0  0.63591  0.03028  0.39849  1.0000
  H   H757      1.0  0.71934  0.16227  0.49321  1.0000
  C   C930      1.0  0.80773  0.43915  0.61411  1.0000
  H   H758      1.0  0.77800  0.10803  0.44798  1.0000
  C   C931      1.0  0.71550  0.03316  0.58937  1.0000
  C   C932      1.0  0.63345  0.05190  0.53961  1.0000
  C   C933      1.0  0.77405  0.48397  0.63820  1.0000
  C   C934      1.0  0.67236  0.21364  0.53147  1.0000
  H   H759      1.0  0.64697  0.07511  0.44894  1.0000
  H   H760      1.0  0.60667  0.34241  0.38123  1.0000
  C   C935      1.0  0.74876  0.13296  0.47267  1.0000
  C   C936      1.0  0.63240  0.28727  0.34228  1.0000
  H   H761      1.0  0.60586  0.00703  0.50794  1.0000
  H   H762      1.0  0.73668  0.04491  0.58481  1.0000
  C   C937      1.0  0.66168  0.00107  0.60052  1.0000
  H   H763      1.0  0.93555  0.10373  0.57767  1.0000
  C   C938      1.0  0.65375  0.05605  0.51962  1.0000
  H   H764      1.0  0.70239  0.27942  0.44187  1.0000
  C   C939      1.0  0.78962  0.27605  0.45098  1.0000
  C   C940      1.0  0.66451  0.01646  0.57782  1.0000
  C   C941      1.0  0.96727  0.04417  0.54705  1.0000
  H   H765      1.0  0.67070  0.08636  0.49121  1.0000
  C   C942      1.0  0.95008  0.02865  0.58802  1.0000
  C   C943      1.0  0.64513  0.05459  0.43792  1.0000
  C   C944      1.0  0.65758  0.47199  0.56086  1.0000
  H   H766      1.0  0.60937  0.04511  0.60101  1.0000
  C   C945      1.0  0.59165  0.45709  0.50720  1.0000
  C   C946      1.0  0.64823  0.18897  0.41856  1.0000
  C   C947      1.0  0.77048  0.15369  0.43494  1.0000
  C   C948      1.0  0.61942  0.46933  0.51558  1.0000
  C   C949      1.0  0.71710  0.24564  0.53719  1.0000
  C   C950      1.0  0.73707  0.18469  0.46027  1.0000
  H   H767      1.0  0.57169  0.45662  0.51903  1.0000
  C   C951      1.0  0.61801  0.33213  0.36553  1.0000
  H   H768      1.0  0.75769  0.19918  0.42563  1.0000
  H   H769      1.0  0.68487  0.23431  0.56613  1.0000
  C   C952      1.0  0.67580  0.19172  0.43116  1.0000
  H   H770      1.0  0.79040  0.32164  0.43595  1.0000
  H   H771      1.0  0.61278  0.43858  0.44832  1.0000
  C   C953      1.0  0.72931  0.00235  0.50872  1.0000
  C   C954      1.0  0.54710  0.99839  0.60403  1.0000
  C   C955      1.0  0.94349  0.01500  0.64173  1.0000
  C   C956      1.0  0.69191  0.03199  0.57218  1.0000
  H   H772      1.0  0.64463  0.17016  0.40583  1.0000
  H   H773      1.0  0.61333  0.25234  0.44035  1.0000
  C   C957      1.0  0.68109  0.21638  0.44722  1.0000
  C   C958      1.0  0.61361  0.07552  0.54593  1.0000
  C   C959      1.0  0.83042  0.45831  0.50788  1.0000
  C   C960      1.0  0.76706  0.12960  0.45163  1.0000
  C   C961      1.0  0.72656  0.27801  0.44492  1.0000
  C   C962      1.0  0.61447  0.44727  0.46703  1.0000
  H   H774      1.0  0.71219  0.30554  0.33924  1.0000
  H   H775      1.0  0.78665  0.43578  0.56775  1.0000
  C   C963      1.0  0.94348  0.08083  0.57421  1.0000
  H   H776      1.0  0.79672  0.43071  0.48917  1.0000
  C   C964      1.0  0.79980  0.44155  0.55143  1.0000
  C   C965      1.0  0.63458  0.35047  0.34902  1.0000
  C   C966      1.0  0.58133  0.44413  0.56817  1.0000
  C   C967      1.0  0.72730  0.46972  0.47662  1.0000
  C   C968      1.0  0.80512  0.43868  0.50688  1.0000
  C   C969      1.0  0.84048  0.46955  0.53062  1.0000
  C   C970      1.0  0.56770  0.02157  0.61041  1.0000
  C   C971      1.0  0.82536  0.46117  0.55265  1.0000
  H   H777      1.0  0.52773  0.99329  0.61599  1.0000
  H   H778      1.0  0.77008  0.41534  0.52773  1.0000
  H   H779      1.0  0.72827  0.00417  0.52862  1.0000
  C   C972      1.0  0.89439  0.45487  0.57661  1.0000
  C   C973      1.0  0.65266  0.02643  0.44807  1.0000
  H   H780      1.0  0.56426  0.03429  0.62736  1.0000
  C   C974      1.0  0.65178  0.00016  0.43345  1.0000
  C   C975      1.0  0.73274  0.99845  0.45692  1.0000
  H   H781      1.0  0.72782  0.44158  0.59604  1.0000
  C   C976      1.0  0.78812  0.43115  0.63365  1.0000
  C   C977      1.0  0.59316  0.02764  0.59540  1.0000
  C   C978      1.0  0.95744  0.07382  0.55164  1.0000
  C   C979      1.0  0.69908  0.43613  0.56417  1.0000
  H   H782      1.0  0.66127  0.46186  0.46249  1.0000
  C   C980      1.0  0.70815  0.44981  0.58628  1.0000
  H   H783      1.0  0.97776  0.03865  0.52944  1.0000
  H   H784      1.0  0.95759  0.11751  0.33823  1.0000
  C   C981      1.0  0.96341  0.02158  0.56510  1.0000
  H   H785      1.0  0.65843  0.03624  0.32782  1.0000
  H   H786      1.0  0.66057  0.02517  0.46692  1.0000
  C   C982      1.0  0.64182  0.46038  0.47500  1.0000
  H   H787      1.0  0.88013  0.05364  0.33113  1.0000
  H   H788      1.0  0.56793  0.43629  0.47662  1.0000
  C   C983      1.0  0.64261  0.00178  0.40869  1.0000
  C   C984      1.0  0.65027  0.33728  0.32925  1.0000
  H   H789      1.0  0.88860  0.44875  0.55788  1.0000
  C   C985      1.0  0.55915  0.43556  0.58567  1.0000
  C   C986      1.0  0.83143  0.04876  0.32782  1.0000
  H   H790      1.0  0.71919  0.19378  0.32774  1.0000
  C   C987      1.0  0.58931  0.44586  0.48305  1.0000
  H   H791      1.0  0.73423  0.99669  0.43702  1.0000
  C   C988      1.0  0.54908  0.45663  0.60322  1.0000
  H   H792      1.0  0.54418  0.99873  0.35538  1.0000
  H   H793      1.0  0.68263  0.99085  0.63528  1.0000
  C   C989      1.0  0.92333  0.44777  0.58540  1.0000
  H   H794      1.0  0.53215  0.44995  0.61697  1.0000
  C   C990      1.0  0.62130  0.98844  0.51110  1.0000
  C   C991      1.0  0.88091  0.99324  0.61181  1.0000
  H   H795      1.0  0.58574  0.45804  0.32805  1.0000
  H   H796      1.0  0.69797  0.48418  0.61348  1.0000
  P   P31       1.0  0.94432  0.99928  0.61094  1.0000
  H   H797      1.0  0.97937  0.04845  0.63478  1.0000
  H   H798      1.0  0.97071  0.99860  0.56114  1.0000
  P   P32       1.0  0.62316  0.48473  0.54638  1.0000
  H   H799      1.0  0.66532  0.48255  0.50468  1.0000
  C   C992      1.0  0.87342  0.46965  0.59204  1.0000
  P   P33       1.0  0.83602  0.47962  0.58131  1.0000
  C   C993      1.0  0.66668  0.48536  0.58319  1.0000
  C   C994      1.0  0.56138  0.48617  0.60344  1.0000
  H   H800      1.0  0.91683  0.47561  0.64393  1.0000
  C   C995      1.0  0.88166  0.47676  0.61645  1.0000
  C   C996      1.0  0.91058  0.46971  0.62513  1.0000
  C   C997      1.0  0.94096  0.12456  0.32483  1.0000
  H   H801      1.0  0.85943  0.48566  0.53096  1.0000
  C   C998      1.0  0.64906  0.30561  0.32551  1.0000
  H   H802      1.0  0.63188  0.40508  0.83086  1.0000
  C   C999      1.0  0.97831  0.07591  0.81158  1.0000
  C   C1000     1.0  0.96668  0.23360  0.95203  1.0000
  C   C1001     1.0  0.96358  0.22988  0.92623  1.0000
  C   C1002     1.0  0.49391  0.21655  0.96633  1.0000
  H   H803      1.0  0.94110  0.22640  0.91870  1.0000
  H   H804      1.0  0.98578  0.26361  0.80435  1.0000
  C   C1003     1.0  0.92609  0.01192  0.68441  1.0000
  H   H805      1.0  0.61910  0.47342  0.75032  1.0000
  C   C1004     1.0  0.92404  0.36161  0.93290  1.0000
  H   H806      1.0  0.49206  0.20643  0.98447  1.0000
  H   H807      1.0  0.94553  0.07021  0.86882  1.0000
  C   C1005     1.0  0.50665  0.39900  0.74290  1.0000
  C   C1006     1.0  0.95339  0.06383  0.85059  1.0000
  C   C1007     1.0  0.94934  0.27754  0.86883  1.0000
  C   C1008     1.0  0.49112  0.13916  0.82114  1.0000
  S   S146      1.0  0.93308  0.23279  0.97153  1.0000
  H   H808      1.0  0.98128  0.03910  0.78532  1.0000
  C   C1009     1.0  0.95839  0.02495  0.81894  1.0000
  H   H809      1.0  0.52746  0.15049  0.94626  1.0000
  C   C1010     1.0  0.94568  0.40547  0.81709  1.0000
  H   H810      1.0  0.49448  0.12953  0.80290  1.0000
  C   C1011     1.0  0.98562  0.18368  0.78778  1.0000
  C   C1012     1.0  0.61317  0.40911  0.79437  1.0000
  H   H811      1.0  0.60633  0.45123  0.84684  1.0000
  P   P34       1.0  0.55512  0.47320  0.76774  1.0000
  C   C1013     1.0  0.94993  0.31573  0.94496  1.0000
  H   H812      1.0  0.97911  0.10450  0.89684  1.0000
  C   C1014     1.0  0.98280  0.29405  0.83544  1.0000
  C   C1015     1.0  0.97669  0.40261  0.82182  1.0000
  H   H813      1.0  0.98049  0.29680  0.91812  1.0000
  C   C1016     1.0  0.58427  0.46110  0.81240  1.0000
  C   C1017     1.0  0.95460  0.13434  0.87241  1.0000
  H   H814      1.0  0.95484  0.00168  0.81269  1.0000
  C   C1018     1.0  0.98656  0.38156  0.83932  1.0000
  H   H815      1.0  0.98630  0.22733  0.89043  1.0000
  H   H816      1.0  0.90359  0.18720  0.89238  1.0000
  H   H817      1.0  0.95207  0.19707  0.76134  1.0000
  C   C1019     1.0  0.96866  0.14759  0.81920  1.0000
  C   C1020     1.0  0.50492  0.14049  0.94395  1.0000
  H   H818      1.0  0.90042  0.38901  0.82575  1.0000
  H   H819      1.0  0.50967  0.13670  0.90470  1.0000
  H   H820      1.0  0.54297  0.25687  0.92979  1.0000
  P   P35       1.0  0.97754  0.33503  0.87428  1.0000
  H   H821      1.0  0.93825  0.42149  0.80321  1.0000
  H   H822      1.0  0.91755  0.35165  0.85668  1.0000
  C   C1021     1.0  0.96433  0.04951  0.67259  1.0000
  C   C1022     1.0  0.94835  0.03388  0.84242  1.0000
  H   H823      1.0  0.50003  0.25140  0.90033  1.0000
  C   C1023     1.0  0.61746  0.41822  0.81884  1.0000
  C   C1024     1.0  0.51274  0.43362  0.70836  1.0000
  C   C1025     1.0  0.92720  0.15627  0.91596  1.0000
  C   C1026     1.0  0.93334  0.15796  0.87142  1.0000
  H   H824      1.0  0.90863  0.37990  0.93735  1.0000
  H   H825      1.0  0.53780  0.47492  0.71518  1.0000
  C   C1027     1.0  0.92957  0.33897  0.95041  1.0000
  C   C1028     1.0  0.93419  0.36623  0.84741  1.0000
  H   H826      1.0  0.91238  0.00081  0.69859  1.0000
  H   H827      1.0  0.52672  0.41331  0.77702  1.0000
  H   H828      1.0  0.51092  0.18272  0.81127  1.0000
  C   C1029     1.0  0.93360  0.16481  0.78781  1.0000
  C   C1030     1.0  0.95657  0.18333  0.77750  1.0000
  C   C1031     1.0  0.94827  0.13280  0.91713  1.0000
  C   C1032     1.0  0.95596  0.24551  0.83278  1.0000
  C   C1033     1.0  0.94530  0.03632  0.69058  1.0000
  C   C1034     1.0  0.95820  0.33683  0.90384  1.0000
  H   H829      1.0  0.62429  0.38891  0.78740  1.0000
  C   C1035     1.0  0.93847  0.36072  0.90974  1.0000
  C   C1036     1.0  0.49810  0.24154  0.91860  1.0000
  H   H830      1.0  0.49703  0.37815  0.75068  1.0000
  C   C1037     1.0  0.96529  0.36373  0.85272  1.0000
  H   H831      1.0  0.92805  0.16895  0.85418  1.0000
  C   C1038     1.0  0.52068  0.23236  0.95954  1.0000
  S   S147      1.0  0.55251  0.23743  0.98004  1.0000
  H   H832      1.0  0.95440  0.29828  0.95862  1.0000
  H   H833      1.0  0.94630  0.04429  0.70952  1.0000
  C   C1039     1.0  0.53490  0.44666  0.74804  1.0000
  C   C1040     1.0  0.92443  0.38720  0.82981  1.0000
  C   C1041     1.0  0.94275  0.25063  0.85595  1.0000
  C   C1042     1.0  0.93966  0.14683  0.80849  1.0000
  C   C1043     1.0  0.96978  0.29931  0.85880  1.0000
  H   H834      1.0  0.91737  0.16540  0.93285  1.0000
  C   C1044     1.0  0.96192  0.12187  0.89549  1.0000
  H   H835      1.0  0.92185  0.13214  0.81607  1.0000
  C   C1045     1.0  0.52341  0.41905  0.75778  1.0000
  H   H836      1.0  0.95102  0.22461  0.82285  1.0000
  C   C1046     1.0  0.91956  0.16865  0.89311  1.0000
  C   C1047     1.0  0.92545  0.00110  0.66014  1.0000
  H   H837      1.0  0.91122  0.16409  0.77957  1.0000
  C   C1048     1.0  0.50037  0.16919  0.82584  1.0000
  C   C1049     1.0  0.97329  0.04600  0.80351  1.0000
  H   H838      1.0  0.93836  0.28107  0.88653  1.0000
  C   C1050     1.0  0.96448  0.31484  0.92191  1.0000
  H   H839      1.0  0.59135  0.41854  0.75995  1.0000
  C   C1051     1.0  0.57970  0.45198  0.78782  1.0000
  P   P36       1.0  0.97651  0.12357  0.84537  1.0000
  H   H840      1.0  0.50786  0.43963  0.68941  1.0000
  C   C1052     1.0  0.52971  0.45364  0.72312  1.0000
  H   H841      1.0  0.91829  0.33946  0.96831  1.0000
  H   H842      1.0  0.75608  0.44749  0.66085  1.0000
  C   C1053     1.0  0.52249  0.24466  0.93546  1.0000
  C   C1054     1.0  0.97565  0.26740  0.82241  1.0000
  H   H843      1.0  0.92749  0.23372  0.86404  1.0000
  C   C1055     1.0  0.49924  0.48272  0.79172  1.0000
  H   H844      1.0  0.98034  0.06739  0.67784  1.0000
  C   C1056     1.0  0.59442  0.42592  0.77889  1.0000
  H   H845      1.0  0.95469  0.12374  0.93494  1.0000
  H   H846      1.0  0.93434  0.37883  0.89672  1.0000
  H   H847      1.0  0.57329  0.48107  0.81980  1.0000
  C   C1057     1.0  0.60306  0.44422  0.82783  1.0000
  C   C1058     1.0  0.50114  0.40638  0.71827  1.0000
  H   H848      1.0  0.49209  0.46057  0.78502  1.0000
  C   C1059     1.0  0.96861  0.08502  0.83526  1.0000
  H   H849      1.0  0.93685  0.01748  0.85435  1.0000
  C   C1060     1.0  0.49492  0.18210  0.84902  1.0000
  H   H850      1.0  0.49403  0.14209  0.98277  1.0000
  H   H851      1.0  0.50154  0.20557  0.85260  1.0000
  C   C1061     1.0  0.49451  0.13306  0.92032  1.0000
  H   H852      1.0  0.50173  0.07609  0.87107  1.0000
  H   H853      1.0  0.50661  0.02083  0.86358  1.0000
  H   H854      1.0  0.48707  0.39138  0.70708  1.0000
  C   C1062     1.0  0.58788  0.62101  0.31282  1.0000
  S   S148      1.0  0.53441  0.53309  0.16947  1.0000
  H   H855      1.0  0.57116  0.54506  0.21019  1.0000
  H   H856      1.0  0.93271  0.83856  0.08780  1.0000
  S   S149      1.0  0.91133  0.94410  0.17557  1.0000
  C   C1063     1.0  0.55577  0.66528  0.01481  1.0000
  S   S150      1.0  0.95616  0.53915  0.17357  1.0000
  Fe  Fe74      1.0  0.54403  0.71157  0.11484  1.0000
  S   S151      1.0  0.57054  0.70231  0.08012  1.0000
  S   S152      1.0  0.51749  0.67348  0.13619  1.0000
  Fe  Fe75      1.0  0.55897  0.78145  0.11172  1.0000
  S   S153      1.0  0.58649  0.77482  0.07647  1.0000
  S   S154      1.0  0.56311  0.82997  0.12901  1.0000
  Fe  Fe76      1.0  0.54788  0.74361  0.06379  1.0000
  S   S155      1.0  0.53296  0.74205  0.02247  1.0000
  Fe  Fe77      1.0  0.60680  0.73420  0.09536  1.0000
  S   S156      1.0  0.65610  0.71670  0.09820  1.0000
  S   S157      1.0  0.51954  0.75207  0.09812  1.0000
  S   S158      1.0  0.58099  0.74168  0.13099  1.0000
  Fe  Fe78      1.0  0.90612  0.73510  0.06387  1.0000
  S   S159      1.0  0.92813  0.72662  0.10098  1.0000
  S   S160      1.0  0.92987  0.72494  0.02607  1.0000
  Fe  Fe79      1.0  0.84281  0.74687  0.08914  1.0000
  S   S161      1.0  0.86179  0.73842  0.12690  1.0000
  S   S162      1.0  0.79422  0.76589  0.08461  1.0000
  Fe  Fe80      1.0  0.90179  0.76777  0.11482  1.0000
  S   S163      1.0  0.92247  0.80296  0.14237  1.0000
  Fe  Fe81      1.0  0.88629  0.69814  0.11028  1.0000
  S   S164      1.0  0.87997  0.65111  0.12949  1.0000
  S   S165      1.0  0.88239  0.77767  0.07730  1.0000
  S   S166      1.0  0.86485  0.70516  0.07295  1.0000
  H   H857      1.0  0.82130  0.89889  0.22692  1.0000
  C   C1064     1.0  0.83355  0.92691  0.19567  1.0000
  C   C1065     1.0  0.58124  0.53524  0.22645  1.0000
  P   P37       1.0  0.54955  0.57902  0.25295  1.0000
  C   C1066     1.0  0.54197  0.85937  0.14436  1.0000
  C   C1067     1.0  0.55748  0.88612  0.15200  1.0000
  C   C1068     1.0  0.54217  0.90997  0.16437  1.0000
  C   C1069     1.0  0.51078  0.90772  0.16900  1.0000
  C   C1070     1.0  0.60808  0.94117  0.22606  1.0000
  C   C1071     1.0  0.51065  0.85703  0.14916  1.0000
  H   H858      1.0  0.58153  0.88847  0.14809  1.0000
  H   H859      1.0  0.55453  0.93028  0.17000  1.0000
  H   H860      1.0  0.65940  0.84934  0.15070  1.0000
  H   H861      1.0  0.60366  0.59627  0.28107  1.0000
  C   C1072     1.0  0.69427  0.73137  0.09502  1.0000
  C   C1073     1.0  0.70089  0.76125  0.08733  1.0000
  C   C1074     1.0  0.73149  0.77121  0.08418  1.0000
  C   C1075     1.0  0.75603  0.75175  0.08900  1.0000
  C   C1076     1.0  0.74940  0.72201  0.09700  1.0000
  C   C1077     1.0  0.71880  0.71192  0.09986  1.0000
  H   H862      1.0  0.68244  0.77645  0.08330  1.0000
  H   H863      1.0  0.73623  0.79415  0.07773  1.0000
  H   H864      1.0  0.76786  0.70666  0.10069  1.0000
  H   H865      1.0  0.71410  0.68874  0.10571  1.0000
  C   C1078     1.0  0.83448  0.66857  0.20331  1.0000
  H   H866      1.0  0.94906  0.74817  0.16498  1.0000
  H   H867      1.0  0.82133  0.57829  0.19072  1.0000
  C   C1079     1.0  0.95547  0.73534  0.00108  1.0000
  H   H868      1.0  0.62514  0.64327  0.10458  1.0000
  H   H869      1.0  0.79493  0.60187  0.15546  1.0000
  H   H870      1.0  0.56088  0.82322  0.22790  1.0000
  C   C1080     1.0  0.93440  0.56999  0.16138  1.0000
  C   C1081     1.0  0.90281  0.57194  0.16462  1.0000
  C   C1082     1.0  0.88676  0.59667  0.15449  1.0000
  C   C1083     1.0  0.90182  0.61994  0.14095  1.0000
  C   C1084     1.0  0.93344  0.61818  0.13790  1.0000
  C   C1085     1.0  0.94951  0.59338  0.14797  1.0000
  H   H871      1.0  0.89078  0.55456  0.17514  1.0000
  H   H872      1.0  0.86249  0.59802  0.15730  1.0000
  H   H873      1.0  0.94553  0.63586  0.12772  1.0000
  H   H874      1.0  0.76535  0.89134  0.11105  1.0000
  H   H875      1.0  0.97390  0.59233  0.14531  1.0000
  C   C1086     1.0  0.91430  0.90451  0.16708  1.0000
  C   C1087     1.0  0.89716  0.89319  0.14704  1.0000
  C   C1088     1.0  0.89885  0.86231  0.13947  1.0000
  C   C1089     1.0  0.91823  0.84216  0.15152  1.0000
  C   C1090     1.0  0.93539  0.85348  0.17152  1.0000
  C   C1091     1.0  0.93335  0.88424  0.17933  1.0000
  H   H876      1.0  0.88271  0.90852  0.13705  1.0000
  H   H877      1.0  0.88557  0.85426  0.12401  1.0000
  H   H878      1.0  0.95049  0.83832  0.18108  1.0000
  H   H879      1.0  0.94664  0.89225  0.19481  1.0000
  C   C1092     1.0  0.62013  0.74853  0.01673  1.0000
  C   C1093     1.0  0.52852  0.57159  0.15896  1.0000
  C   C1094     1.0  0.55258  0.58759  0.14697  1.0000
  C   C1095     1.0  0.54945  0.61825  0.13913  1.0000
  C   C1096     1.0  0.52218  0.63373  0.14338  1.0000
  C   C1097     1.0  0.58887  0.63274  0.19911  1.0000
  H   H880      1.0  0.50488  0.58030  0.02532  1.0000
  H   H881      1.0  0.57401  0.57626  0.14404  1.0000
  H   H882      1.0  0.56841  0.63016  0.13042  1.0000
  C   C1098     1.0  0.52936  0.61165  0.29407  1.0000
  H   H883      1.0  0.60805  0.59033  0.02472  1.0000
  H   H884      1.0  0.50790  0.56930  0.21172  1.0000
  C   C1099     1.0  0.58422  0.61049  0.21734  1.0000
  H   H885      1.0  0.61380  0.58755  0.10390  1.0000
  H   H886      1.0  0.56859  0.66895  0.17821  1.0000
  C   C1100     1.0  0.52613  0.66351  0.00577  1.0000
  Fe  Fe82      1.0  0.93330  0.98123  0.20083  1.0000
  C   C1101     1.0  0.52857  0.60750  0.05232  1.0000
  C   C1102     1.0  0.85434  0.70504  0.29893  1.0000
  H   H887      1.0  0.67376  0.68229  0.03322  1.0000
  C   C1103     1.0  0.88007  0.67077  0.27082  1.0000
  H   H888      1.0  0.92179  0.76775  0.20171  1.0000
  H   H889      1.0  0.60488  0.76702  0.01258  1.0000
  H   H890      1.0  0.50160  0.96703  0.08235  1.0000
  C   C1104     1.0  0.91305  0.68273  0.18332  1.0000
  H   H891      1.0  0.50938  0.97720  0.13797  1.0000
  C   C1105     1.0  0.66811  0.73072  0.03233  1.0000
  H   H892      1.0  0.60027  0.94165  0.24512  1.0000
  C   C1106     1.0  0.91495  0.62368  0.22070  1.0000
  H   H893      1.0  0.54607  0.63784  0.08030  1.0000
  H   H894      1.0  0.54985  0.59589  0.04974  1.0000
  C   C1107     1.0  0.80655  0.67601  0.16522  1.0000
  H   H895      1.0  0.77662  0.56964  0.12086  1.0000
  H   H896      1.0  0.67269  0.90816  0.29406  1.0000
  H   H897      1.0  0.92850  0.93578  0.08020  1.0000
  H   H898      1.0  0.65573  0.77798  0.03070  1.0000
  H   H899      1.0  0.51862  0.66415  0.19924  1.0000
  H   H900      1.0  0.55256  0.88485  0.08954  1.0000
  C   C1108     1.0  0.54665  0.84312  0.22880  1.0000
  C   C1109     1.0  0.97131  0.76333  0.00017  1.0000
  C   C1110     1.0  0.81278  0.86524  0.06617  1.0000
  C   C1111     1.0  0.82857  0.84373  0.07985  1.0000
  C   C1112     1.0  0.82171  0.83919  0.10488  1.0000
  C   C1113     1.0  0.79877  0.85621  0.11636  1.0000
  C   C1114     1.0  0.78310  0.87797  0.10251  1.0000
  P   P38       1.0  0.78919  0.85092  0.14860  1.0000
  C   C1115     1.0  0.80526  0.81598  0.16003  1.0000
  C   C1116     1.0  0.80492  0.88175  0.16689  1.0000
  C   C1117     1.0  0.81835  0.90756  0.15564  1.0000
  H   H901      1.0  0.80684  0.65404  0.23463  1.0000
  C   C1118     1.0  0.87347  0.57597  0.23002  1.0000
  C   C1119     1.0  0.54774  0.97320  0.09546  1.0000
  C   C1120     1.0  0.80573  0.87897  0.19274  1.0000
  C   C1121     1.0  0.78802  0.78876  0.16125  1.0000
  C   C1122     1.0  0.80080  0.76228  0.17084  1.0000
  C   C1123     1.0  0.83085  0.76272  0.17912  1.0000
  C   C1124     1.0  0.84833  0.78951  0.17742  1.0000
  C   C1125     1.0  0.83562  0.81601  0.16797  1.0000
  C   C1126     1.0  0.74806  0.84942  0.15051  1.0000
  C   C1127     1.0  0.73205  0.86691  0.16793  1.0000
  C   C1128     1.0  0.70015  0.86677  0.16804  1.0000
  C   C1129     1.0  0.68409  0.84927  0.15079  1.0000
  C   C1130     1.0  0.69985  0.83161  0.13358  1.0000
  C   C1131     1.0  0.73169  0.83183  0.13333  1.0000
  H   H902      1.0  0.81858  0.49615  0.29798  1.0000
  H   H903      1.0  0.50662  0.60893  0.28674  1.0000
  H   H904      1.0  0.84567  0.83002  0.07087  1.0000
  H   H905      1.0  0.83390  0.82191  0.11491  1.0000
  H   H906      1.0  0.75862  0.65315  0.21151  1.0000
  H   H907      1.0  0.81905  0.90998  0.13577  1.0000
  H   H908      1.0  0.83061  0.71607  0.24005  1.0000
  H   H909      1.0  0.59703  0.91474  0.10416  1.0000
  C   C1132     1.0  0.61083  0.71842  0.01224  1.0000
  H   H910      1.0  0.79605  0.85898  0.20176  1.0000
  H   H911      1.0  0.76494  0.78762  0.15458  1.0000
  H   H912      1.0  0.78761  0.74123  0.17128  1.0000
  H   H913      1.0  0.84103  0.74205  0.18589  1.0000
  H   H914      1.0  0.87207  0.78964  0.18274  1.0000
  H   H915      1.0  0.84970  0.83643  0.16661  1.0000
  H   H916      1.0  0.74401  0.88098  0.18118  1.0000
  H   H917      1.0  0.54955  0.96759  0.31752  1.0000
  H   H918      1.0  0.84403  0.94925  0.16124  1.0000
  H   H919      1.0  0.68743  0.81782  0.12030  1.0000
  H   H920      1.0  0.74363  0.81834  0.11964  1.0000
  H   H921      1.0  0.58193  0.54125  0.28926  1.0000
  H   H922      1.0  0.88833  0.73354  0.22641  1.0000
  H   H923      1.0  0.49402  0.91306  0.23360  1.0000
  P   P39       1.0  0.60052  0.87795  0.22844  1.0000
  C   C1133     1.0  0.61813  0.84682  0.21191  1.0000
  C   C1134     1.0  0.64611  0.83515  0.21961  1.0000
  C   C1135     1.0  0.65942  0.81092  0.20682  1.0000
  C   C1136     1.0  0.64492  0.79817  0.18629  1.0000
  C   C1137     1.0  0.61728  0.80986  0.17838  1.0000
  C   C1138     1.0  0.60403  0.83418  0.19100  1.0000
  C   C1139     1.0  0.61022  0.91348  0.21314  1.0000
  C   C1140     1.0  0.59962  0.50969  0.22386  1.0000
  H   H924      1.0  0.77772  0.89897  0.06685  1.0000
  C   C1141     1.0  0.62703  0.94154  0.17662  1.0000
  C   C1142     1.0  0.61991  0.91389  0.18834  1.0000
  C   C1143     1.0  0.61238  0.49631  0.24469  1.0000
  H   H925      1.0  0.54935  0.92088  0.23167  1.0000
  H   H926      1.0  0.65769  0.84460  0.23547  1.0000
  H   H927      1.0  0.68099  0.80197  0.21280  1.0000
  H   H928      1.0  0.65516  0.77940  0.17633  1.0000
  H   H929      1.0  0.60607  0.80018  0.16234  1.0000
  H   H930      1.0  0.58265  0.84295  0.18445  1.0000
  H   H931      1.0  0.57704  0.85160  0.27495  1.0000
  C   C1144     1.0  0.86383  0.68272  0.25090  1.0000
  H   H932      1.0  0.63387  0.94176  0.15735  1.0000
  H   H933      1.0  0.62160  0.89301  0.17785  1.0000
  C   C1145     1.0  0.92518  0.59377  0.22301  1.0000
  C   C1146     1.0  0.49715  0.56021  0.22822  1.0000
  H   H934      1.0  0.83053  0.52297  0.19126  1.0000
  C   C1147     1.0  0.57524  0.54748  0.24991  1.0000
  P   P40       1.0  0.61809  0.65487  0.01389  1.0000
  H   H935      1.0  0.51022  0.62545  0.23190  1.0000
  C   C1148     1.0  0.50316  0.59866  0.03862  1.0000
  C   C1149     1.0  0.92795  0.88699  0.08225  1.0000
  H   H936      1.0  0.68785  0.88039  0.18140  1.0000
  H   H937      1.0  0.66802  0.61054  0.01776  1.0000
  C   C1150     1.0  0.94292  0.86101  0.09038  1.0000
  C   C1151     1.0  0.56527  0.65216  0.19275  1.0000
  Fe  Fe83      1.0  0.94510  0.49615  0.19692  1.0000
  C   C1152     1.0  0.79254  0.52772  0.13670  1.0000
  C   C1153     1.0  0.78773  0.55920  0.13645  1.0000
  C   C1154     1.0  0.79793  0.57738  0.15599  1.0000
  C   C1155     1.0  0.81282  0.56409  0.17588  1.0000
  C   C1156     1.0  0.81789  0.53271  0.17613  1.0000
  H   H938      1.0  0.90619  0.88460  0.07313  1.0000
  C   C1157     1.0  0.93493  0.73287  0.17608  1.0000
  H   H939      1.0  0.84571  0.94379  0.20662  1.0000
  S   S167      1.0  0.49254  0.98255  0.24747  1.0000
  Fe  Fe84      1.0  0.51741  0.48924  0.19032  1.0000
  H   H940      1.0  0.94550  0.98084  0.14313  1.0000
  C   C1158     1.0  0.79009  0.88243  0.07751  1.0000
  C   C1159     1.0  0.64869  0.75469  0.02690  1.0000
  C   C1160     1.0  0.83250  0.93004  0.17003  1.0000
  C   C1161     1.0  0.62325  0.64805  0.06509  1.0000
  H   H941      1.0  0.60284  0.59582  0.22215  1.0000
  C   C1162     1.0  0.61220  0.60195  0.04205  1.0000
  C   C1163     1.0  0.50095  0.58681  0.16244  1.0000
  C   C1164     1.0  0.60878  0.86462  0.30303  1.0000
  H   H942      1.0  0.98176  0.84376  0.10943  1.0000
  C   C1165     1.0  0.53227  0.62723  0.22287  1.0000
  H   H943      1.0  0.83904  0.60984  0.22943  1.0000
  H   H944      1.0  0.91029  0.65933  0.17751  1.0000
  C   C1166     1.0  0.52644  0.63120  0.06945  1.0000
  C   C1167     1.0  0.77942  0.66757  0.17719  1.0000
  C   C1168     1.0  0.62969  0.69414  0.01867  1.0000
  H   H945      1.0  0.96833  0.77953  0.01503  1.0000
  C   C1169     1.0  0.64122  0.89498  0.26552  1.0000
  H   H946      1.0  0.88777  0.67243  0.31005  1.0000
  H   H947      1.0  0.81793  0.86824  0.04670  1.0000
  C   C1170     1.0  0.81999  0.90149  0.20705  1.0000
  C   C1171     1.0  0.55568  0.60723  0.22904  1.0000
  H   H948      1.0  0.61066  0.63473  0.18968  1.0000
  C   C1172     1.0  0.52466  0.92434  0.08440  1.0000
  H   H949      1.0  0.85442  0.68351  0.16850  1.0000
  H   H950      1.0  0.94324  0.69376  0.15299  1.0000
  C   C1173     1.0  0.83387  0.67667  0.17823  1.0000
  H   H951      1.0  0.78497  0.51418  0.12116  1.0000
  C   C1174     1.0  0.89726  0.69344  0.20413  1.0000
  H   H952      1.0  0.59413  0.97051  0.10869  1.0000
  C   C1175     1.0  0.57650  0.92644  0.09899  1.0000
  C   C1176     1.0  0.61085  0.58539  0.06416  1.0000
  H   H953      1.0  0.65412  0.90681  0.25121  1.0000
  C   C1177     1.0  0.59798  0.86396  0.27880  1.0000
  C   C1178     1.0  0.61410  0.87917  0.25985  1.0000
  C   C1179     1.0  0.61840  0.63344  0.04237  1.0000
  C   C1180     1.0  0.49879  0.54741  0.27170  1.0000
  C   C1181     1.0  0.65865  0.70058  0.02832  1.0000
  C   C1182     1.0  0.87524  0.68185  0.29474  1.0000
  C   C1183     1.0  0.93176  0.70228  0.16936  1.0000
  C   C1184     1.0  0.62166  0.63154  0.08715  1.0000
  C   C1185     1.0  0.61535  0.60023  0.08673  1.0000
  C   C1186     1.0  0.90053  0.72432  0.21076  1.0000
  C   C1187     1.0  0.97066  0.86396  0.10260  1.0000
  H   H954      1.0  0.69030  0.73542  0.04017  1.0000
  C   C1188     1.0  0.58386  0.60463  0.29089  1.0000
  H   H955      1.0  0.60586  0.56112  0.06388  1.0000
  C   C1189     1.0  0.65191  0.89568  0.28978  1.0000
  C   C1190     1.0  0.86308  0.60579  0.22734  1.0000
  H   H956      1.0  0.62779  0.67230  0.06602  1.0000
  H   H957      1.0  0.91239  0.54678  0.22930  1.0000
  C   C1191     1.0  0.90446  0.56996  0.22767  1.0000
  H   H958      1.0  0.56001  0.67827  0.03145  1.0000
  H   H959      1.0  0.89654  0.65294  0.26797  1.0000
  C   C1192     1.0  0.53702  0.64943  0.20464  1.0000
  C   C1193     1.0  0.54034  0.89782  0.23119  1.0000
  C   C1194     1.0  0.55958  0.87266  0.22895  1.0000
  C   C1195     1.0  0.58743  0.53338  0.27083  1.0000
  H   H960      1.0  0.59615  0.85293  0.31758  1.0000
  C   C1196     1.0  0.61557  0.96872  0.21439  1.0000
  C   C1197     1.0  0.50113  0.74128  0.00151  1.0000
  C   C1198     1.0  0.77967  0.65973  0.20223  1.0000
  H   H961      1.0  0.85763  0.55736  0.23400  1.0000
  H   H962      1.0  0.82224  0.73537  0.28241  1.0000
  H   H963      1.0  0.75827  0.66710  0.16701  1.0000
  C   C1199     1.0  0.80767  0.51425  0.15656  1.0000
  H   H964      1.0  0.51067  0.54680  0.28912  1.0000
  C   C1200     1.0  0.57471  0.95813  0.10148  1.0000
  H   H965      1.0  0.93159  0.64173  0.21764  1.0000
  C   C1201     1.0  0.55448  0.59902  0.28178  1.0000
  H   H966      1.0  0.80663  0.68196  0.14574  1.0000
  C   C1202     1.0  0.55143  0.90953  0.09065  1.0000
  C   C1203     1.0  0.51502  0.83897  0.22953  1.0000
  H   H967      1.0  0.49822  0.83681  0.14345  1.0000
  H   H968      1.0  0.50516  0.81623  0.22860  1.0000
  C   C1204     1.0  0.80706  0.66024  0.21526  1.0000
  C   C1205     1.0  0.83828  0.71725  0.27917  1.0000
  C   C1206     1.0  0.96858  0.91915  0.09865  1.0000
  H   H969      1.0  0.59522  0.93628  0.31108  1.0000
  H   H970      1.0  0.50809  0.67537  0.01536  1.0000
  C   C1207     1.0  0.49793  0.61754  0.15487  1.0000
  C   C1208     1.0  0.51212  0.56172  0.25097  1.0000
  P   P41       1.0  0.87009  0.66865  0.21994  1.0000
  H   H971      1.0  0.58889  0.71451  0.00389  1.0000
  C   C1209     1.0  0.49523  0.88107  0.16120  1.0000
  C   C1210     1.0  0.57981  0.65145  0.00205  1.0000
  C   C1211     1.0  0.91944  0.74387  0.19682  1.0000
  H   H972      1.0  0.50507  0.91110  0.07835  1.0000
  C   C1212     1.0  0.62490  0.96894  0.18966  1.0000
  C   C1213     1.0  0.52281  0.95603  0.08669  1.0000
  H   H973      1.0  0.91990  0.50993  0.13193  1.0000
  C   C1214     1.0  0.50877  0.89350  0.23244  1.0000
  C   C1215     1.0  0.88368  0.62991  0.22233  1.0000
  H   H974      1.0  0.86818  0.51699  0.14799  1.0000
  Fe  Fe85      1.0  0.50006  0.98153  0.20597  1.0000
  C   C1216     1.0  0.94066  0.91598  0.08638  1.0000
  C   C1217     1.0  0.84300  0.70618  0.25522  1.0000
  H   H975      1.0  0.60337  0.49985  0.20574  1.0000
  C   C1218     1.0  0.53345  0.62810  0.31597  1.0000
  H   H976      1.0  0.97063  0.92489  0.15061  1.0000
  S   S168      1.0  0.95406  0.49490  0.23805  1.0000
  S   S169      1.0  0.95604  0.97779  0.23816  1.0000
  C   C1219     1.0  0.60645  0.50829  0.26814  1.0000
  H   H977      1.0  0.49771  0.66423  0.08641  1.0000
  C   C1220     1.0  0.49880  0.64606  0.07299  1.0000
  C   C1221     1.0  0.63577  0.88038  0.30851  1.0000
  C   C1222     1.0  0.87476  0.49444  0.14226  1.0000
  H   H978      1.0  0.61596  0.49751  0.28430  1.0000
  C   C1223     1.0  0.49609  0.86419  0.23122  1.0000
  S   S170      1.0  0.48959  0.93757  0.18363  1.0000
  H   H979      1.0  0.94918  0.58884  0.22084  1.0000
  H   H980      1.0  0.61058  0.62477  0.32001  1.0000
  C   C1224     1.0  0.95543  0.98473  0.10412  1.0000
  C   C1225     1.0  0.90422  0.49060  0.13288  1.0000
  C   C1226     1.0  0.66741  0.61921  0.99907  1.0000
  C   C1227     1.0  0.64563  0.64057  0.99201  1.0000
  H   H981      1.0  0.85069  0.71362  0.31749  1.0000
  H   H982      1.0  0.71961  0.98756  0.32254  1.0000
  P   P42       1.0  0.98504  0.95656  0.10437  1.0000
  C   C1228     1.0  0.98361  0.89286  0.10655  1.0000
  Fe  Fe86      1.0  0.73200  0.85919  0.58281  1.0000
  S   S171      1.0  0.72123  0.88040  0.61968  1.0000
  S   S172      1.0  0.73899  0.80871  0.57258  1.0000
  Fe  Fe87      1.0  0.73437  0.92228  0.55596  1.0000
  S   S173      1.0  0.72444  0.94736  0.59137  1.0000
  S   S174      1.0  0.73959  0.93980  0.51569  1.0000
  Fe  Fe88      1.0  0.75771  0.91539  0.60966  1.0000
  C   C1229     1.0  0.83384  0.58228  0.56279  1.0000
  Fe  Fe89      1.0  0.68876  0.91106  0.59943  1.0000
  S   S175      1.0  0.63758  0.91936  0.60701  1.0000
  S   S176      1.0  0.77010  0.89281  0.57368  1.0000
  S   S177      1.0  0.69733  0.88719  0.56308  1.0000
  Fe  Fe90      1.0  0.71930  0.62475  0.60568  1.0000
  S   S178      1.0  0.70875  0.67481  0.61553  1.0000
  Fe  Fe91      1.0  0.72844  0.56882  0.57054  1.0000
  S   S179      1.0  0.73627  0.53761  0.60263  1.0000
  S   S180      1.0  0.73181  0.55445  0.52915  1.0000
  Fe  Fe92      1.0  0.69583  0.56074  0.62097  1.0000
  C   C1230     1.0  0.80102  0.70733  0.61303  1.0000
  Fe  Fe93      1.0  0.76595  0.57505  0.61896  1.0000
  H   H983      1.0  0.67663  0.92179  0.52113  1.0000
  S   S181      1.0  0.68681  0.59057  0.58808  1.0000
  S   S182      1.0  0.75993  0.60568  0.58579  1.0000
  H   H984      1.0  0.72791  0.50318  0.44761  1.0000
  C   C1231     1.0  0.72999  0.52114  0.50956  1.0000
  C   C1232     1.0  0.72957  0.52491  0.48367  1.0000
  H   H985      1.0  0.73034  0.54772  0.47607  1.0000
  H   H986      1.0  0.62890  0.84153  0.56301  1.0000
  H   H987      1.0  0.67437  0.90898  0.39336  1.0000
  C   C1233     1.0  0.68147  0.96878  0.37577  1.0000
  H   H988      1.0  0.62544  0.61216  0.52686  1.0000
  C   C1234     1.0  0.59286  0.94936  0.32796  1.0000
  H   H989      1.0  0.64411  0.88082  0.32729  1.0000
  C   C1235     1.0  0.68628  0.97735  0.35101  1.0000
  C   C1236     1.0  0.48973  0.66925  0.58852  1.0000
  C   C1237     1.0  0.62248  0.94769  0.65188  1.0000
  C   C1238     1.0  0.61594  0.94955  0.34559  1.0000
  H   H990      1.0  0.59693  0.95379  0.42592  1.0000
  S   S183      1.0  0.72636  0.59564  0.63956  1.0000
  C   C1239     1.0  0.73103  0.77173  0.58528  1.0000
  C   C1240     1.0  0.74079  0.74572  0.57230  1.0000
  C   C1241     1.0  0.73447  0.71596  0.58124  1.0000
  C   C1242     1.0  0.71829  0.71174  0.60341  1.0000
  C   C1243     1.0  0.70889  0.73778  0.61654  1.0000
  C   C1244     1.0  0.71515  0.76751  0.60757  1.0000
  H   H991      1.0  0.75309  0.74859  0.55503  1.0000
  H   H992      1.0  0.74185  0.69629  0.57086  1.0000
  H   H993      1.0  0.69647  0.73488  0.63371  1.0000
  H   H994      1.0  0.70763  0.78710  0.61783  1.0000
  C   C1245     1.0  0.71586  0.97978  0.34135  1.0000
  H   H995      1.0  0.89320  0.89042  0.63473  1.0000
  H   H996      1.0  0.51393  0.63746  0.32555  1.0000
  H   H997      1.0  0.59362  0.51744  0.58718  1.0000
  C   C1246     1.0  0.59709  0.57226  0.53321  1.0000
  H   H998      1.0  0.53531  0.93593  0.64283  1.0000
  H   H999      1.0  0.49711  0.71260  0.57057  1.0000
  C   C1247     1.0  0.58052  0.92907  0.62744  1.0000
  C   C1248     1.0  0.82804  0.92829  0.64931  1.0000
  C   C1249     1.0  0.55950  0.93927  0.64553  1.0000
  H   H1000     1.0  0.57217  0.91800  0.61093  1.0000
  C   C1250     1.0  0.72902  0.49130  0.51885  1.0000
  H   H1001     1.0  0.79410  0.51661  0.55260  1.0000
  C   C1251     1.0  0.59992  0.84878  0.62129  1.0000
  C   C1252     1.0  0.62503  0.83886  0.63483  1.0000
  C   C1253     1.0  0.90845  0.98123  0.60305  1.0000
  H   H1002     1.0  0.94739  0.93550  0.62582  1.0000
  H   H1003     1.0  0.87492  0.53243  0.59618  1.0000
  C   C1254     1.0  0.87458  0.56508  0.64900  1.0000
  H   H1004     1.0  0.64948  0.92621  0.48167  1.0000
  C   C1255     1.0  0.74085  0.97412  0.35637  1.0000
  C   C1256     1.0  0.62489  0.58795  0.53086  1.0000
  H   H1005     1.0  0.58127  0.97278  0.55169  1.0000
  C   C1257     1.0  0.65696  0.96204  0.53712  1.0000
  C   C1258     1.0  0.85314  0.97957  0.60534  1.0000
  C   C1259     1.0  0.81163  0.56237  0.55352  1.0000
  H   H1006     1.0  0.73967  0.95033  0.46315  1.0000
  C   C1260     1.0  0.57361  0.56398  0.65526  1.0000
  H   H1007     1.0  0.79385  0.57097  0.54176  1.0000
  C   C1261     1.0  0.61997  0.53440  0.64964  1.0000
  H   H1008     1.0  0.57597  0.58430  0.53092  1.0000
  H   H1009     1.0  0.56581  0.64524  0.34245  1.0000
  H   H1010     1.0  0.88091  0.58425  0.63740  1.0000
  H   H1011     1.0  0.67305  0.52940  0.54071  1.0000
  H   H1012     1.0  0.92856  0.94696  0.57943  1.0000
  H   H1013     1.0  0.87298  0.83937  0.64734  1.0000
  H   H1014     1.0  0.65419  0.50426  0.59098  1.0000
  S   S184      1.0  0.78947  0.93414  0.64002  1.0000
  H   H1015     1.0  0.80045  0.69598  0.59524  1.0000
  C   C1262     1.0  0.81349  0.75192  0.63794  1.0000
  C   C1263     1.0  0.84377  0.55549  0.65020  1.0000
  H   H1016     1.0  0.79640  0.51580  0.61377  1.0000
  C   C1264     1.0  0.85659  0.57121  0.57810  1.0000
  C   C1265     1.0  0.76669  0.80407  0.65182  1.0000
  C   C1266     1.0  0.83665  0.80506  0.61001  1.0000
  C   C1267     1.0  0.65253  0.83015  0.59630  1.0000
  H   H1017     1.0  0.66489  0.86460  0.42040  1.0000
  S   S185      1.0  0.65927  0.53044  0.64076  1.0000
  H   H1018     1.0  0.66748  0.98353  0.33939  1.0000
  H   H1019     1.0  0.70370  0.95837  0.41027  1.0000
  H   H1020     1.0  0.87931  0.92300  0.56826  1.0000
  C   C1268     1.0  0.81406  0.81809  0.59544  1.0000
  C   C1269     1.0  0.82068  0.82723  0.57121  1.0000
  C   C1270     1.0  0.85001  0.82394  0.56151  1.0000
  C   C1271     1.0  0.87271  0.81108  0.57593  1.0000
  C   C1272     1.0  0.86602  0.80138  0.60002  1.0000
  C   C1273     1.0  0.62760  0.84035  0.58298  1.0000
  C   C1274     1.0  0.61220  0.93296  0.63053  1.0000
  C   C1275     1.0  0.66096  0.94028  0.51850  1.0000
  C   C1276     1.0  0.85724  0.54022  0.58409  1.0000
  C   C1277     1.0  0.58351  0.49479  0.58598  1.0000
  H   H1021     1.0  0.72944  0.48779  0.53861  1.0000
  H   H1022     1.0  0.83927  0.89506  0.62157  1.0000
  C   C1278     1.0  0.81190  0.53147  0.55974  1.0000
  C   C1279     1.0  0.70675  0.96356  0.39083  1.0000
  H   H1023     1.0  0.55421  0.50231  0.61745  1.0000
  P   P43       1.0  0.64373  0.96837  0.38929  1.0000
  C   C1280     1.0  0.87818  0.90542  0.64475  1.0000
  H   H1024     1.0  0.51276  0.66161  0.58514  1.0000
  H   H1025     1.0  0.61578  0.58134  0.63895  1.0000
  H   H1026     1.0  0.83173  0.64278  0.64694  1.0000
  H   H1027     1.0  0.76074  0.78306  0.64242  1.0000
  H   H1028     1.0  0.79113  0.82066  0.60253  1.0000
  H   H1029     1.0  0.80280  0.83641  0.55985  1.0000
  H   H1030     1.0  0.85497  0.83106  0.54271  1.0000
  H   H1031     1.0  0.89538  0.80827  0.56831  1.0000
  H   H1032     1.0  0.88366  0.79073  0.61069  1.0000
  C   C1281     1.0  0.59660  0.54098  0.53824  1.0000
  C   C1282     1.0  0.72817  0.49957  0.46737  1.0000
  H   H1033     1.0  0.75574  0.96267  0.39294  1.0000
  C   C1283     1.0  0.73420  0.97382  0.49787  1.0000
  C   C1284     1.0  0.79724  0.81384  0.65360  1.0000
  C   C1285     1.0  0.65214  0.57234  0.53346  1.0000
  C   C1286     1.0  0.85259  0.95430  0.58964  1.0000
  C   C1287     1.0  0.90769  0.95614  0.58693  1.0000
  H   H1034     1.0  0.67100  0.82205  0.63214  1.0000
  C   C1288     1.0  0.58708  0.98493  0.37056  1.0000
  H   H1035     1.0  0.53627  0.96285  0.57803  1.0000
  C   C1289     1.0  0.97510  0.97258  0.61125  1.0000
  H   H1036     1.0  0.64657  0.95149  0.65441  1.0000
  H   H1037     1.0  0.83100  0.94351  0.58501  1.0000
  H   H1038     1.0  0.58226  0.85816  0.58511  1.0000
  H   H1039     1.0  0.57493  0.52895  0.53945  1.0000
  H   H1040     1.0  0.83305  0.60635  0.55845  1.0000
  H   H1041     1.0  0.57944  0.85638  0.63042  1.0000
  H   H1042     1.0  0.87772  0.67040  0.63142  1.0000
  C   C1290     1.0  0.55194  0.98125  0.58263  1.0000
  H   H1043     1.0  0.76141  0.50151  0.64778  1.0000
  H   H1044     1.0  0.63586  0.93582  0.34252  1.0000
  C   C1291     1.0  0.56700  0.96702  0.33157  1.0000
  C   C1292     1.0  0.97001  0.94294  0.62023  1.0000
  C   C1293     1.0  0.63683  0.93506  0.40818  1.0000
  C   C1294     1.0  0.61198  0.93448  0.42467  1.0000
  C   C1295     1.0  0.60646  0.90902  0.43971  1.0000
  C   C1296     1.0  0.62564  0.88393  0.43827  1.0000
  C   C1297     1.0  0.65009  0.88412  0.42157  1.0000
  C   C1298     1.0  0.65556  0.90947  0.40639  1.0000
  H   H1045     1.0  0.67373  0.58439  0.53128  1.0000
  C   C1299     1.0  0.65171  0.54116  0.53889  1.0000
  C   C1300     1.0  0.62394  0.52535  0.54152  1.0000
  C   C1301     1.0  0.60131  0.84960  0.59545  1.0000
  C   C1302     1.0  0.65131  0.82954  0.62210  1.0000
  H   H1046     1.0  0.87332  0.58676  0.58585  1.0000
  C   C1303     1.0  0.78732  0.70809  0.65638  1.0000
  C   C1304     1.0  0.61363  0.96800  0.36672  1.0000
  C   C1305     1.0  0.78764  0.69315  0.63360  1.0000
  C   C1306     1.0  0.84757  0.90812  0.63714  1.0000
  H   H1047     1.0  0.77677  0.67088  0.63168  1.0000
  S   S186      1.0  0.81594  0.57575  0.63275  1.0000
  H   H1048     1.0  0.67299  0.82307  0.58662  1.0000
  C   C1307     1.0  0.73575  0.97215  0.47184  1.0000
  C   C1308     1.0  0.62549  0.96671  0.49254  1.0000
  H   H1049     1.0  0.58734  0.90876  0.45251  1.0000
  H   H1050     1.0  0.62149  0.86426  0.45004  1.0000
  H   H1051     1.0  0.66580  0.88322  0.64692  1.0000
  H   H1052     1.0  0.82310  0.74738  0.59865  1.0000
  C   C1309     1.0  0.64557  0.94277  0.49616  1.0000
  H   H1053     1.0  0.76376  0.97722  0.34902  1.0000
  H   H1054     1.0  0.91139  0.98146  0.65586  1.0000
  H   H1055     1.0  0.66946  0.95984  0.55418  1.0000
  H   H1056     1.0  0.94396  0.61147  0.65482  1.0000
  P   P44       1.0  0.82735  0.79093  0.64050  1.0000
  C   C1310     1.0  0.81384  0.73661  0.61511  1.0000
  C   C1311     1.0  0.87984  0.94263  0.58038  1.0000
  C   C1312     1.0  0.83494  0.52004  0.57486  1.0000
  C   C1313     1.0  0.60423  0.56174  0.64702  1.0000
  C   C1314     1.0  0.79371  0.49201  0.61872  1.0000
  H   H1057     1.0  0.92504  0.67091  0.65591  1.0000
  H   H1058     1.0  0.63517  0.72585  0.65657  1.0000
  C   C1315     1.0  0.63736  0.98650  0.53339  1.0000
  H   H1059     1.0  0.65917  0.97887  0.44135  1.0000
  H   H1060     1.0  0.61099  0.77560  0.64975  1.0000
  C   C1316     1.0  0.87817  0.65922  0.64925  1.0000
  C   C1317     1.0  0.73630  0.96603  0.38111  1.0000
  H   H1061     1.0  0.61347  0.96865  0.47526  1.0000
  H   H1062     1.0  0.56204  0.58544  0.65339  1.0000
  C   C1318     1.0  0.56407  0.98471  0.35287  1.0000
  H   H1063     1.0  0.64146  0.98766  0.60496  1.0000
  C   C1319     1.0  0.56267  0.63259  0.32544  1.0000
  H   H1064     1.0  0.86590  0.48822  0.62872  1.0000
  C   C1320     1.0  0.57750  0.98710  0.56765  1.0000
  C   C1321     1.0  0.94401  0.71721  0.82393  1.0000
  C   C1322     1.0  0.85253  0.62956  0.68106  1.0000
  H   H1065     1.0  0.63042  0.85863  0.71883  1.0000
  H   H1066     1.0  0.56221  0.49198  0.67672  1.0000
  P   P45       1.0  0.52015  0.89381  0.81795  1.0000
  C   C1323     1.0  0.95428  0.60338  0.77033  1.0000
  Fe  Fe94      1.0  0.96848  0.50873  0.70546  1.0000
  C   C1324     1.0  0.52848  0.49453  0.78641  1.0000
  C   C1325     1.0  0.49780  0.95155  0.80797  1.0000
  H   H1067     1.0  0.54003  0.52984  0.74209  1.0000
  S   S187      1.0  0.51971  0.54398  0.67746  1.0000
  C   C1326     1.0  0.85889  0.51577  0.67909  1.0000
  C   C1327     1.0  0.60151  0.95791  0.66994  1.0000
  H   H1068     1.0  0.97238  0.82181  0.79189  1.0000
  C   C1328     1.0  0.88970  0.92238  0.66484  1.0000
  C   C1329     1.0  0.98427  0.69059  0.80254  1.0000
  C   C1330     1.0  0.83616  0.53068  0.66543  1.0000
  H   H1069     1.0  0.66931  0.65212  0.93250  1.0000
  Fe  Fe95      1.0  0.96714  0.94041  0.69697  1.0000
  C   C1331     1.0  0.97300  0.73130  0.71160  1.0000
  H   H1070     1.0  0.93611  0.84451  0.82750  1.0000
  C   C1332     1.0  0.96688  0.61564  0.66127  1.0000
  C   C1333     1.0  0.57454  0.89905  0.79055  1.0000
  H   H1071     1.0  0.82471  0.96056  0.67922  1.0000
  C   C1334     1.0  0.60818  0.49354  0.74334  1.0000
  H   H1072     1.0  0.92164  0.73016  0.75898  1.0000
  S   S188      1.0  0.91717  0.50534  0.69587  1.0000
  C   C1335     1.0  0.49472  0.80550  0.80209  1.0000
  C   C1336     1.0  0.58095  0.54548  0.72404  1.0000
  S   S189      1.0  0.92881  0.91811  0.67332  1.0000
  H   H1073     1.0  0.55969  0.85310  0.84539  1.0000
  C   C1337     1.0  0.50397  0.85571  0.81982  1.0000
  H   H1074     1.0  0.87815  0.95490  0.69298  1.0000
  C   C1338     1.0  0.54459  0.90849  0.74592  1.0000
  H   H1075     1.0  0.56492  0.95429  0.88634  1.0000
  H   H1076     1.0  0.58913  0.91507  0.72985  1.0000
  H   H1077     1.0  0.98243  0.70572  0.94628  1.0000
  S   S190      1.0  0.96687  0.96331  0.73443  1.0000
  H   H1078     1.0  0.55921  0.53306  0.79184  1.0000
  H   H1079     1.0  0.53872  0.61923  0.95530  1.0000
  H   H1080     1.0  0.98153  0.69422  0.68673  1.0000
  P   P46       1.0  0.62403  0.83672  0.66820  1.0000
  C   C1339     1.0  0.98001  0.83303  0.87789  1.0000
  C   C1340     1.0  0.95994  0.71473  0.98137  1.0000
  H   H1081     1.0  0.52976  0.73596  0.96929  1.0000
  H   H1082     1.0  0.87862  0.61881  0.71294  1.0000
  H   H1083     1.0  0.71985  0.81417  0.65994  1.0000
  C   C1341     1.0  0.97222  0.63078  0.68374  1.0000
  H   H1084     1.0  0.61594  0.90599  0.76945  1.0000
  C   C1342     1.0  0.90586  0.64388  0.68584  1.0000
  H   H1085     1.0  0.52181  0.56350  0.81513  1.0000
  C   C1343     1.0  0.66707  0.74332  0.68320  1.0000
  C   C1344     1.0  0.94023  0.61691  0.72842  1.0000
  H   H1086     1.0  0.85767  0.74768  0.67427  1.0000
  C   C1345     1.0  0.53672  0.52353  0.79545  1.0000
  H   H1087     1.0  0.95494  0.67001  0.83003  1.0000
  C   C1346     1.0  0.57758  0.49950  0.74908  1.0000
  C   C1347     1.0  0.93453  0.72227  0.74314  1.0000
  H   H1088     1.0  0.73197  0.86382  0.67990  1.0000
  C   C1348     1.0  0.92785  0.58749  0.72525  1.0000
  C   C1349     1.0  0.92743  0.56674  0.74482  1.0000
  C   C1350     1.0  0.94059  0.57467  0.76738  1.0000
  H   H1089     1.0  0.96009  0.76437  0.73911  1.0000
  C   C1351     1.0  0.54355  0.63210  0.97193  1.0000
  H   H1090     1.0  0.96613  0.64597  0.75331  1.0000
  C   C1352     1.0  0.67761  0.76908  0.69589  1.0000
  C   C1353     1.0  0.56061  0.87531  0.85416  1.0000
  H   H1091     1.0  0.96835  0.76032  0.85847  1.0000
  H   H1092     1.0  0.67321  0.81706  0.70166  1.0000
  C   C1354     1.0  0.68255  0.91346  0.70291  1.0000
  C   C1355     1.0  0.57633  0.90973  0.74658  1.0000
  H   H1093     1.0  0.98368  0.76494  0.78527  1.0000
  H   H1094     1.0  0.85252  0.49668  0.69079  1.0000
  H   H1095     1.0  0.90398  0.75216  0.69914  1.0000
  C   C1356     1.0  0.78027  0.86007  0.67405  1.0000
  C   C1357     1.0  0.97617  0.74414  0.79435  1.0000
  C   C1358     1.0  0.96841  0.70167  0.70258  1.0000
  P   P47       1.0  0.94106  0.64352  0.70294  1.0000
  C   C1359     1.0  0.96703  0.78490  0.85846  1.0000
  C   C1360     1.0  0.54373  0.89961  0.84478  1.0000
  H   H1096     1.0  0.91877  0.58035  0.70759  1.0000
  H   H1097     1.0  0.91776  0.54407  0.74216  1.0000
  H   H1098     1.0  0.94116  0.55816  0.78225  1.0000
  C   C1361     1.0  0.54256  0.89812  0.78998  1.0000
  H   H1099     1.0  0.77640  0.69717  0.67215  1.0000
  C   C1362     1.0  0.88965  0.52537  0.67796  1.0000
  C   C1363     1.0  0.57334  0.63403  0.98088  1.0000
  C   C1364     1.0  0.49083  0.92233  0.81730  1.0000
  C   C1365     1.0  0.50542  0.83558  0.79965  1.0000
  H   H1100     1.0  0.92082  0.55777  0.66139  1.0000
  H   H1101     1.0  0.82673  0.85117  0.66544  1.0000
  H   H1102     1.0  0.62420  0.55455  0.70624  1.0000
  C   C1366     1.0  0.87911  0.62990  0.69512  1.0000
  H   H1103     1.0  0.49559  0.79009  0.78648  1.0000
  C   C1367     1.0  0.95121  0.74401  0.81073  1.0000
  C   C1368     1.0  0.51571  0.54080  0.80881  1.0000
  P   P48       1.0  0.93070  0.77872  0.81670  1.0000
  C   C1369     1.0  0.89283  0.76937  0.82805  1.0000
  C   C1370     1.0  0.95076  0.80019  0.84015  1.0000
  Fe  Fe96      1.0  0.49346  0.96577  0.70105  1.0000
  H   H1104     1.0  0.94793  0.69302  0.98169  1.0000
  C   C1371     1.0  0.95426  0.62440  0.75092  1.0000
  C   C1372     1.0  0.92985  0.69267  0.73415  1.0000
  C   C1373     1.0  0.68931  0.60935  0.98204  1.0000
  C   C1374     1.0  0.87999  0.78580  0.84775  1.0000
  C   C1375     1.0  0.85095  0.77808  0.85676  1.0000
  C   C1376     1.0  0.83444  0.75403  0.84617  1.0000
  C   C1377     1.0  0.84694  0.73769  0.82646  1.0000
  C   C1378     1.0  0.87599  0.74532  0.81741  1.0000
  C   C1379     1.0  0.92793  0.80047  0.78834  1.0000
  C   C1380     1.0  0.95192  0.82002  0.78098  1.0000
  C   C1381     1.0  0.94939  0.83811  0.75984  1.0000
  C   C1382     1.0  0.92315  0.83645  0.74555  1.0000
  C   C1383     1.0  0.89944  0.81645  0.75229  1.0000
  C   C1384     1.0  0.90173  0.79859  0.77362  1.0000
  H   H1105     1.0  0.58656  0.89593  0.80769  1.0000
  H   H1106     1.0  0.57011  0.56511  0.71595  1.0000
  C   C1385     1.0  0.61141  0.53951  0.71855  1.0000
  H   H1107     1.0  0.92632  0.71694  0.83798  1.0000
  H   H1108     1.0  0.53238  0.89642  0.68629  1.0000
  C   C1386     1.0  0.86127  0.79349  0.65925  1.0000
  C   C1387     1.0  0.57233  0.86997  0.67884  1.0000
  C   C1388     1.0  0.75010  0.84972  0.67285  1.0000
  H   H1109     1.0  0.69643  0.93138  0.71107  1.0000
  H   H1110     1.0  0.50377  0.85336  0.70579  1.0000
  H   H1111     1.0  0.89237  0.80441  0.85637  1.0000
  H   H1112     1.0  0.84135  0.79066  0.87215  1.0000
  H   H1113     1.0  0.81203  0.74797  0.85333  1.0000
  H   H1114     1.0  0.83418  0.71893  0.81834  1.0000
  H   H1115     1.0  0.88543  0.73233  0.80222  1.0000
  H   H1116     1.0  0.96755  0.85403  0.75481  1.0000
  C   C1389     1.0  0.57359  0.51149  0.66844  1.0000
  H   H1117     1.0  0.92113  0.85099  0.72944  1.0000
  H   H1118     1.0  0.87904  0.81532  0.74121  1.0000
  H   H1119     1.0  0.88279  0.78385  0.77866  1.0000
  C   C1390     1.0  0.68365  0.90860  0.67742  1.0000
  H   H1120     1.0  0.53292  0.94735  0.84963  1.0000
  C   C1391     1.0  0.66326  0.89546  0.71776  1.0000
  C   C1392     1.0  0.64528  0.87243  0.70713  1.0000
  C   C1393     1.0  0.64653  0.86724  0.68154  1.0000
  C   C1394     1.0  0.56986  0.95376  0.66701  1.0000
  C   C1395     1.0  0.54554  0.92818  0.85646  1.0000
  H   H1121     1.0  0.69663  0.76718  0.70837  1.0000
  H   H1122     1.0  0.52021  0.95685  0.80048  1.0000
  H   H1123     1.0  0.81270  0.52319  0.66700  1.0000
  C   C1396     1.0  0.95622  0.74154  0.73196  1.0000
  C   C1397     1.0  0.94884  0.83212  0.84117  1.0000
  C   C1398     1.0  0.50656  0.73793  0.97589  1.0000
  H   H1124     1.0  0.66224  0.89943  0.73749  1.0000
  H   H1125     1.0  0.96582  0.60896  0.78740  1.0000
  C   C1399     1.0  0.87047  0.76890  0.67391  1.0000
  C   C1400     1.0  0.55804  0.53902  0.66626  1.0000
  C   C1401     1.0  0.66407  0.79737  0.69212  1.0000
  H   H1126     1.0  0.91882  0.84383  0.67296  1.0000
  S   S191      1.0  0.54476  0.96684  0.69091  1.0000
  H   H1127     1.0  0.59140  0.86051  0.88236  1.0000
  C   C1402     1.0  0.56940  0.81675  0.69066  1.0000
  H   H1128     1.0  0.91305  0.67791  0.74305  1.0000
  H   H1129     1.0  0.50311  0.90164  0.76659  1.0000
  H   H1130     1.0  0.67792  0.72149  0.68572  1.0000
  H   H1131     1.0  0.70699  0.61353  0.94491  1.0000
  C   C1403     1.0  0.94715  0.68196  0.71409  1.0000
  H   H1132     1.0  0.59112  0.62204  0.97115  1.0000
  H   H1133     1.0  0.78547  0.88236  0.68177  1.0000
  C   C1404     1.0  0.63970  0.80001  0.67565  1.0000
  C   C1405     1.0  0.83950  0.94499  0.66953  1.0000
  S   S192      1.0  0.98298  0.51369  0.74544  1.0000
  C   C1406     1.0  0.66860  0.64271  0.95101  1.0000
  C   C1407     1.0  0.90538  0.82281  0.67324  1.0000
  H   H1134     1.0  0.48996  0.86037  0.85812  1.0000
  H   H1135     1.0  0.93486  0.80011  0.69866  1.0000
  C   C1408     1.0  0.58572  0.84118  0.67988  1.0000
  C   C1409     1.0  0.80375  0.84222  0.66456  1.0000
  C   C1410     1.0  0.64286  0.74576  0.66680  1.0000
  C   C1411     1.0  0.96350  0.84844  0.85994  1.0000
  C   C1412     1.0  0.52000  0.64714  0.98423  1.0000
  H   H1136     1.0  0.63072  0.66991  0.96250  1.0000
  C   C1413     1.0  0.58023  0.90788  0.88666  1.0000
  C   C1414     1.0  0.60423  0.50927  0.66024  1.0000
  C   C1415     1.0  0.96029  0.69055  0.81962  1.0000
  C   C1416     1.0  0.97961  0.72189  0.96118  1.0000
  H   H1137     1.0  0.60991  0.96921  0.68634  1.0000
  H   H1138     1.0  0.52744  0.80238  0.70851  1.0000
  C   C1417     1.0  0.64671  0.65263  0.96799  1.0000
  H   H1139     1.0  0.57933  0.79441  0.69206  1.0000
  C   C1418     1.0  0.89692  0.77130  0.68806  1.0000
  C   C1419     1.0  0.56372  0.93224  0.87733  1.0000
  H   H1140     1.0  0.51465  0.84289  0.78201  1.0000
  H   H1141     1.0  0.96242  0.87310  0.86036  1.0000
  C   C1420     1.0  0.66548  0.88580  0.66675  1.0000
  H   H1142     1.0  0.59415  0.91101  0.90293  1.0000
  H   H1143     1.0  0.53289  0.91315  0.72884  1.0000
  C   C1421     1.0  0.62498  0.51350  0.72811  1.0000
  C   C1422     1.0  0.56395  0.52537  0.73891  1.0000
  C   C1423     1.0  0.54270  0.87416  0.68768  1.0000
  C   C1424     1.0  0.49135  0.84533  0.84228  1.0000
  H   H1144     1.0  0.83238  0.61737  0.68764  1.0000
  C   C1425     1.0  0.86995  0.94196  0.67734  1.0000
  C   C1426     1.0  0.57870  0.87944  0.87506  1.0000
  C   C1427     1.0  0.59133  0.90475  0.76887  1.0000
  H   H1145     1.0  0.79895  0.74899  0.67620  1.0000
  C   C1428     1.0  0.52776  0.90236  0.76742  1.0000
  C   C1429     1.0  0.91434  0.79825  0.68776  1.0000
  C   C1430     1.0  0.68985  0.62101  0.95800  1.0000
  H   H1146     1.0  0.58481  0.88916  0.67098  1.0000
  C   C1431     1.0  0.98168  0.80128  0.87718  1.0000
  H   H1147     1.0  0.64842  0.50862  0.72333  1.0000
  C   C1432     1.0  0.53994  0.82117  0.70003  1.0000
  C   C1433     1.0  0.52657  0.84986  0.69850  1.0000
  C   C1434     1.0  0.89734  0.55016  0.66268  1.0000
  C   C1435     1.0  0.90490  0.65934  0.66313  1.0000
  H   H1148     1.0  0.49704  0.64628  0.97705  1.0000
  H   H1149     1.0  0.69825  0.92283  0.66579  1.0000
  C   C1436     1.0  0.74330  0.82178  0.66164  1.0000
  C   C1437     1.0  0.62922  0.77396  0.66302  1.0000
  C   C1438     1.0  0.87915  0.82034  0.65891  1.0000
  H   H1150     1.0  0.61597  0.48795  0.66241  1.0000
  H   H1151     1.0  0.70617  0.59298  0.98759  1.0000
  C   C1439     1.0  0.80014  0.73736  0.65858  1.0000
  H   H1152     1.0  0.48723  0.73454  0.93913  1.0000
  C   C1440     1.0  0.85213  0.64396  0.65807  1.0000
